data_image0
_chemical_formula_structural       Cu2O8N6C10H2C2H2C2H2C2H2C2H2C2H2C6H2C2H2C2H2C2H2
_chemical_formula_sum              "Cu2 O8 N6 C32 H20"
_cell_length_a       8.0978
_cell_length_b       9.7244
_cell_length_c       11.694
_cell_angle_alpha    89.26
_cell_angle_beta     89.12
_cell_angle_gamma    89.64

_space_group_name_H-M_alt    "P 1"
_space_group_IT_number       1

loop_
  _space_group_symop_operation_xyz
  'x, y, z'

loop_
  _atom_site_type_symbol
  _atom_site_label
  _atom_site_symmetry_multiplicity
  _atom_site_fract_x
  _atom_site_fract_y
  _atom_site_fract_z
  _atom_site_occupancy
  Cu  Cu1       1.0  0.00000  0.50000  0.50000  1.0000
  Cu  Cu2       1.0  0.00000  0.50000  0.00000  1.0000
  O   O1        1.0  0.99810  0.62720  0.36830  1.0000
  O   O2        1.0  0.00190  0.37280  0.63170  1.0000
  O   O3        1.0  0.86550  0.74850  0.49810  1.0000
  O   O4        1.0  0.13450  0.25150  0.50190  1.0000
  O   O5        1.0  0.82390  0.59480  0.16640  1.0000
  O   O6        1.0  0.17610  0.40520  0.83360  1.0000
  O   O7        1.0  0.00870  0.69140  0.05090  1.0000
  O   O8        1.0  0.99130  0.30860  0.94910  1.0000
  N   N1        1.0  0.18450  0.45750  0.10550  1.0000
  N   N2        1.0  0.81550  0.54250  0.89450  1.0000
  N   N3        1.0  0.78410  0.42300  0.45460  1.0000
  N   N4        1.0  0.21590  0.57700  0.54540  1.0000
  N   N5        1.0  0.70120  0.45750  0.35680  1.0000
  N   N6        1.0  0.29880  0.54250  0.64320  1.0000
  C   C1        1.0  0.91800  0.73410  0.39970  1.0000
  C   C2        1.0  0.08200  0.26590  0.60030  1.0000
  C   C3        1.0  0.89330  0.84870  0.31410  1.0000
  C   C4        1.0  0.10670  0.15130  0.68590  1.0000
  C   C5        1.0  0.89620  0.83070  0.19540  1.0000
  C   C6        1.0  0.10380  0.16930  0.80460  1.0000
  C   C7        1.0  0.91070  0.69580  0.13640  1.0000
  C   C8        1.0  0.08930  0.30420  0.86360  1.0000
  C   C9        1.0  0.88050  0.94670  0.12440  1.0000
  C   C10       1.0  0.11950  0.05330  0.87560  1.0000
  H   H1        1.0  0.88420  0.93620  0.04550  1.0000
  H   H2        1.0  0.11580  0.06380  0.95450  1.0000
  C   C11       1.0  0.86000  0.07540  0.16880  1.0000
  C   C12       1.0  0.14000  0.92460  0.83120  1.0000
  H   H3        1.0  0.84880  0.15110  0.12000  1.0000
  H   H4        1.0  0.15120  0.84890  0.88000  1.0000
  C   C13       1.0  0.85590  0.09290  0.28470  1.0000
  C   C14       1.0  0.14410  0.90710  0.71530  1.0000
  H   H5        1.0  0.84240  0.18030  0.31500  1.0000
  H   H6        1.0  0.15760  0.81970  0.68500  1.0000
  C   C15       1.0  0.87190  0.98000  0.35610  1.0000
  C   C16       1.0  0.12810  0.02000  0.64390  1.0000
  H   H7        1.0  0.86830  0.99240  0.43490  1.0000
  H   H8        1.0  0.13170  0.00760  0.56510  1.0000
  C   C17       1.0  0.68560  0.33920  0.51370  1.0000
  C   C18       1.0  0.31440  0.66080  0.48630  1.0000
  H   H9        1.0  0.71160  0.29920  0.58390  1.0000
  H   H10       1.0  0.28840  0.70080  0.41610  1.0000
  C   C19       1.0  0.53880  0.31900  0.45710  1.0000
  C   C20       1.0  0.46120  0.68100  0.54290  1.0000
  H   H11       1.0  0.45020  0.26490  0.48120  1.0000
  H   H12       1.0  0.54980  0.73510  0.51880  1.0000
  C   C21       1.0  0.55170  0.39550  0.35790  1.0000
  C   C22       1.0  0.44830  0.60450  0.64210  1.0000
  C   C23       1.0  0.42930  0.41670  0.26730  1.0000
  C   C24       1.0  0.57070  0.58330  0.73270  1.0000
  C   C25       1.0  0.28490  0.34330  0.27110  1.0000
  C   C26       1.0  0.71510  0.65670  0.72890  1.0000
  H   H13       1.0  0.26660  0.27810  0.32870  1.0000
  H   H14       1.0  0.73340  0.72190  0.67130  1.0000
  C   C27       1.0  0.16820  0.36700  0.18960  1.0000
  C   C28       1.0  0.83180  0.63300  0.81040  1.0000
  H   H15       1.0  0.07150  0.31600  0.19390  1.0000
  H   H16       1.0  0.92850  0.68400  0.80610  1.0000
  C   C29       1.0  0.32270  0.52770  0.10170  1.0000
  C   C30       1.0  0.67730  0.47230  0.89830  1.0000
  H   H17       1.0  0.33670  0.59350  0.04400  1.0000
  H   H18       1.0  0.66330  0.40650  0.95600  1.0000
  C   C31       1.0  0.44780  0.50870  0.17900  1.0000
  C   C32       1.0  0.55220  0.49130  0.82100  1.0000
  H   H19       1.0  0.54500  0.55870  0.17100  1.0000
  H   H20       1.0  0.45500  0.44130  0.82900  1.0000
