data_image0
_chemical_formula_structural       Fe8F20N24C8H8C8H8
_chemical_formula_sum              "Fe8 F20 N24 C16 H16"
_cell_length_a       17.1968
_cell_length_b       8.9793
_cell_length_c       8.5318
_cell_angle_alpha    90
_cell_angle_beta     90
_cell_angle_gamma    90

_space_group_name_H-M_alt    "P 1"
_space_group_IT_number       1

loop_
  _space_group_symop_operation_xyz
  'x, y, z'

loop_
  _atom_site_type_symbol
  _atom_site_label
  _atom_site_symmetry_multiplicity
  _atom_site_fract_x
  _atom_site_fract_y
  _atom_site_fract_z
  _atom_site_occupancy
  Fe  Fe1       1.0  0.42845  0.25000  0.31073  1.0000
  Fe  Fe2       1.0  0.92845  0.25000  0.18927  1.0000
  Fe  Fe3       1.0  0.57155  0.75000  0.68927  1.0000
  Fe  Fe4       1.0  0.07155  0.75000  0.81073  1.0000
  Fe  Fe5       1.0  0.22819  0.25000  0.24328  1.0000
  Fe  Fe6       1.0  0.72819  0.25000  0.25672  1.0000
  Fe  Fe7       1.0  0.77181  0.75000  0.75672  1.0000
  Fe  Fe8       1.0  0.27181  0.75000  0.74328  1.0000
  F   F1        1.0  0.49610  0.25000  0.47730  1.0000
  F   F2        1.0  0.99610  0.25000  0.02270  1.0000
  F   F3        1.0  0.50390  0.75000  0.52270  1.0000
  F   F4        1.0  0.00390  0.75000  0.97730  1.0000
  F   F5        1.0  0.33680  0.25000  0.16180  1.0000
  F   F6        1.0  0.83680  0.25000  0.33820  1.0000
  F   F7        1.0  0.66320  0.75000  0.83820  1.0000
  F   F8        1.0  0.16320  0.75000  0.66180  1.0000
  F   F9        1.0  0.47390  0.40410  0.19490  1.0000
  F   F10       1.0  0.97390  0.09590  0.30510  1.0000
  F   F11       1.0  0.52610  0.90410  0.80510  1.0000
  F   F12       1.0  0.02610  0.59590  0.69490  1.0000
  F   F13       1.0  0.52610  0.59590  0.80510  1.0000
  F   F14       1.0  0.02610  0.90410  0.69490  1.0000
  F   F15       1.0  0.47390  0.09590  0.19490  1.0000
  F   F16       1.0  0.97390  0.40410  0.30510  1.0000
  F   F17       1.0  0.13160  0.25000  0.33560  1.0000
  F   F18       1.0  0.63160  0.25000  0.16440  1.0000
  F   F19       1.0  0.86840  0.75000  0.66440  1.0000
  F   F20       1.0  0.36840  0.75000  0.83560  1.0000
  N   N1        1.0  0.22560  0.90910  0.90030  1.0000
  N   N2        1.0  0.72560  0.59090  0.59970  1.0000
  N   N3        1.0  0.77440  0.40910  0.09970  1.0000
  N   N4        1.0  0.27440  0.09090  0.40030  1.0000
  N   N5        1.0  0.77440  0.09090  0.09970  1.0000
  N   N6        1.0  0.27440  0.40910  0.40030  1.0000
  N   N7        1.0  0.22560  0.59090  0.90030  1.0000
  N   N8        1.0  0.72560  0.90910  0.59970  1.0000
  N   N9        1.0  0.14640  0.91080  0.93170  1.0000
  N   N10       1.0  0.64640  0.58920  0.56830  1.0000
  N   N11       1.0  0.85360  0.41080  0.06830  1.0000
  N   N12       1.0  0.35360  0.08920  0.43170  1.0000
  N   N13       1.0  0.85360  0.08920  0.06830  1.0000
  N   N14       1.0  0.35360  0.41080  0.43170  1.0000
  N   N15       1.0  0.14640  0.58920  0.93170  1.0000
  N   N16       1.0  0.64640  0.91080  0.56830  1.0000
  N   N17       1.0  0.20330  0.08050  0.08110  1.0000
  N   N18       1.0  0.70330  0.41950  0.41890  1.0000
  N   N19       1.0  0.79670  0.58050  0.91890  1.0000
  N   N20       1.0  0.29670  0.91950  0.58110  1.0000
  N   N21       1.0  0.79670  0.91950  0.91890  1.0000
  N   N22       1.0  0.29670  0.58050  0.58110  1.0000
  N   N23       1.0  0.20330  0.41950  0.08110  1.0000
  N   N24       1.0  0.70330  0.08050  0.41890  1.0000
  C   C1        1.0  0.13620  0.01400  0.04000  1.0000
  C   C2        1.0  0.63620  0.48600  0.46000  1.0000
  C   C3        1.0  0.86380  0.51400  0.96000  1.0000
  C   C4        1.0  0.36380  0.98600  0.54000  1.0000
  C   C5        1.0  0.86380  0.98600  0.96000  1.0000
  C   C6        1.0  0.36380  0.51400  0.54000  1.0000
  C   C7        1.0  0.13620  0.48600  0.04000  1.0000
  C   C8        1.0  0.63620  0.01400  0.46000  1.0000
  H   H1        1.0  0.08810  0.03800  0.08300  1.0000
  H   H2        1.0  0.58810  0.46200  0.41700  1.0000
  H   H3        1.0  0.91190  0.53800  0.91700  1.0000
  H   H4        1.0  0.41190  0.96200  0.58300  1.0000
  H   H5        1.0  0.91190  0.96200  0.91700  1.0000
  H   H6        1.0  0.41190  0.53800  0.58300  1.0000
  H   H7        1.0  0.08810  0.46200  0.08300  1.0000
  H   H8        1.0  0.58810  0.03800  0.41700  1.0000
  C   C9        1.0  0.25730  0.01270  0.99220  1.0000
  C   C10       1.0  0.75730  0.48730  0.50780  1.0000
  C   C11       1.0  0.74270  0.51270  0.00780  1.0000
  C   C12       1.0  0.24270  0.98730  0.49220  1.0000
  C   C13       1.0  0.74270  0.98730  0.00780  1.0000
  C   C14       1.0  0.24270  0.51270  0.49220  1.0000
  C   C15       1.0  0.25730  0.48730  0.99220  1.0000
  C   C16       1.0  0.75730  0.01270  0.50780  1.0000
  H   H9        1.0  0.31010  0.03530  0.99450  1.0000
  H   H10       1.0  0.81010  0.46470  0.50550  1.0000
  H   H11       1.0  0.68990  0.53530  0.00550  1.0000
  H   H12       1.0  0.18990  0.96470  0.49450  1.0000
  H   H13       1.0  0.68990  0.96470  0.00550  1.0000
  H   H14       1.0  0.18990  0.53530  0.49450  1.0000
  H   H15       1.0  0.31010  0.46470  0.99450  1.0000
  H   H16       1.0  0.81010  0.03530  0.50550  1.0000
