data_image0
_chemical_formula_structural       Sc4O32C4H4C4H4C12H4C4H4C8H4C4H4C4H4C4H4C12H4C4H4C16H4C4H4C12H4C12H4C4H4C4H4
_chemical_formula_sum              "Sc4 O32 C112 H64"
_cell_length_a       7.5436
_cell_length_b       12.1709
_cell_length_c       27.175
_cell_angle_alpha    90
_cell_angle_beta     90
_cell_angle_gamma    90

_space_group_name_H-M_alt    "P 1"
_space_group_IT_number       1

loop_
  _space_group_symop_operation_xyz
  'x, y, z'

loop_
  _atom_site_type_symbol
  _atom_site_label
  _atom_site_symmetry_multiplicity
  _atom_site_fract_x
  _atom_site_fract_y
  _atom_site_fract_z
  _atom_site_occupancy
  Sc  Sc1       1.0  0.80620  0.11150  0.54387  1.0000
  Sc  Sc2       1.0  0.19380  0.88850  0.04387  1.0000
  Sc  Sc3       1.0  0.69380  0.61150  0.04387  1.0000
  Sc  Sc4       1.0  0.30620  0.38850  0.54387  1.0000
  O   O1        1.0  0.61360  0.49120  0.99510  1.0000
  O   O2        1.0  0.38640  0.50880  0.49510  1.0000
  O   O3        1.0  0.88640  0.99120  0.49510  1.0000
  O   O4        1.0  0.11360  0.00880  0.99510  1.0000
  O   O5        1.0  0.07360  0.38210  0.50130  1.0000
  O   O6        1.0  0.92640  0.61790  0.00130  1.0000
  O   O7        1.0  0.42640  0.88210  0.00130  1.0000
  O   O8        1.0  0.57360  0.11790  0.50130  1.0000
  O   O9        1.0  0.78660  0.50530  0.09750  1.0000
  O   O10       1.0  0.21340  0.49470  0.59750  1.0000
  O   O11       1.0  0.71340  0.00530  0.59750  1.0000
  O   O12       1.0  0.28660  0.99470  0.09750  1.0000
  O   O13       1.0  0.71620  0.23850  0.58800  1.0000
  O   O14       1.0  0.28380  0.76150  0.08800  1.0000
  O   O15       1.0  0.78380  0.73850  0.08800  1.0000
  O   O16       1.0  0.21620  0.26150  0.58800  1.0000
  O   O17       1.0  0.54980  0.38860  0.58200  1.0000
  O   O18       1.0  0.45020  0.61140  0.08200  1.0000
  O   O19       1.0  0.95020  0.88860  0.08200  1.0000
  O   O20       1.0  0.04980  0.11140  0.58200  1.0000
  O   O21       1.0  0.91570  0.22910  0.49900  1.0000
  O   O22       1.0  0.08430  0.77090  0.99900  1.0000
  O   O23       1.0  0.58430  0.72910  0.99900  1.0000
  O   O24       1.0  0.41570  0.27090  0.49900  1.0000
  O   O25       1.0  0.79280  0.34620  0.99870  1.0000
  O   O26       1.0  0.20720  0.65380  0.49870  1.0000
  O   O27       1.0  0.70720  0.84620  0.49870  1.0000
  O   O28       1.0  0.29280  0.15380  0.99870  1.0000
  O   O29       1.0  0.59900  0.36340  0.10000  1.0000
  O   O30       1.0  0.40100  0.63660  0.60000  1.0000
  O   O31       1.0  0.90100  0.86340  0.60000  1.0000
  O   O32       1.0  0.09900  0.13660  0.10000  1.0000
  C   C1        1.0  0.93240  0.44730  0.24410  1.0000
  C   C2        1.0  0.06760  0.55270  0.74410  1.0000
  C   C3        1.0  0.56760  0.94730  0.74410  1.0000
  C   C4        1.0  0.43240  0.05270  0.24410  1.0000
  H   H1        1.0  0.02185  0.48816  0.25895  1.0000
  H   H2        1.0  0.97815  0.51184  0.75895  1.0000
  H   H3        1.0  0.47815  0.98816  0.75895  1.0000
  H   H4        1.0  0.52185  0.01184  0.25895  1.0000
  C   C5        1.0  0.93000  0.44710  0.35470  1.0000
  C   C6        1.0  0.07000  0.55290  0.85470  1.0000
  C   C7        1.0  0.57000  0.94710  0.85470  1.0000
  C   C8        1.0  0.43000  0.05290  0.35470  1.0000
  H   H5        1.0  0.94817  0.51552  0.34031  1.0000
  H   H6        1.0  0.05183  0.48448  0.84031  1.0000
  H   H7        1.0  0.55183  0.01552  0.84031  1.0000
  H   H8        1.0  0.44817  0.98448  0.34031  1.0000
  C   C9        1.0  0.86740  0.35920  0.32560  1.0000
  C   C10       1.0  0.13260  0.64080  0.82560  1.0000
  C   C11       1.0  0.63260  0.85920  0.82560  1.0000
  C   C12       1.0  0.36740  0.14080  0.32560  1.0000
  C   C13       1.0  0.63640  0.31730  0.60730  1.0000
  C   C14       1.0  0.36360  0.68270  0.10730  1.0000
  C   C15       1.0  0.86360  0.81730  0.10730  1.0000
  C   C16       1.0  0.13640  0.18270  0.60730  1.0000
  C   C17       1.0  0.70360  0.25940  0.74130  1.0000
  C   C18       1.0  0.29640  0.74060  0.24130  1.0000
  C   C19       1.0  0.79640  0.75940  0.24130  1.0000
  C   C20       1.0  0.20360  0.24060  0.74130  1.0000
  H   H9        1.0  0.73806  0.20007  0.76066  1.0000
  H   H10       1.0  0.26194  0.79993  0.26066  1.0000
  H   H11       1.0  0.76194  0.70007  0.26066  1.0000
  H   H12       1.0  0.23806  0.29993  0.76066  1.0000
  C   C21       1.0  0.86490  0.24790  0.39850  1.0000
  C   C22       1.0  0.13510  0.75210  0.89850  1.0000
  C   C23       1.0  0.63510  0.74790  0.89850  1.0000
  C   C24       1.0  0.36490  0.25210  0.39850  1.0000
  H   H13       1.0  0.83915  0.18088  0.41330  1.0000
  H   H14       1.0  0.16085  0.81912  0.91330  1.0000
  H   H15       1.0  0.66085  0.68088  0.91330  1.0000
  H   H16       1.0  0.33915  0.31912  0.41330  1.0000
  C   C25       1.0  0.64970  0.33480  0.66140  1.0000
  C   C26       1.0  0.35030  0.66520  0.16140  1.0000
  C   C27       1.0  0.85030  0.83480  0.16140  1.0000
  C   C28       1.0  0.14970  0.16520  0.66140  1.0000
  C   C29       1.0  0.54960  0.44360  0.84320  1.0000
  C   C30       1.0  0.45040  0.55640  0.34320  1.0000
  C   C31       1.0  0.95040  0.94360  0.34320  1.0000
  C   C32       1.0  0.04960  0.05640  0.84320  1.0000
  H   H17       1.0  0.46826  0.48528  0.82549  1.0000
  H   H18       1.0  0.53174  0.51472  0.32549  1.0000
  H   H19       1.0  0.03174  0.98528  0.32549  1.0000
  H   H20       1.0  0.96826  0.01472  0.82549  1.0000
  C   C33       1.0  0.89870  0.46150  0.19400  1.0000
  C   C34       1.0  0.10130  0.53850  0.69400  1.0000
  C   C35       1.0  0.60130  0.96150  0.69400  1.0000
  C   C36       1.0  0.39870  0.03850  0.19400  1.0000
  H   H21       1.0  0.96583  0.51123  0.17588  1.0000
  H   H22       1.0  0.03417  0.48877  0.67588  1.0000
  H   H23       1.0  0.53417  0.01123  0.67588  1.0000
  H   H24       1.0  0.46583  0.98877  0.17588  1.0000
  C   C37       1.0  0.60860  0.44290  0.73320  1.0000
  C   C38       1.0  0.39140  0.55710  0.23320  1.0000
  C   C39       1.0  0.89140  0.94290  0.23320  1.0000
  C   C40       1.0  0.10860  0.05710  0.73320  1.0000
  H   H25       1.0  0.57919  0.51035  0.74708  1.0000
  H   H26       1.0  0.42081  0.48965  0.24708  1.0000
  H   H27       1.0  0.92081  0.01035  0.24708  1.0000
  H   H28       1.0  0.07919  0.98965  0.74708  1.0000
  C   C41       1.0  0.96450  0.43270  0.40410  1.0000
  C   C42       1.0  0.03550  0.56730  0.90410  1.0000
  C   C43       1.0  0.53550  0.93270  0.90410  1.0000
  C   C44       1.0  0.46450  0.06730  0.40410  1.0000
  H   H29       1.0  0.00970  0.49081  0.42243  1.0000
  H   H30       1.0  0.99030  0.50919  0.92243  1.0000
  H   H31       1.0  0.49030  0.99081  0.92243  1.0000
  H   H32       1.0  0.50970  0.00919  0.42243  1.0000
  C   C45       1.0  0.65420  0.35770  0.76410  1.0000
  C   C46       1.0  0.34580  0.64230  0.26410  1.0000
  C   C47       1.0  0.84580  0.85770  0.26410  1.0000
  C   C48       1.0  0.15420  0.14230  0.76410  1.0000
  C   C49       1.0  0.76660  0.40240  0.17140  1.0000
  C   C50       1.0  0.23340  0.59760  0.67140  1.0000
  C   C51       1.0  0.73340  0.90240  0.67140  1.0000
  C   C52       1.0  0.26660  0.09760  0.17140  1.0000
  C   C53       1.0  0.55690  0.45620  0.89320  1.0000
  C   C54       1.0  0.44310  0.54380  0.39320  1.0000
  C   C55       1.0  0.94310  0.95620  0.39320  1.0000
  C   C56       1.0  0.05690  0.04380  0.89320  1.0000
  H   H33       1.0  0.48217  0.50620  0.90870  1.0000
  H   H34       1.0  0.51783  0.49380  0.40870  1.0000
  H   H35       1.0  0.01783  0.00620  0.40870  1.0000
  H   H36       1.0  0.98217  0.99380  0.90870  1.0000
  C   C57       1.0  0.60470  0.43270  0.68290  1.0000
  C   C58       1.0  0.39530  0.56730  0.18290  1.0000
  C   C59       1.0  0.89530  0.93270  0.18290  1.0000
  C   C60       1.0  0.10470  0.06730  0.68290  1.0000
  H   H37       1.0  0.57147  0.49218  0.66348  1.0000
  H   H38       1.0  0.42853  0.50782  0.16348  1.0000
  H   H39       1.0  0.92853  0.99218  0.16348  1.0000
  H   H40       1.0  0.07147  0.00782  0.66348  1.0000
  C   C61       1.0  0.83490  0.37330  0.27240  1.0000
  C   C62       1.0  0.16510  0.62670  0.77240  1.0000
  C   C63       1.0  0.66510  0.87330  0.77240  1.0000
  C   C64       1.0  0.33490  0.12670  0.27240  1.0000
  C   C65       1.0  0.65940  0.37080  0.81750  1.0000
  C   C66       1.0  0.34060  0.62920  0.31750  1.0000
  C   C67       1.0  0.84060  0.87080  0.31750  1.0000
  C   C68       1.0  0.15940  0.12920  0.81750  1.0000
  C   C69       1.0  0.71400  0.42200  0.11910  1.0000
  C   C70       1.0  0.28600  0.57800  0.61910  1.0000
  C   C71       1.0  0.78600  0.92200  0.61910  1.0000
  C   C72       1.0  0.21400  0.07800  0.11910  1.0000
  C   C73       1.0  0.70500  0.31340  0.24870  1.0000
  C   C74       1.0  0.29500  0.68660  0.74870  1.0000
  C   C75       1.0  0.79500  0.81340  0.74870  1.0000
  C   C76       1.0  0.20500  0.18660  0.24870  1.0000
  H   H41       1.0  0.63817  0.26319  0.26657  1.0000
  H   H42       1.0  0.36183  0.73681  0.76657  1.0000
  H   H43       1.0  0.86183  0.76319  0.76657  1.0000
  H   H44       1.0  0.13817  0.23681  0.26657  1.0000
  C   C77       1.0  0.78080  0.31810  0.89690  1.0000
  C   C78       1.0  0.21920  0.68190  0.39690  1.0000
  C   C79       1.0  0.71920  0.81810  0.39690  1.0000
  C   C80       1.0  0.28080  0.18190  0.89690  1.0000
  H   H45       1.0  0.85825  0.27404  0.91474  1.0000
  H   H46       1.0  0.14175  0.72596  0.41474  1.0000
  H   H47       1.0  0.64175  0.77404  0.41474  1.0000
  H   H48       1.0  0.35825  0.22596  0.91474  1.0000
  C   C81       1.0  0.97600  0.31490  0.47910  1.0000
  C   C82       1.0  0.02400  0.68510  0.97910  1.0000
  C   C83       1.0  0.52400  0.81490  0.97910  1.0000
  C   C84       1.0  0.47600  0.18510  0.47910  1.0000
  C   C85       1.0  0.69320  0.41060  0.97570  1.0000
  C   C86       1.0  0.30680  0.58940  0.47570  1.0000
  C   C87       1.0  0.80680  0.91060  0.47570  1.0000
  C   C88       1.0  0.19320  0.08940  0.97570  1.0000
  C   C89       1.0  0.70260  0.24840  0.69090  1.0000
  C   C90       1.0  0.29740  0.75160  0.19090  1.0000
  C   C91       1.0  0.79740  0.74840  0.19090  1.0000
  C   C92       1.0  0.20260  0.25160  0.69090  1.0000
  H   H49       1.0  0.73765  0.18241  0.67659  1.0000
  H   H50       1.0  0.26235  0.81759  0.17659  1.0000
  H   H51       1.0  0.76235  0.68241  0.17659  1.0000
  H   H52       1.0  0.23765  0.31759  0.67659  1.0000
  C   C93       1.0  0.93260  0.33300  0.42660  1.0000
  C   C94       1.0  0.06740  0.66700  0.92660  1.0000
  C   C95       1.0  0.56740  0.83300  0.92660  1.0000
  C   C96       1.0  0.43260  0.16700  0.42660  1.0000
  C   C97       1.0  0.67610  0.39410  0.92130  1.0000
  C   C98       1.0  0.32390  0.60590  0.42130  1.0000
  C   C99       1.0  0.82390  0.89410  0.42130  1.0000
  C   C100      1.0  0.17610  0.10590  0.92130  1.0000
  C   C101      1.0  0.67160  0.32640  0.19870  1.0000
  C   C102      1.0  0.32840  0.67360  0.69870  1.0000
  C   C103      1.0  0.82840  0.82640  0.69870  1.0000
  C   C104      1.0  0.17160  0.17360  0.19870  1.0000
  H   H53       1.0  0.58498  0.28385  0.18358  1.0000
  H   H54       1.0  0.41502  0.71615  0.68358  1.0000
  H   H55       1.0  0.91502  0.78385  0.68358  1.0000
  H   H56       1.0  0.08498  0.21615  0.18358  1.0000
  C   C105      1.0  0.83540  0.26120  0.34880  1.0000
  C   C106      1.0  0.16460  0.73880  0.84880  1.0000
  C   C107      1.0  0.66460  0.76120  0.84880  1.0000
  C   C108      1.0  0.33540  0.23880  0.34880  1.0000
  H   H57       1.0  0.79265  0.20220  0.33058  1.0000
  H   H58       1.0  0.20735  0.79780  0.83058  1.0000
  H   H59       1.0  0.70735  0.70220  0.83058  1.0000
  H   H60       1.0  0.29265  0.29780  0.33058  1.0000
  C   C109      1.0  0.77170  0.30690  0.84680  1.0000
  C   C110      1.0  0.22830  0.69310  0.34680  1.0000
  C   C111      1.0  0.72830  0.80690  0.34680  1.0000
  C   C112      1.0  0.27170  0.19310  0.84680  1.0000
  H   H61       1.0  0.84319  0.25468  0.83160  1.0000
  H   H62       1.0  0.15681  0.74532  0.33160  1.0000
  H   H63       1.0  0.65681  0.75468  0.33160  1.0000
  H   H64       1.0  0.34319  0.24532  0.83160  1.0000
