data_image0
_chemical_formula_structural       Cu16Cl4O64C16H24C16H24C16H24C16H24
_chemical_formula_sum              "Cu16 Cl4 O64 C64 H96"
_cell_length_a       22.097
_cell_length_b       13.146
_cell_length_c       23.607
_cell_angle_alpha    90
_cell_angle_beta     117.122
_cell_angle_gamma    90

_space_group_name_H-M_alt    "P 1"
_space_group_IT_number       1

loop_
  _space_group_symop_operation_xyz
  'x, y, z'

loop_
  _atom_site_type_symbol
  _atom_site_label
  _atom_site_symmetry_multiplicity
  _atom_site_fract_x
  _atom_site_fract_y
  _atom_site_fract_z
  _atom_site_occupancy
  Cu  Cu1       1.0  0.11018  0.34481  0.34274  1.0000
  Cu  Cu2       1.0  0.88982  0.34481  0.15726  1.0000
  Cu  Cu3       1.0  0.61018  0.84481  0.34274  1.0000
  Cu  Cu4       1.0  0.38982  0.84481  0.15726  1.0000
  Cu  Cu5       1.0  0.88982  0.65519  0.65726  1.0000
  Cu  Cu6       1.0  0.11018  0.65519  0.84274  1.0000
  Cu  Cu7       1.0  0.38982  0.15519  0.65726  1.0000
  Cu  Cu8       1.0  0.61018  0.15519  0.84274  1.0000
  Cu  Cu9       1.0  0.22901  0.32446  0.44052  1.0000
  Cu  Cu10      1.0  0.77099  0.32446  0.05948  1.0000
  Cu  Cu11      1.0  0.72901  0.82446  0.44052  1.0000
  Cu  Cu12      1.0  0.27099  0.82446  0.05948  1.0000
  Cu  Cu13      1.0  0.77099  0.67554  0.55948  1.0000
  Cu  Cu14      1.0  0.22901  0.67554  0.94052  1.0000
  Cu  Cu15      1.0  0.27099  0.17554  0.55948  1.0000
  Cu  Cu16      1.0  0.72901  0.17554  0.94052  1.0000
  Cl  Cl1       1.0  0.00000  0.36569  0.25000  1.0000
  Cl  Cl2       1.0  0.50000  0.86569  0.25000  1.0000
  Cl  Cl3       1.0  0.00000  0.63431  0.75000  1.0000
  Cl  Cl4       1.0  0.50000  0.13431  0.75000  1.0000
  O   O1        1.0  0.15907  0.45167  0.32111  1.0000
  O   O2        1.0  0.84093  0.45167  0.17889  1.0000
  O   O3        1.0  0.65907  0.95167  0.32111  1.0000
  O   O4        1.0  0.34093  0.95167  0.17889  1.0000
  O   O5        1.0  0.84093  0.54833  0.67889  1.0000
  O   O6        1.0  0.15907  0.54833  0.82111  1.0000
  O   O7        1.0  0.34093  0.04833  0.67889  1.0000
  O   O8        1.0  0.65907  0.04833  0.82111  1.0000
  O   O9        1.0  0.26294  0.41970  0.39901  1.0000
  O   O10       1.0  0.73706  0.41970  0.10099  1.0000
  O   O11       1.0  0.76294  0.91970  0.39901  1.0000
  O   O12       1.0  0.23706  0.91970  0.10099  1.0000
  O   O13       1.0  0.73706  0.58030  0.60099  1.0000
  O   O14       1.0  0.26294  0.58030  0.89901  1.0000
  O   O15       1.0  0.23706  0.08030  0.60099  1.0000
  O   O16       1.0  0.76294  0.08030  0.89901  1.0000
  O   O17       1.0  0.09345  0.43830  0.39834  1.0000
  O   O18       1.0  0.90655  0.43830  0.10166  1.0000
  O   O19       1.0  0.59345  0.93830  0.39834  1.0000
  O   O20       1.0  0.40655  0.93830  0.10166  1.0000
  O   O21       1.0  0.90655  0.56170  0.60166  1.0000
  O   O22       1.0  0.09345  0.56170  0.89834  1.0000
  O   O23       1.0  0.40655  0.06170  0.60166  1.0000
  O   O24       1.0  0.59345  0.06170  0.89834  1.0000
  O   O25       1.0  0.19967  0.43484  0.47704  1.0000
  O   O26       1.0  0.80033  0.43484  0.02296  1.0000
  O   O27       1.0  0.69967  0.93484  0.47704  1.0000
  O   O28       1.0  0.30033  0.93484  0.02296  1.0000
  O   O29       1.0  0.80033  0.56516  0.52296  1.0000
  O   O30       1.0  0.19967  0.56516  0.97704  1.0000
  O   O31       1.0  0.30033  0.06516  0.52296  1.0000
  O   O32       1.0  0.69967  0.06516  0.97704  1.0000
  O   O33       1.0  0.08495  0.23045  0.38354  1.0000
  O   O34       1.0  0.91505  0.23045  0.11646  1.0000
  O   O35       1.0  0.58495  0.73045  0.38354  1.0000
  O   O36       1.0  0.41505  0.73045  0.11646  1.0000
  O   O37       1.0  0.91505  0.76955  0.61646  1.0000
  O   O38       1.0  0.08495  0.76955  0.88354  1.0000
  O   O39       1.0  0.41505  0.26955  0.61646  1.0000
  O   O40       1.0  0.58495  0.26955  0.88354  1.0000
  O   O41       1.0  0.18267  0.22502  0.47165  1.0000
  O   O42       1.0  0.81733  0.22502  0.02835  1.0000
  O   O43       1.0  0.68267  0.72502  0.47165  1.0000
  O   O44       1.0  0.31733  0.72502  0.02835  1.0000
  O   O45       1.0  0.81733  0.77498  0.52835  1.0000
  O   O46       1.0  0.18267  0.77498  0.97165  1.0000
  O   O47       1.0  0.31733  0.27498  0.52835  1.0000
  O   O48       1.0  0.68267  0.27498  0.97165  1.0000
  O   O49       1.0  0.14402  0.24162  0.30413  1.0000
  O   O50       1.0  0.85598  0.24162  0.19587  1.0000
  O   O51       1.0  0.64402  0.74162  0.30413  1.0000
  O   O52       1.0  0.35598  0.74162  0.19587  1.0000
  O   O53       1.0  0.85598  0.75838  0.69587  1.0000
  O   O54       1.0  0.14402  0.75838  0.80413  1.0000
  O   O55       1.0  0.35598  0.25838  0.69587  1.0000
  O   O56       1.0  0.64402  0.25838  0.80413  1.0000
  O   O57       1.0  0.24153  0.21360  0.39190  1.0000
  O   O58       1.0  0.75847  0.21360  0.10810  1.0000
  O   O59       1.0  0.74153  0.71360  0.39190  1.0000
  O   O60       1.0  0.25847  0.71360  0.10810  1.0000
  O   O61       1.0  0.75847  0.78640  0.60810  1.0000
  O   O62       1.0  0.24153  0.78640  0.89190  1.0000
  O   O63       1.0  0.25847  0.28640  0.60810  1.0000
  O   O64       1.0  0.74153  0.28640  0.89190  1.0000
  C   C1        1.0  0.22230  0.46550  0.34956  1.0000
  C   C2        1.0  0.77770  0.46550  0.15044  1.0000
  C   C3        1.0  0.72230  0.96550  0.34956  1.0000
  C   C4        1.0  0.27770  0.96550  0.15044  1.0000
  C   C5        1.0  0.77770  0.53450  0.65044  1.0000
  C   C6        1.0  0.22230  0.53450  0.84956  1.0000
  C   C7        1.0  0.27770  0.03450  0.65044  1.0000
  C   C8        1.0  0.72230  0.03450  0.84956  1.0000
  C   C9        1.0  0.25260  0.54140  0.32215  1.0000
  C   C10       1.0  0.74740  0.54140  0.17785  1.0000
  C   C11       1.0  0.75260  0.04140  0.32215  1.0000
  C   C12       1.0  0.24740  0.04140  0.17785  1.0000
  C   C13       1.0  0.74740  0.45860  0.67785  1.0000
  C   C14       1.0  0.25260  0.45860  0.82215  1.0000
  C   C15       1.0  0.24740  0.95860  0.67785  1.0000
  C   C16       1.0  0.75260  0.95860  0.82215  1.0000
  H   H1        1.0  0.21610  0.57730  0.28660  1.0000
  H   H2        1.0  0.78390  0.57730  0.21340  1.0000
  H   H3        1.0  0.71610  0.07730  0.28660  1.0000
  H   H4        1.0  0.28390  0.07730  0.21340  1.0000
  H   H5        1.0  0.78390  0.42270  0.71340  1.0000
  H   H6        1.0  0.21610  0.42270  0.78660  1.0000
  H   H7        1.0  0.28390  0.92270  0.71340  1.0000
  H   H8        1.0  0.71610  0.92270  0.78660  1.0000
  H   H9        1.0  0.28130  0.50590  0.30680  1.0000
  H   H10       1.0  0.71870  0.50590  0.19320  1.0000
  H   H11       1.0  0.78130  0.00590  0.30680  1.0000
  H   H12       1.0  0.21870  0.00590  0.19320  1.0000
  H   H13       1.0  0.71870  0.49410  0.69320  1.0000
  H   H14       1.0  0.28130  0.49410  0.80680  1.0000
  H   H15       1.0  0.21870  0.99410  0.69320  1.0000
  H   H16       1.0  0.78130  0.99410  0.80680  1.0000
  H   H17       1.0  0.28020  0.59050  0.35510  1.0000
  H   H18       1.0  0.71980  0.59050  0.14490  1.0000
  H   H19       1.0  0.78020  0.09050  0.35510  1.0000
  H   H20       1.0  0.21980  0.09050  0.14490  1.0000
  H   H21       1.0  0.71980  0.40950  0.64490  1.0000
  H   H22       1.0  0.28020  0.40950  0.85510  1.0000
  H   H23       1.0  0.21980  0.90950  0.64490  1.0000
  H   H24       1.0  0.78020  0.90950  0.85510  1.0000
  C   C17       1.0  0.13900  0.46470  0.45198  1.0000
  C   C18       1.0  0.86100  0.46470  0.04802  1.0000
  C   C19       1.0  0.63900  0.96470  0.45198  1.0000
  C   C20       1.0  0.36100  0.96470  0.04802  1.0000
  C   C21       1.0  0.86100  0.53530  0.54802  1.0000
  C   C22       1.0  0.13900  0.53530  0.95198  1.0000
  C   C23       1.0  0.36100  0.03530  0.54802  1.0000
  C   C24       1.0  0.63900  0.03530  0.95198  1.0000
  C   C25       1.0  0.11810  0.53750  0.48930  1.0000
  C   C26       1.0  0.88190  0.53750  0.01070  1.0000
  C   C27       1.0  0.61810  0.03750  0.48930  1.0000
  C   C28       1.0  0.38190  0.03750  0.01070  1.0000
  C   C29       1.0  0.88190  0.46250  0.51070  1.0000
  C   C30       1.0  0.11810  0.46250  0.98930  1.0000
  C   C31       1.0  0.38190  0.96250  0.51070  1.0000
  C   C32       1.0  0.61810  0.96250  0.98930  1.0000
  H   H25       1.0  0.09650  0.59740  0.46320  1.0000
  H   H26       1.0  0.90350  0.59740  0.03680  1.0000
  H   H27       1.0  0.59650  0.09740  0.46320  1.0000
  H   H28       1.0  0.40350  0.09740  0.03680  1.0000
  H   H29       1.0  0.90350  0.40260  0.53680  1.0000
  H   H30       1.0  0.09650  0.40260  0.96320  1.0000
  H   H31       1.0  0.40350  0.90260  0.53680  1.0000
  H   H32       1.0  0.59650  0.90260  0.96320  1.0000
  H   H33       1.0  0.15830  0.55860  0.52800  1.0000
  H   H34       1.0  0.84170  0.55860  0.97200  1.0000
  H   H35       1.0  0.65830  0.05860  0.52800  1.0000
  H   H36       1.0  0.34170  0.05860  0.97200  1.0000
  H   H37       1.0  0.84170  0.44140  0.47200  1.0000
  H   H38       1.0  0.15830  0.44140  0.02800  1.0000
  H   H39       1.0  0.34170  0.94140  0.47200  1.0000
  H   H40       1.0  0.65830  0.94140  0.02800  1.0000
  H   H41       1.0  0.08590  0.50370  0.50110  1.0000
  H   H42       1.0  0.91410  0.50370  0.99890  1.0000
  H   H43       1.0  0.58590  0.00370  0.50110  1.0000
  H   H44       1.0  0.41410  0.00370  0.99890  1.0000
  H   H45       1.0  0.91410  0.49630  0.49890  1.0000
  H   H46       1.0  0.08590  0.49630  0.00110  1.0000
  H   H47       1.0  0.41410  0.99630  0.49890  1.0000
  H   H48       1.0  0.58590  0.99630  0.00110  1.0000
  C   C33       1.0  0.12274  0.19460  0.43727  1.0000
  C   C34       1.0  0.87726  0.19460  0.06273  1.0000
  C   C35       1.0  0.62274  0.69460  0.43727  1.0000
  C   C36       1.0  0.37726  0.69460  0.06273  1.0000
  C   C37       1.0  0.87726  0.80540  0.56273  1.0000
  C   C38       1.0  0.12274  0.80540  0.93727  1.0000
  C   C39       1.0  0.37726  0.30540  0.56273  1.0000
  C   C40       1.0  0.62274  0.30540  0.93727  1.0000
  C   C41       1.0  0.09553  0.11060  0.46205  1.0000
  C   C42       1.0  0.90447  0.11060  0.03795  1.0000
  C   C43       1.0  0.59553  0.61060  0.46205  1.0000
  C   C44       1.0  0.40447  0.61060  0.03795  1.0000
  C   C45       1.0  0.90447  0.88940  0.53795  1.0000
  C   C46       1.0  0.09553  0.88940  0.96205  1.0000
  C   C47       1.0  0.40447  0.38940  0.53795  1.0000
  C   C48       1.0  0.59553  0.38940  0.96205  1.0000
  H   H49       1.0  0.05570  0.13510  0.46600  1.0000
  H   H50       1.0  0.94430  0.13510  0.03400  1.0000
  H   H51       1.0  0.55570  0.63510  0.46600  1.0000
  H   H52       1.0  0.44430  0.63510  0.03400  1.0000
  H   H53       1.0  0.94430  0.86490  0.53400  1.0000
  H   H54       1.0  0.05570  0.86490  0.96600  1.0000
  H   H55       1.0  0.44430  0.36490  0.53400  1.0000
  H   H56       1.0  0.55570  0.36490  0.96600  1.0000
  H   H57       1.0  0.13070  0.08890  0.50390  1.0000
  H   H58       1.0  0.86930  0.08890  0.99610  1.0000
  H   H59       1.0  0.63070  0.58890  0.50390  1.0000
  H   H60       1.0  0.36930  0.58890  0.99610  1.0000
  H   H61       1.0  0.86930  0.91110  0.49610  1.0000
  H   H62       1.0  0.13070  0.91110  0.00390  1.0000
  H   H63       1.0  0.36930  0.41110  0.49610  1.0000
  H   H64       1.0  0.63070  0.41110  0.00390  1.0000
  H   H65       1.0  0.08230  0.05300  0.43250  1.0000
  H   H66       1.0  0.91770  0.05300  0.06750  1.0000
  H   H67       1.0  0.58230  0.55300  0.43250  1.0000
  H   H68       1.0  0.41770  0.55300  0.06750  1.0000
  H   H69       1.0  0.91770  0.94700  0.56750  1.0000
  H   H70       1.0  0.08230  0.94700  0.93250  1.0000
  H   H71       1.0  0.41770  0.44700  0.56750  1.0000
  H   H72       1.0  0.58230  0.44700  0.93250  1.0000
  C   C49       1.0  0.19844  0.19340  0.33588  1.0000
  C   C50       1.0  0.80156  0.19340  0.16412  1.0000
  C   C51       1.0  0.69844  0.69340  0.33588  1.0000
  C   C52       1.0  0.30156  0.69340  0.16412  1.0000
  C   C53       1.0  0.80156  0.80660  0.66412  1.0000
  C   C54       1.0  0.19844  0.80660  0.83588  1.0000
  C   C55       1.0  0.30156  0.30660  0.66412  1.0000
  C   C56       1.0  0.69844  0.30660  0.83588  1.0000
  C   C57       1.0  0.21200  0.10340  0.30460  1.0000
  C   C58       1.0  0.78800  0.10340  0.19540  1.0000
  C   C59       1.0  0.71200  0.60340  0.30460  1.0000
  C   C60       1.0  0.28800  0.60340  0.19540  1.0000
  C   C61       1.0  0.78800  0.89660  0.69540  1.0000
  C   C62       1.0  0.21200  0.89660  0.80460  1.0000
  C   C63       1.0  0.28800  0.39660  0.69540  1.0000
  C   C64       1.0  0.71200  0.39660  0.80460  1.0000
  H   H73       1.0  0.26080  0.08840  0.32540  1.0000
  H   H74       1.0  0.73920  0.08840  0.17460  1.0000
  H   H75       1.0  0.76080  0.58840  0.32540  1.0000
  H   H76       1.0  0.23920  0.58840  0.17460  1.0000
  H   H77       1.0  0.73920  0.91160  0.67460  1.0000
  H   H78       1.0  0.26080  0.91160  0.82540  1.0000
  H   H79       1.0  0.23920  0.41160  0.67460  1.0000
  H   H80       1.0  0.76080  0.41160  0.82540  1.0000
  H   H81       1.0  0.19710  0.11830  0.25950  1.0000
  H   H82       1.0  0.80290  0.11830  0.24050  1.0000
  H   H83       1.0  0.69710  0.61830  0.25950  1.0000
  H   H84       1.0  0.30290  0.61830  0.24050  1.0000
  H   H85       1.0  0.80290  0.88170  0.74050  1.0000
  H   H86       1.0  0.19710  0.88170  0.75950  1.0000
  H   H87       1.0  0.30290  0.38170  0.74050  1.0000
  H   H88       1.0  0.69710  0.38170  0.75950  1.0000
  H   H89       1.0  0.18690  0.04440  0.30840  1.0000
  H   H90       1.0  0.81310  0.04440  0.19160  1.0000
  H   H91       1.0  0.68690  0.54440  0.30840  1.0000
  H   H92       1.0  0.31310  0.54440  0.19160  1.0000
  H   H93       1.0  0.81310  0.95560  0.69160  1.0000
  H   H94       1.0  0.18690  0.95560  0.80840  1.0000
  H   H95       1.0  0.31310  0.45560  0.69160  1.0000
  H   H96       1.0  0.68690  0.45560  0.80840  1.0000
