data_image0
_chemical_formula_structural       Er4Cl4S4Cl4S4N20C12N12C4H24
_chemical_formula_sum              "Er4 Cl8 S8 N32 C16 H24"
_cell_length_a       12.969
_cell_length_b       9.892
_cell_length_c       14.856
_cell_angle_alpha    90
_cell_angle_beta     95.85
_cell_angle_gamma    90

_space_group_name_H-M_alt    "P 1"
_space_group_IT_number       1

loop_
  _space_group_symop_operation_xyz
  'x, y, z'

loop_
  _atom_site_type_symbol
  _atom_site_label
  _atom_site_symmetry_multiplicity
  _atom_site_fract_x
  _atom_site_fract_y
  _atom_site_fract_z
  _atom_site_occupancy
  Er  Er1       1.0  0.30429  0.29743  0.23174  1.0000
  Er  Er2       1.0  0.69571  0.79743  0.26826  1.0000
  Er  Er3       1.0  0.69571  0.70257  0.76826  1.0000
  Er  Er4       1.0  0.30429  0.20257  0.73174  1.0000
  Cl  Cl1       1.0  0.33508  0.32627  0.05966  1.0000
  Cl  Cl2       1.0  0.66492  0.82627  0.44034  1.0000
  Cl  Cl3       1.0  0.66492  0.67373  0.94034  1.0000
  Cl  Cl4       1.0  0.33508  0.17373  0.55966  1.0000
  S   S1        1.0  0.39602  0.38603  0.40591  1.0000
  S   S2        1.0  0.60398  0.88603  0.09409  1.0000
  S   S3        1.0  0.60398  0.61397  0.59409  1.0000
  S   S4        1.0  0.39602  0.11397  0.90591  1.0000
  Cl  Cl5       1.0  0.17079  0.49129  0.21647  1.0000
  Cl  Cl6       1.0  0.82921  0.99129  0.28353  1.0000
  Cl  Cl7       1.0  0.82921  0.50871  0.78353  1.0000
  Cl  Cl8       1.0  0.17079  0.00871  0.71647  1.0000
  S   S5        1.0  0.18865  0.14012  0.34589  1.0000
  S   S6        1.0  0.81135  0.64012  0.15411  1.0000
  S   S7        1.0  0.81135  0.85988  0.65411  1.0000
  S   S8        1.0  0.18865  0.35988  0.84589  1.0000
  N   N1        1.0  0.44800  0.45500  0.24279  1.0000
  N   N2        1.0  0.55200  0.95500  0.25721  1.0000
  N   N3        1.0  0.55200  0.54500  0.75721  1.0000
  N   N4        1.0  0.44800  0.04500  0.74279  1.0000
  N   N5        1.0  0.53330  0.57490  0.34920  1.0000
  N   N6        1.0  0.46670  0.07490  0.15080  1.0000
  N   N7        1.0  0.46670  0.42510  0.65080  1.0000
  N   N8        1.0  0.53330  0.92510  0.84920  1.0000
  N   N9        1.0  0.18630  0.12830  0.16540  1.0000
  N   N10       1.0  0.81370  0.62830  0.33460  1.0000
  N   N11       1.0  0.81370  0.87170  0.83460  1.0000
  N   N12       1.0  0.18630  0.37170  0.66540  1.0000
  N   N13       1.0  0.05430  0.02150  0.21070  1.0000
  N   N14       1.0  0.94570  0.52150  0.28930  1.0000
  N   N15       1.0  0.94570  0.97850  0.78930  1.0000
  N   N16       1.0  0.05430  0.47850  0.71070  1.0000
  N   N17       1.0  0.14800  0.08500  0.00630  1.0000
  N   N18       1.0  0.85200  0.58500  0.49370  1.0000
  N   N19       1.0  0.85200  0.91500  0.99370  1.0000
  N   N20       1.0  0.14800  0.41500  0.50630  1.0000
  C   C1        1.0  0.13890  0.09240  0.23820  1.0000
  C   C2        1.0  0.86110  0.59240  0.26180  1.0000
  C   C3        1.0  0.86110  0.90760  0.76180  1.0000
  C   C4        1.0  0.13890  0.40760  0.73820  1.0000
  C   C5        1.0  0.46330  0.47710  0.33330  1.0000
  C   C6        1.0  0.53670  0.97710  0.16670  1.0000
  C   C7        1.0  0.53670  0.52290  0.66670  1.0000
  C   C8        1.0  0.46330  0.02290  0.83330  1.0000
  C   C9        1.0  0.12440  0.07590  0.09360  1.0000
  C   C10       1.0  0.87560  0.57590  0.40640  1.0000
  C   C11       1.0  0.87560  0.92410  0.90640  1.0000
  C   C12       1.0  0.12440  0.42410  0.59360  1.0000
  N   N21       1.0  0.56708  0.62070  0.26864  1.0000
  N   N22       1.0  0.43292  0.12070  0.23136  1.0000
  N   N23       1.0  0.43292  0.37930  0.73136  1.0000
  N   N24       1.0  0.56708  0.87930  0.76864  1.0000
  N   N25       1.0  0.52190  0.54750  0.11720  1.0000
  N   N26       1.0  0.47810  0.04750  0.38280  1.0000
  N   N27       1.0  0.47810  0.45250  0.88280  1.0000
  N   N28       1.0  0.52190  0.95250  0.61720  1.0000
  N   N29       1.0  0.04260  0.00920  0.11650  1.0000
  N   N30       1.0  0.95740  0.50920  0.38350  1.0000
  N   N31       1.0  0.95740  0.99080  0.88350  1.0000
  N   N32       1.0  0.04260  0.49080  0.61650  1.0000
  C   C13       1.0  0.51280  0.54370  0.20680  1.0000
  C   C14       1.0  0.48720  0.04370  0.29320  1.0000
  C   C15       1.0  0.48720  0.45630  0.79320  1.0000
  C   C16       1.0  0.51280  0.95630  0.70680  1.0000
  H   H1        1.0  0.19000  0.13900  0.99600  1.0000
  H   H2        1.0  0.81000  0.63900  0.50400  1.0000
  H   H3        1.0  0.81000  0.86100  0.00400  1.0000
  H   H4        1.0  0.19000  0.36100  0.49600  1.0000
  H   H5        1.0  0.10300  0.07600  0.96900  1.0000
  H   H6        1.0  0.89700  0.57600  0.53100  1.0000
  H   H7        1.0  0.89700  0.92400  0.03100  1.0000
  H   H8        1.0  0.10300  0.42400  0.46900  1.0000
  H   H9        1.0  0.55000  0.60800  0.39300  1.0000
  H   H10       1.0  0.45000  0.10800  0.10700  1.0000
  H   H11       1.0  0.45000  0.39200  0.60700  1.0000
  H   H12       1.0  0.55000  0.89200  0.89300  1.0000
  H   H13       1.0  0.55400  0.59900  0.09900  1.0000
  H   H14       1.0  0.44600  0.09900  0.40100  1.0000
  H   H15       1.0  0.44600  0.40100  0.90100  1.0000
  H   H16       1.0  0.55400  0.90100  0.59900  1.0000
  H   H17       1.0  0.48000  0.50200  0.08200  1.0000
  H   H18       1.0  0.52000  0.00200  0.41800  1.0000
  H   H19       1.0  0.52000  0.49800  0.91800  1.0000
  H   H20       1.0  0.48000  0.99800  0.58200  1.0000
  H   H21       1.0  0.00700  0.99900  0.24100  1.0000
  H   H22       1.0  0.99300  0.49900  0.25900  1.0000
  H   H23       1.0  0.99300  0.00100  0.75900  1.0000
  H   H24       1.0  0.00700  0.50100  0.74100  1.0000
