data_image0
_chemical_formula_structural       Sb4P8O28C8H12
_chemical_formula_sum              "Sb4 P8 O28 C8 H12"
_cell_length_a       13.426
_cell_length_b       17.149
_cell_length_c       5.4496
_cell_angle_alpha    90
_cell_angle_beta     90
_cell_angle_gamma    90

_space_group_name_H-M_alt    "P 1"
_space_group_IT_number       1

loop_
  _space_group_symop_operation_xyz
  'x, y, z'

loop_
  _atom_site_type_symbol
  _atom_site_label
  _atom_site_symmetry_multiplicity
  _atom_site_fract_x
  _atom_site_fract_y
  _atom_site_fract_z
  _atom_site_occupancy
  Sb  Sb1       1.0  0.88471  0.75000  0.13491  1.0000
  Sb  Sb2       1.0  0.38471  0.75000  0.36509  1.0000
  Sb  Sb3       1.0  0.61529  0.25000  0.63491  1.0000
  Sb  Sb4       1.0  0.11529  0.25000  0.86509  1.0000
  P   P1        1.0  0.80064  0.66061  0.66627  1.0000
  P   P2        1.0  0.30064  0.66061  0.83373  1.0000
  P   P3        1.0  0.80064  0.83939  0.66627  1.0000
  P   P4        1.0  0.69936  0.16061  0.16627  1.0000
  P   P5        1.0  0.19936  0.33939  0.33373  1.0000
  P   P6        1.0  0.69936  0.33939  0.16627  1.0000
  P   P7        1.0  0.19936  0.16061  0.33373  1.0000
  P   P8        1.0  0.30064  0.83939  0.83373  1.0000
  O   O1        1.0  0.89240  0.66236  0.83450  1.0000
  O   O2        1.0  0.39240  0.66236  0.66550  1.0000
  O   O3        1.0  0.89240  0.83764  0.83450  1.0000
  O   O4        1.0  0.60760  0.16236  0.33450  1.0000
  O   O5        1.0  0.10760  0.33764  0.16550  1.0000
  O   O6        1.0  0.60760  0.33764  0.33450  1.0000
  O   O7        1.0  0.10760  0.16236  0.16550  1.0000
  O   O8        1.0  0.39240  0.83764  0.66550  1.0000
  O   O9        1.0  0.73585  0.58995  0.70810  1.0000
  O   O10       1.0  0.23585  0.58995  0.79190  1.0000
  O   O11       1.0  0.73585  0.91005  0.70810  1.0000
  O   O12       1.0  0.76415  0.08995  0.20810  1.0000
  O   O13       1.0  0.26415  0.41005  0.29190  1.0000
  O   O14       1.0  0.76415  0.41005  0.20810  1.0000
  O   O15       1.0  0.26415  0.08995  0.29190  1.0000
  O   O16       1.0  0.23585  0.91005  0.79190  1.0000
  O   O17       1.0  0.82670  0.66383  0.39130  1.0000
  O   O18       1.0  0.32670  0.66383  0.10870  1.0000
  O   O19       1.0  0.82670  0.83617  0.39130  1.0000
  O   O20       1.0  0.67330  0.16383  0.89130  1.0000
  O   O21       1.0  0.17330  0.33617  0.60870  1.0000
  O   O22       1.0  0.67330  0.33617  0.89130  1.0000
  O   O23       1.0  0.17330  0.16383  0.60870  1.0000
  O   O24       1.0  0.32670  0.83617  0.10870  1.0000
  O   O25       1.0  0.74230  0.75000  0.02400  1.0000
  O   O26       1.0  0.24230  0.75000  0.47600  1.0000
  O   O27       1.0  0.75770  0.25000  0.52400  1.0000
  O   O28       1.0  0.25770  0.25000  0.97600  1.0000
  C   C1        1.0  0.73490  0.75000  0.75870  1.0000
  C   C2        1.0  0.23490  0.75000  0.74130  1.0000
  C   C3        1.0  0.76510  0.25000  0.25870  1.0000
  C   C4        1.0  0.26510  0.25000  0.24130  1.0000
  C   C5        1.0  0.62670  0.75000  0.68090  1.0000
  C   C6        1.0  0.12670  0.75000  0.81910  1.0000
  C   C7        1.0  0.87330  0.25000  0.18090  1.0000
  C   C8        1.0  0.37330  0.25000  0.31910  1.0000
  H   H1        1.0  0.59200  0.70600  0.74100  1.0000
  H   H2        1.0  0.09200  0.70600  0.75900  1.0000
  H   H3        1.0  0.59200  0.79400  0.74100  1.0000
  H   H4        1.0  0.90800  0.20600  0.24100  1.0000
  H   H5        1.0  0.40800  0.29400  0.25900  1.0000
  H   H6        1.0  0.90800  0.29400  0.24100  1.0000
  H   H7        1.0  0.40800  0.20600  0.25900  1.0000
  H   H8        1.0  0.09200  0.79400  0.75900  1.0000
  H   H9        1.0  0.61860  0.75000  0.49770  1.0000
  H   H10       1.0  0.11860  0.75000  0.00230  1.0000
  H   H11       1.0  0.88140  0.25000  0.99770  1.0000
  H   H12       1.0  0.38140  0.25000  0.50230  1.0000
