data_image0
_chemical_formula_structural       Co8Na10Br2O32C32H8C8H8C24H8C8H8C8H8C8H8C8O32C32H8C8H8C24H8C8H8C8H8C8H8C8
_chemical_formula_sum              "Co8 Na10 Br2 O64 C192 H96"
_cell_length_a       24.6698
_cell_length_b       24.6698
_cell_length_c       9.9668
_cell_angle_alpha    90
_cell_angle_beta     90
_cell_angle_gamma    90

_space_group_name_H-M_alt    "P 1"
_space_group_IT_number       1

loop_
  _space_group_symop_operation_xyz
  'x, y, z'

loop_
  _atom_site_type_symbol
  _atom_site_label
  _atom_site_symmetry_multiplicity
  _atom_site_fract_x
  _atom_site_fract_y
  _atom_site_fract_z
  _atom_site_occupancy
  Co  Co1       1.0  0.54959  0.82142  0.92479  1.0000
  Co  Co2       1.0  0.95041  0.67858  0.92479  1.0000
  Co  Co3       1.0  0.67858  0.54959  0.92479  1.0000
  Co  Co4       1.0  0.82142  0.95041  0.92479  1.0000
  Co  Co5       1.0  0.45040  0.17858  0.07521  1.0000
  Co  Co6       1.0  0.04960  0.32142  0.07521  1.0000
  Co  Co7       1.0  0.32142  0.45040  0.07521  1.0000
  Co  Co8       1.0  0.17858  0.04960  0.07521  1.0000
  Na  Na1       1.0  0.64359  0.72145  0.92662  1.0000
  Na  Na2       1.0  0.85641  0.77855  0.92662  1.0000
  Na  Na3       1.0  0.77855  0.64359  0.92662  1.0000
  Na  Na4       1.0  0.72145  0.85641  0.92662  1.0000
  Na  Na5       1.0  0.35641  0.27855  0.07338  1.0000
  Na  Na6       1.0  0.14359  0.22145  0.07338  1.0000
  Na  Na7       1.0  0.22145  0.35641  0.07338  1.0000
  Na  Na8       1.0  0.27855  0.14359  0.07338  1.0000
  Na  Na9       1.0  0.75000  0.75000  0.73790  1.0000
  Na  Na10      1.0  0.25000  0.25000  0.26210  1.0000
  Br  Br1       1.0  0.75000  0.75000  0.04666  1.0000
  Br  Br2       1.0  0.25000  0.25000  0.95334  1.0000
  O   O1        1.0  0.63129  0.64676  0.06350  1.0000
  O   O2        1.0  0.86871  0.85324  0.06350  1.0000
  O   O3        1.0  0.85324  0.63129  0.06350  1.0000
  O   O4        1.0  0.64676  0.86871  0.06350  1.0000
  O   O5        1.0  0.36871  0.35324  0.93650  1.0000
  O   O6        1.0  0.13129  0.14676  0.93650  1.0000
  O   O7        1.0  0.14676  0.36871  0.93650  1.0000
  O   O8        1.0  0.35324  0.13129  0.93650  1.0000
  O   O9        1.0  0.70649  0.59698  0.07310  1.0000
  O   O10       1.0  0.79351  0.90302  0.07310  1.0000
  O   O11       1.0  0.90302  0.70649  0.07310  1.0000
  O   O12       1.0  0.59698  0.79351  0.07310  1.0000
  O   O13       1.0  0.29351  0.40302  0.92690  1.0000
  O   O14       1.0  0.20649  0.09698  0.92690  1.0000
  O   O15       1.0  0.09698  0.29351  0.92690  1.0000
  O   O16       1.0  0.40302  0.20649  0.92690  1.0000
  O   O17       1.0  0.66219  0.58810  0.76050  1.0000
  O   O18       1.0  0.83781  0.91190  0.76050  1.0000
  O   O19       1.0  0.91190  0.66219  0.76050  1.0000
  O   O20       1.0  0.58810  0.83781  0.76050  1.0000
  O   O21       1.0  0.33781  0.41190  0.23950  1.0000
  O   O22       1.0  0.16219  0.08810  0.23950  1.0000
  O   O23       1.0  0.08810  0.33781  0.23950  1.0000
  O   O24       1.0  0.41190  0.16219  0.23950  1.0000
  O   O25       1.0  0.70435  0.66820  0.76770  1.0000
  O   O26       1.0  0.79565  0.83180  0.76770  1.0000
  O   O27       1.0  0.83180  0.70435  0.76770  1.0000
  O   O28       1.0  0.66820  0.79565  0.76770  1.0000
  O   O29       1.0  0.29565  0.33180  0.23230  1.0000
  O   O30       1.0  0.20435  0.16820  0.23230  1.0000
  O   O31       1.0  0.16820  0.29565  0.23230  1.0000
  O   O32       1.0  0.33180  0.20435  0.23230  1.0000
  C   C1        1.0  0.66782  0.62440  0.12630  1.0000
  C   C2        1.0  0.83218  0.87560  0.12630  1.0000
  C   C3        1.0  0.87560  0.66782  0.12630  1.0000
  C   C4        1.0  0.62440  0.83218  0.12630  1.0000
  C   C5        1.0  0.33218  0.37560  0.87370  1.0000
  C   C6        1.0  0.16782  0.12440  0.87370  1.0000
  C   C7        1.0  0.12440  0.33218  0.87370  1.0000
  C   C8        1.0  0.37560  0.16782  0.87370  1.0000
  C   C9        1.0  0.67951  0.63127  0.70750  1.0000
  C   C10       1.0  0.82049  0.86873  0.70750  1.0000
  C   C11       1.0  0.86873  0.67951  0.70750  1.0000
  C   C12       1.0  0.63127  0.82049  0.70750  1.0000
  C   C13       1.0  0.32049  0.36873  0.29250  1.0000
  C   C14       1.0  0.17951  0.13127  0.29250  1.0000
  C   C15       1.0  0.13127  0.32049  0.29250  1.0000
  C   C16       1.0  0.36873  0.17951  0.29250  1.0000
  C   C17       1.0  0.66828  0.62777  0.27720  1.0000
  C   C18       1.0  0.83172  0.87223  0.27720  1.0000
  C   C19       1.0  0.87223  0.66828  0.27720  1.0000
  C   C20       1.0  0.62777  0.83172  0.27720  1.0000
  C   C21       1.0  0.33172  0.37223  0.72280  1.0000
  C   C22       1.0  0.16828  0.12777  0.72280  1.0000
  C   C23       1.0  0.12777  0.33172  0.72280  1.0000
  C   C24       1.0  0.37223  0.16828  0.72280  1.0000
  C   C25       1.0  0.71274  0.64783  0.34190  1.0000
  C   C26       1.0  0.78726  0.85217  0.34190  1.0000
  C   C27       1.0  0.85217  0.71274  0.34190  1.0000
  C   C28       1.0  0.64783  0.78726  0.34190  1.0000
  C   C29       1.0  0.28726  0.35217  0.65810  1.0000
  C   C30       1.0  0.21274  0.14783  0.65810  1.0000
  C   C31       1.0  0.14783  0.28726  0.65810  1.0000
  C   C32       1.0  0.35217  0.21274  0.65810  1.0000
  H   H1        1.0  0.74250  0.65940  0.29220  1.0000
  H   H2        1.0  0.75750  0.84060  0.29220  1.0000
  H   H3        1.0  0.84060  0.74250  0.29220  1.0000
  H   H4        1.0  0.65940  0.75750  0.29220  1.0000
  H   H5        1.0  0.25750  0.34060  0.70780  1.0000
  H   H6        1.0  0.24250  0.15940  0.70780  1.0000
  H   H7        1.0  0.15940  0.25750  0.70780  1.0000
  H   H8        1.0  0.34060  0.24250  0.70780  1.0000
  C   C33       1.0  0.71411  0.65125  0.48210  1.0000
  C   C34       1.0  0.78589  0.84875  0.48210  1.0000
  C   C35       1.0  0.84875  0.71411  0.48210  1.0000
  C   C36       1.0  0.65125  0.78589  0.48210  1.0000
  C   C37       1.0  0.28589  0.34875  0.51790  1.0000
  C   C38       1.0  0.21411  0.15125  0.51790  1.0000
  C   C39       1.0  0.15125  0.28589  0.51790  1.0000
  C   C40       1.0  0.34875  0.21411  0.51790  1.0000
  H   H9        1.0  0.74480  0.66520  0.52400  1.0000
  H   H10       1.0  0.75520  0.83480  0.52400  1.0000
  H   H11       1.0  0.83480  0.74480  0.52400  1.0000
  H   H12       1.0  0.66520  0.75520  0.52400  1.0000
  H   H13       1.0  0.25520  0.33480  0.47600  1.0000
  H   H14       1.0  0.24480  0.16520  0.47600  1.0000
  H   H15       1.0  0.16520  0.25520  0.47600  1.0000
  H   H16       1.0  0.33480  0.24480  0.47600  1.0000
  C   C41       1.0  0.67139  0.63452  0.55830  1.0000
  C   C42       1.0  0.82861  0.86548  0.55830  1.0000
  C   C43       1.0  0.86548  0.67139  0.55830  1.0000
  C   C44       1.0  0.63452  0.82861  0.55830  1.0000
  C   C45       1.0  0.32861  0.36548  0.44170  1.0000
  C   C46       1.0  0.17139  0.13452  0.44170  1.0000
  C   C47       1.0  0.13452  0.32861  0.44170  1.0000
  C   C48       1.0  0.36548  0.17139  0.44170  1.0000
  C   C49       1.0  0.62325  0.61450  0.49510  1.0000
  C   C50       1.0  0.87675  0.88550  0.49510  1.0000
  C   C51       1.0  0.88550  0.62325  0.49510  1.0000
  C   C52       1.0  0.61450  0.87675  0.49510  1.0000
  C   C53       1.0  0.37675  0.38550  0.50490  1.0000
  C   C54       1.0  0.12325  0.11450  0.50490  1.0000
  C   C55       1.0  0.11450  0.37675  0.50490  1.0000
  C   C56       1.0  0.38550  0.12325  0.50490  1.0000
  C   C57       1.0  0.57659  0.59836  0.56790  1.0000
  C   C58       1.0  0.92341  0.90164  0.56790  1.0000
  C   C59       1.0  0.90164  0.57659  0.56790  1.0000
  C   C60       1.0  0.59836  0.92341  0.56790  1.0000
  C   C61       1.0  0.42341  0.40164  0.43210  1.0000
  C   C62       1.0  0.07659  0.09836  0.43210  1.0000
  C   C63       1.0  0.09836  0.42341  0.43210  1.0000
  C   C64       1.0  0.40164  0.07659  0.43210  1.0000
  H   H17       1.0  0.57600  0.60240  0.66060  1.0000
  H   H18       1.0  0.92400  0.89760  0.66060  1.0000
  H   H19       1.0  0.89760  0.57600  0.66060  1.0000
  H   H20       1.0  0.60240  0.92400  0.66060  1.0000
  H   H21       1.0  0.42400  0.39760  0.33940  1.0000
  H   H22       1.0  0.07600  0.10240  0.33940  1.0000
  H   H23       1.0  0.10240  0.42400  0.33940  1.0000
  H   H24       1.0  0.39760  0.07600  0.33940  1.0000
  C   C65       1.0  0.53288  0.57710  0.50470  1.0000
  C   C66       1.0  0.96712  0.92290  0.50470  1.0000
  C   C67       1.0  0.92290  0.53288  0.50470  1.0000
  C   C68       1.0  0.57710  0.96712  0.50470  1.0000
  C   C69       1.0  0.46712  0.42290  0.49530  1.0000
  C   C70       1.0  0.03288  0.07710  0.49530  1.0000
  C   C71       1.0  0.07710  0.46712  0.49530  1.0000
  C   C72       1.0  0.42290  0.03288  0.49530  1.0000
  H   H25       1.0  0.50290  0.56660  0.55480  1.0000
  H   H26       1.0  0.99710  0.93340  0.55480  1.0000
  H   H27       1.0  0.93340  0.50290  0.55480  1.0000
  H   H28       1.0  0.56660  0.99710  0.55480  1.0000
  H   H29       1.0  0.49710  0.43340  0.44520  1.0000
  H   H30       1.0  0.00290  0.06660  0.44520  1.0000
  H   H31       1.0  0.06660  0.49710  0.44520  1.0000
  H   H32       1.0  0.43340  0.00290  0.44520  1.0000
  C   C73       1.0  0.53216  0.57077  0.36430  1.0000
  C   C74       1.0  0.96784  0.92923  0.36430  1.0000
  C   C75       1.0  0.92923  0.53216  0.36430  1.0000
  C   C76       1.0  0.57077  0.96784  0.36430  1.0000
  C   C77       1.0  0.46784  0.42923  0.63570  1.0000
  C   C78       1.0  0.03216  0.07077  0.63570  1.0000
  C   C79       1.0  0.07077  0.46784  0.63570  1.0000
  C   C80       1.0  0.42923  0.03216  0.63570  1.0000
  H   H33       1.0  0.50220  0.55550  0.32220  1.0000
  H   H34       1.0  0.99780  0.94450  0.32220  1.0000
  H   H35       1.0  0.94450  0.50220  0.32220  1.0000
  H   H36       1.0  0.55550  0.99780  0.32220  1.0000
  H   H37       1.0  0.49780  0.44450  0.67780  1.0000
  H   H38       1.0  0.00220  0.05550  0.67780  1.0000
  H   H39       1.0  0.05550  0.49780  0.67780  1.0000
  H   H40       1.0  0.44450  0.00220  0.67780  1.0000
  C   C81       1.0  0.57561  0.58714  0.29100  1.0000
  C   C82       1.0  0.92439  0.91286  0.29100  1.0000
  C   C83       1.0  0.91286  0.57561  0.29100  1.0000
  C   C84       1.0  0.58714  0.92439  0.29100  1.0000
  C   C85       1.0  0.42439  0.41286  0.70900  1.0000
  C   C86       1.0  0.07561  0.08714  0.70900  1.0000
  C   C87       1.0  0.08714  0.42439  0.70900  1.0000
  C   C88       1.0  0.41286  0.07561  0.70900  1.0000
  H   H41       1.0  0.57490  0.58300  0.19820  1.0000
  H   H42       1.0  0.92510  0.91700  0.19820  1.0000
  H   H43       1.0  0.91700  0.57490  0.19820  1.0000
  H   H44       1.0  0.58300  0.92510  0.19820  1.0000
  H   H45       1.0  0.42510  0.41700  0.80180  1.0000
  H   H46       1.0  0.07490  0.08300  0.80180  1.0000
  H   H47       1.0  0.08300  0.42510  0.80180  1.0000
  H   H48       1.0  0.41700  0.07490  0.80180  1.0000
  C   C89       1.0  0.62204  0.61046  0.35240  1.0000
  C   C90       1.0  0.87796  0.88954  0.35240  1.0000
  C   C91       1.0  0.88954  0.62204  0.35240  1.0000
  C   C92       1.0  0.61046  0.87796  0.35240  1.0000
  C   C93       1.0  0.37796  0.38954  0.64760  1.0000
  C   C94       1.0  0.12204  0.11046  0.64760  1.0000
  C   C95       1.0  0.11046  0.37796  0.64760  1.0000
  C   C96       1.0  0.38954  0.12204  0.64760  1.0000
  O   O33       1.0  0.37233  0.49552  0.96670  1.0000
  O   O34       1.0  0.12767  0.00448  0.96670  1.0000
  O   O35       1.0  0.00448  0.37233  0.96670  1.0000
  O   O36       1.0  0.49552  0.12767  0.96670  1.0000
  O   O37       1.0  0.62767  0.50448  0.03330  1.0000
  O   O38       1.0  0.87233  0.99552  0.03330  1.0000
  O   O39       1.0  0.99552  0.62767  0.03330  1.0000
  O   O40       1.0  0.50448  0.87233  0.03330  1.0000
  O   O41       1.0  0.38830  0.52193  0.16580  1.0000
  O   O42       1.0  0.11170  0.97807  0.16580  1.0000
  O   O43       1.0  0.97807  0.38830  0.16580  1.0000
  O   O44       1.0  0.52193  0.11170  0.16580  1.0000
  O   O45       1.0  0.61170  0.47807  0.83420  1.0000
  O   O46       1.0  0.88830  0.02193  0.83420  1.0000
  O   O47       1.0  0.02193  0.61170  0.83420  1.0000
  O   O48       1.0  0.47807  0.88830  0.83420  1.0000
  O   O49       1.0  0.49607  0.76218  0.90330  1.0000
  O   O50       1.0  0.00393  0.73782  0.90330  1.0000
  O   O51       1.0  0.73782  0.49607  0.90330  1.0000
  O   O52       1.0  0.76218  0.00393  0.90330  1.0000
  O   O53       1.0  0.50393  0.23782  0.09670  1.0000
  O   O54       1.0  0.99607  0.26218  0.09670  1.0000
  O   O55       1.0  0.26218  0.50393  0.09670  1.0000
  O   O56       1.0  0.23782  0.99607  0.09670  1.0000
  O   O57       1.0  0.56170  0.71050  0.82290  1.0000
  O   O58       1.0  0.93830  0.78950  0.82290  1.0000
  O   O59       1.0  0.78950  0.56170  0.82290  1.0000
  O   O60       1.0  0.71050  0.93830  0.82290  1.0000
  O   O61       1.0  0.43830  0.28950  0.17710  1.0000
  O   O62       1.0  0.06170  0.21050  0.17710  1.0000
  O   O63       1.0  0.21050  0.43830  0.17710  1.0000
  O   O64       1.0  0.28950  0.06170  0.17710  1.0000
  C   C97       1.0  0.39352  0.52710  0.04640  1.0000
  C   C98       1.0  0.10648  0.97290  0.04640  1.0000
  C   C99       1.0  0.97290  0.39352  0.04640  1.0000
  C   C100      1.0  0.52710  0.10648  0.04640  1.0000
  C   C101      1.0  0.60648  0.47290  0.95360  1.0000
  C   C102      1.0  0.89352  0.02710  0.95360  1.0000
  C   C103      1.0  0.02710  0.60648  0.95360  1.0000
  C   C104      1.0  0.47290  0.89352  0.95360  1.0000
  C   C105      1.0  0.51560  0.71623  0.86960  1.0000
  C   C106      1.0  0.98440  0.78377  0.86960  1.0000
  C   C107      1.0  0.78377  0.51560  0.86960  1.0000
  C   C108      1.0  0.71623  0.98440  0.86960  1.0000
  C   C109      1.0  0.48440  0.28377  0.13040  1.0000
  C   C110      1.0  0.01560  0.21623  0.13040  1.0000
  C   C111      1.0  0.21623  0.48440  0.13040  1.0000
  C   C112      1.0  0.28377  0.01560  0.13040  1.0000
  C   C113      1.0  0.42335  0.57598  0.98840  1.0000
  C   C114      1.0  0.07665  0.92402  0.98840  1.0000
  C   C115      1.0  0.92402  0.42335  0.98840  1.0000
  C   C116      1.0  0.57598  0.07665  0.98840  1.0000
  C   C117      1.0  0.57665  0.42402  0.01160  1.0000
  C   C118      1.0  0.92335  0.07598  0.01160  1.0000
  C   C119      1.0  0.07598  0.57665  0.01160  1.0000
  C   C120      1.0  0.42402  0.92335  0.01160  1.0000
  C   C121      1.0  0.47838  0.57649  0.98670  1.0000
  C   C122      1.0  0.02162  0.92351  0.98670  1.0000
  C   C123      1.0  0.92351  0.47838  0.98670  1.0000
  C   C124      1.0  0.57649  0.02162  0.98670  1.0000
  C   C125      1.0  0.52162  0.42351  0.01330  1.0000
  C   C126      1.0  0.97838  0.07649  0.01330  1.0000
  C   C127      1.0  0.07649  0.52162  0.01330  1.0000
  C   C128      1.0  0.42351  0.97838  0.01330  1.0000
  H   H49       1.0  0.49730  0.54650  0.01810  1.0000
  H   H50       1.0  0.00270  0.95350  0.01810  1.0000
  H   H51       1.0  0.95350  0.49730  0.01810  1.0000
  H   H52       1.0  0.54650  0.00270  0.01810  1.0000
  H   H53       1.0  0.50270  0.45350  0.98190  1.0000
  H   H54       1.0  0.99730  0.04650  0.98190  1.0000
  H   H55       1.0  0.04650  0.50270  0.98190  1.0000
  H   H56       1.0  0.45350  0.99730  0.98190  1.0000
  C   C129      1.0  0.50714  0.62135  0.93840  1.0000
  C   C130      1.0  0.99286  0.87865  0.93840  1.0000
  C   C131      1.0  0.87865  0.50714  0.93840  1.0000
  C   C132      1.0  0.62135  0.99286  0.93840  1.0000
  C   C133      1.0  0.49286  0.37865  0.06160  1.0000
  C   C134      1.0  0.00714  0.12135  0.06160  1.0000
  C   C135      1.0  0.12135  0.49286  0.06160  1.0000
  C   C136      1.0  0.37865  0.00714  0.06160  1.0000
  H   H57       1.0  0.54480  0.62000  0.93480  1.0000
  H   H58       1.0  0.95520  0.88000  0.93480  1.0000
  H   H59       1.0  0.88000  0.54480  0.93480  1.0000
  H   H60       1.0  0.62000  0.95520  0.93480  1.0000
  H   H61       1.0  0.45520  0.38000  0.06520  1.0000
  H   H62       1.0  0.04480  0.12000  0.06520  1.0000
  H   H63       1.0  0.12000  0.45520  0.06520  1.0000
  H   H64       1.0  0.38000  0.04480  0.06520  1.0000
  C   C137      1.0  0.48067  0.66723  0.89620  1.0000
  C   C138      1.0  0.01933  0.83277  0.89620  1.0000
  C   C139      1.0  0.83277  0.48067  0.89620  1.0000
  C   C140      1.0  0.66723  0.01933  0.89620  1.0000
  C   C141      1.0  0.51933  0.33277  0.10380  1.0000
  C   C142      1.0  0.98067  0.16723  0.10380  1.0000
  C   C143      1.0  0.16723  0.51933  0.10380  1.0000
  C   C144      1.0  0.33277  0.98067  0.10380  1.0000
  C   C145      1.0  0.42259  0.66812  0.89370  1.0000
  C   C146      1.0  0.07741  0.83188  0.89370  1.0000
  C   C147      1.0  0.83188  0.42259  0.89370  1.0000
  C   C148      1.0  0.66812  0.07741  0.89370  1.0000
  C   C149      1.0  0.57741  0.33188  0.10630  1.0000
  C   C150      1.0  0.92259  0.16812  0.10630  1.0000
  C   C151      1.0  0.16812  0.57741  0.10630  1.0000
  C   C152      1.0  0.33188  0.92259  0.10630  1.0000
  C   C153      1.0  0.39231  0.71217  0.84390  1.0000
  C   C154      1.0  0.10769  0.78783  0.84390  1.0000
  C   C155      1.0  0.78783  0.39231  0.84390  1.0000
  C   C156      1.0  0.71217  0.10769  0.84390  1.0000
  C   C157      1.0  0.60769  0.28783  0.15610  1.0000
  C   C158      1.0  0.89231  0.21217  0.15610  1.0000
  C   C159      1.0  0.21217  0.60769  0.15610  1.0000
  C   C160      1.0  0.28783  0.89231  0.15610  1.0000
  H   H65       1.0  0.41020  0.74270  0.81140  1.0000
  H   H66       1.0  0.08980  0.75730  0.81140  1.0000
  H   H67       1.0  0.75730  0.41020  0.81140  1.0000
  H   H68       1.0  0.74270  0.08980  0.81140  1.0000
  H   H69       1.0  0.58980  0.25730  0.18860  1.0000
  H   H70       1.0  0.91020  0.24270  0.18860  1.0000
  H   H71       1.0  0.24270  0.58980  0.18860  1.0000
  H   H72       1.0  0.25730  0.91020  0.18860  1.0000
  C   C161      1.0  0.33730  0.71050  0.84290  1.0000
  C   C162      1.0  0.16270  0.78950  0.84290  1.0000
  C   C163      1.0  0.78950  0.33730  0.84290  1.0000
  C   C164      1.0  0.71050  0.16270  0.84290  1.0000
  C   C165      1.0  0.66270  0.28950  0.15710  1.0000
  C   C166      1.0  0.83730  0.21050  0.15710  1.0000
  C   C167      1.0  0.21050  0.66270  0.15710  1.0000
  C   C168      1.0  0.28950  0.83730  0.15710  1.0000
  H   H73       1.0  0.31800  0.73970  0.80800  1.0000
  H   H74       1.0  0.18200  0.76030  0.80800  1.0000
  H   H75       1.0  0.76030  0.31800  0.80800  1.0000
  H   H76       1.0  0.73970  0.18200  0.80800  1.0000
  H   H77       1.0  0.68200  0.26030  0.19200  1.0000
  H   H78       1.0  0.81800  0.23970  0.19200  1.0000
  H   H79       1.0  0.23970  0.68200  0.19200  1.0000
  H   H80       1.0  0.26030  0.81800  0.19200  1.0000
  C   C169      1.0  0.30930  0.66580  0.89330  1.0000
  C   C170      1.0  0.19070  0.83420  0.89330  1.0000
  C   C171      1.0  0.83420  0.30930  0.89330  1.0000
  C   C172      1.0  0.66580  0.19070  0.89330  1.0000
  C   C173      1.0  0.69070  0.33420  0.10670  1.0000
  C   C174      1.0  0.80930  0.16580  0.10670  1.0000
  C   C175      1.0  0.16580  0.69070  0.10670  1.0000
  C   C176      1.0  0.33420  0.80930  0.10670  1.0000
  H   H81       1.0  0.27160  0.66600  0.89440  1.0000
  H   H82       1.0  0.22840  0.83400  0.89440  1.0000
  H   H83       1.0  0.83400  0.27160  0.89440  1.0000
  H   H84       1.0  0.66600  0.22840  0.89440  1.0000
  H   H85       1.0  0.72840  0.33400  0.10560  1.0000
  H   H86       1.0  0.77160  0.16600  0.10560  1.0000
  H   H87       1.0  0.16600  0.72840  0.10560  1.0000
  H   H88       1.0  0.33400  0.77160  0.10560  1.0000
  C   C177      1.0  0.33632  0.62234  0.94040  1.0000
  C   C178      1.0  0.16368  0.87766  0.94040  1.0000
  C   C179      1.0  0.87766  0.33632  0.94040  1.0000
  C   C180      1.0  0.62234  0.16368  0.94040  1.0000
  C   C181      1.0  0.66368  0.37766  0.05960  1.0000
  C   C182      1.0  0.83632  0.12234  0.05960  1.0000
  C   C183      1.0  0.12234  0.66368  0.05960  1.0000
  C   C184      1.0  0.37766  0.83632  0.05960  1.0000
  H   H89       1.0  0.31710  0.59270  0.97320  1.0000
  H   H90       1.0  0.18290  0.90730  0.97320  1.0000
  H   H91       1.0  0.90730  0.31710  0.97320  1.0000
  H   H92       1.0  0.59270  0.18290  0.97320  1.0000
  H   H93       1.0  0.68290  0.40730  0.02680  1.0000
  H   H94       1.0  0.81710  0.09270  0.02680  1.0000
  H   H95       1.0  0.09270  0.68290  0.02680  1.0000
  H   H96       1.0  0.40730  0.81710  0.02680  1.0000
  C   C185      1.0  0.39403  0.62144  0.94040  1.0000
  C   C186      1.0  0.10597  0.87856  0.94040  1.0000
  C   C187      1.0  0.87856  0.39403  0.94040  1.0000
  C   C188      1.0  0.62144  0.10597  0.94040  1.0000
  C   C189      1.0  0.60597  0.37856  0.05960  1.0000
  C   C190      1.0  0.89403  0.12144  0.05960  1.0000
  C   C191      1.0  0.12144  0.60597  0.05960  1.0000
  C   C192      1.0  0.37856  0.89403  0.05960  1.0000
