data_image0
_chemical_formula_structural       U6O48C6H6C18H24C12
_chemical_formula_sum              "U6 O48 C36 H30"
_cell_length_a       16.8162
_cell_length_b       16.8162
_cell_length_c       9.8914
_cell_angle_alpha    90
_cell_angle_beta     90
_cell_angle_gamma    120

_space_group_name_H-M_alt    "P 1"
_space_group_IT_number       1

loop_
  _space_group_symop_operation_xyz
  'x, y, z'

loop_
  _atom_site_type_symbol
  _atom_site_label
  _atom_site_symmetry_multiplicity
  _atom_site_fract_x
  _atom_site_fract_y
  _atom_site_fract_z
  _atom_site_occupancy
  U   U1        1.0  0.33477  0.03112  0.25000  1.0000
  U   U2        1.0  0.30365  0.33477  0.75000  1.0000
  U   U3        1.0  0.96888  0.30365  0.25000  1.0000
  U   U4        1.0  0.66523  0.96888  0.75000  1.0000
  U   U5        1.0  0.69635  0.66523  0.25000  1.0000
  U   U6        1.0  0.03112  0.69635  0.75000  1.0000
  O   O1        1.0  0.45300  0.08760  0.25000  1.0000
  O   O2        1.0  0.36540  0.45300  0.75000  1.0000
  O   O3        1.0  0.91240  0.36540  0.25000  1.0000
  O   O4        1.0  0.54700  0.91240  0.75000  1.0000
  O   O5        1.0  0.63460  0.54700  0.25000  1.0000
  O   O6        1.0  0.08760  0.63460  0.75000  1.0000
  O   O7        1.0  0.21250  0.97710  0.25000  1.0000
  O   O8        1.0  0.23540  0.21250  0.75000  1.0000
  O   O9        1.0  0.02290  0.23540  0.25000  1.0000
  O   O10       1.0  0.78750  0.02290  0.75000  1.0000
  O   O11       1.0  0.76460  0.78750  0.25000  1.0000
  O   O12       1.0  0.97710  0.76460  0.75000  1.0000
  O   O13       1.0  0.34980  0.16910  0.36000  1.0000
  O   O14       1.0  0.18070  0.34980  0.86000  1.0000
  O   O15       1.0  0.83090  0.18070  0.36000  1.0000
  O   O16       1.0  0.65020  0.83090  0.86000  1.0000
  O   O17       1.0  0.81930  0.65020  0.36000  1.0000
  O   O18       1.0  0.16910  0.81930  0.86000  1.0000
  O   O19       1.0  0.65020  0.83090  0.64000  1.0000
  O   O20       1.0  0.81930  0.65020  0.14000  1.0000
  O   O21       1.0  0.16910  0.81930  0.64000  1.0000
  O   O22       1.0  0.34980  0.16910  0.14000  1.0000
  O   O23       1.0  0.18070  0.34980  0.64000  1.0000
  O   O24       1.0  0.83090  0.18070  0.14000  1.0000
  O   O25       1.0  0.31520  0.33160  0.50170  1.0000
  O   O26       1.0  0.98360  0.31520  0.00170  1.0000
  O   O27       1.0  0.66840  0.98360  0.50170  1.0000
  O   O28       1.0  0.68480  0.66840  0.00170  1.0000
  O   O29       1.0  0.01640  0.68480  0.50170  1.0000
  O   O30       1.0  0.33160  0.01640  0.00170  1.0000
  O   O31       1.0  0.68480  0.66840  0.49830  1.0000
  O   O32       1.0  0.01640  0.68480  0.99830  1.0000
  O   O33       1.0  0.33160  0.01640  0.49830  1.0000
  O   O34       1.0  0.31520  0.33160  0.99830  1.0000
  O   O35       1.0  0.98360  0.31520  0.49830  1.0000
  O   O36       1.0  0.66840  0.98360  0.99830  1.0000
  O   O37       1.0  0.42800  0.33720  0.61800  1.0000
  O   O38       1.0  0.09080  0.42800  0.11800  1.0000
  O   O39       1.0  0.66280  0.09080  0.61800  1.0000
  O   O40       1.0  0.57200  0.66280  0.11800  1.0000
  O   O41       1.0  0.90920  0.57200  0.61800  1.0000
  O   O42       1.0  0.33720  0.90920  0.11800  1.0000
  O   O43       1.0  0.57200  0.66280  0.38200  1.0000
  O   O44       1.0  0.90920  0.57200  0.88200  1.0000
  O   O45       1.0  0.33720  0.90920  0.38200  1.0000
  O   O46       1.0  0.42800  0.33720  0.88200  1.0000
  O   O47       1.0  0.09080  0.42800  0.38200  1.0000
  O   O48       1.0  0.66280  0.09080  0.88200  1.0000
  C   C1        1.0  0.39160  0.31070  0.25000  1.0000
  C   C2        1.0  0.08090  0.39160  0.75000  1.0000
  C   C3        1.0  0.68930  0.08090  0.25000  1.0000
  C   C4        1.0  0.60840  0.68930  0.75000  1.0000
  C   C5        1.0  0.91910  0.60840  0.25000  1.0000
  C   C6        1.0  0.31070  0.91910  0.75000  1.0000
  H   H1        1.0  0.33643  0.31854  0.25000  1.0000
  H   H2        1.0  0.01789  0.33643  0.75000  1.0000
  H   H3        1.0  0.68146  0.01789  0.25000  1.0000
  H   H4        1.0  0.66357  0.68146  0.75000  1.0000
  H   H5        1.0  0.98211  0.66357  0.25000  1.0000
  H   H6        1.0  0.31854  0.98211  0.75000  1.0000
  C   C7        1.0  0.35950  0.20920  0.25000  1.0000
  C   C8        1.0  0.15030  0.35950  0.75000  1.0000
  C   C9        1.0  0.79080  0.15030  0.25000  1.0000
  C   C10       1.0  0.64050  0.79080  0.75000  1.0000
  C   C11       1.0  0.84970  0.64050  0.25000  1.0000
  C   C12       1.0  0.20920  0.84970  0.75000  1.0000
  C   C13       1.0  0.44880  0.35770  0.37660  1.0000
  C   C14       1.0  0.09110  0.44880  0.87660  1.0000
  C   C15       1.0  0.64230  0.09110  0.37660  1.0000
  C   C16       1.0  0.55120  0.64230  0.87660  1.0000
  C   C17       1.0  0.90890  0.55120  0.37660  1.0000
  C   C18       1.0  0.35770  0.90890  0.87660  1.0000
  C   C19       1.0  0.55120  0.64230  0.62340  1.0000
  C   C20       1.0  0.90890  0.55120  0.12340  1.0000
  C   C21       1.0  0.35770  0.90890  0.62340  1.0000
  C   C22       1.0  0.44880  0.35770  0.12340  1.0000
  C   C23       1.0  0.09110  0.44880  0.62340  1.0000
  C   C24       1.0  0.64230  0.09110  0.12340  1.0000
  H   H7        1.0  0.49440  0.33745  0.38942  1.0000
  H   H8        1.0  0.15695  0.49440  0.88942  1.0000
  H   H9        1.0  0.66255  0.15695  0.38942  1.0000
  H   H10       1.0  0.50560  0.66255  0.88942  1.0000
  H   H11       1.0  0.84305  0.50560  0.38942  1.0000
  H   H12       1.0  0.33745  0.84305  0.88942  1.0000
  H   H13       1.0  0.50560  0.66255  0.61058  1.0000
  H   H14       1.0  0.84305  0.50560  0.11058  1.0000
  H   H15       1.0  0.33745  0.84305  0.61058  1.0000
  H   H16       1.0  0.49440  0.33745  0.11058  1.0000
  H   H17       1.0  0.15695  0.49440  0.61058  1.0000
  H   H18       1.0  0.66255  0.15695  0.11058  1.0000
  H   H19       1.0  0.48311  0.42490  0.36150  1.0000
  H   H20       1.0  0.05821  0.48311  0.86150  1.0000
  H   H21       1.0  0.57510  0.05821  0.36150  1.0000
  H   H22       1.0  0.51689  0.57510  0.86150  1.0000
  H   H23       1.0  0.94179  0.51689  0.36150  1.0000
  H   H24       1.0  0.42490  0.94179  0.86150  1.0000
  H   H25       1.0  0.51689  0.57510  0.63850  1.0000
  H   H26       1.0  0.94179  0.51689  0.13850  1.0000
  H   H27       1.0  0.42490  0.94179  0.63850  1.0000
  H   H28       1.0  0.48311  0.42490  0.13850  1.0000
  H   H29       1.0  0.05821  0.48311  0.63850  1.0000
  H   H30       1.0  0.57510  0.05821  0.13850  1.0000
  C   C25       1.0  0.39270  0.33780  0.50440  1.0000
  C   C26       1.0  0.05490  0.39270  0.00440  1.0000
  C   C27       1.0  0.66220  0.05490  0.50440  1.0000
  C   C28       1.0  0.60730  0.66220  0.00440  1.0000
  C   C29       1.0  0.94510  0.60730  0.50440  1.0000
  C   C30       1.0  0.33780  0.94510  0.00440  1.0000
  C   C31       1.0  0.60730  0.66220  0.49560  1.0000
  C   C32       1.0  0.94510  0.60730  0.99560  1.0000
  C   C33       1.0  0.33780  0.94510  0.49560  1.0000
  C   C34       1.0  0.39270  0.33780  0.99560  1.0000
  C   C35       1.0  0.05490  0.39270  0.49560  1.0000
  C   C36       1.0  0.66220  0.05490  0.99560  1.0000
