data_image0
_chemical_formula_structural       U8O64C8H8C8H8C16H8C8H8C32H8C8H8C16H8C8H8C8H8C8H8C8H8C40H8C24H8C32H8C8H8C8H8C8
_chemical_formula_sum              "U8 O64 C248 H128"
_cell_length_a       20.471
_cell_length_b       20.471
_cell_length_c       57.179
_cell_angle_alpha    90
_cell_angle_beta     90
_cell_angle_gamma    90

_space_group_name_H-M_alt    "P 1"
_space_group_IT_number       1

loop_
  _space_group_symop_operation_xyz
  'x, y, z'

loop_
  _atom_site_type_symbol
  _atom_site_label
  _atom_site_symmetry_multiplicity
  _atom_site_fract_x
  _atom_site_fract_y
  _atom_site_fract_z
  _atom_site_occupancy
  U   U1        1.0  0.29696  0.41576  0.17161  1.0000
  U   U2        1.0  0.08424  0.79696  0.92161  1.0000
  U   U3        1.0  0.70304  0.58424  0.67161  1.0000
  U   U4        1.0  0.91576  0.20304  0.42161  1.0000
  U   U5        1.0  0.79696  0.08424  0.07839  1.0000
  U   U6        1.0  0.41576  0.29696  0.82839  1.0000
  U   U7        1.0  0.20304  0.91576  0.57839  1.0000
  U   U8        1.0  0.58424  0.70304  0.32839  1.0000
  O   O1        1.0  0.38840  0.46750  0.15180  1.0000
  O   O2        1.0  0.03250  0.88840  0.90180  1.0000
  O   O3        1.0  0.61160  0.53250  0.65180  1.0000
  O   O4        1.0  0.96750  0.11160  0.40180  1.0000
  O   O5        1.0  0.88840  0.03250  0.09820  1.0000
  O   O6        1.0  0.46750  0.38840  0.84820  1.0000
  O   O7        1.0  0.11160  0.96750  0.59820  1.0000
  O   O8        1.0  0.53250  0.61160  0.34820  1.0000
  O   O9        1.0  0.34190  0.38770  0.19023  1.0000
  O   O10       1.0  0.11230  0.84190  0.94023  1.0000
  O   O11       1.0  0.65810  0.61230  0.69023  1.0000
  O   O12       1.0  0.88770  0.15810  0.44023  1.0000
  O   O13       1.0  0.84190  0.11230  0.05977  1.0000
  O   O14       1.0  0.38770  0.34190  0.80977  1.0000
  O   O15       1.0  0.15810  0.88770  0.55977  1.0000
  O   O16       1.0  0.61230  0.65810  0.30977  1.0000
  O   O17       1.0  0.24250  0.44640  0.15100  1.0000
  O   O18       1.0  0.05360  0.74250  0.90100  1.0000
  O   O19       1.0  0.75750  0.55360  0.65100  1.0000
  O   O20       1.0  0.94640  0.25750  0.40100  1.0000
  O   O21       1.0  0.74250  0.05360  0.09900  1.0000
  O   O22       1.0  0.44640  0.24250  0.84900  1.0000
  O   O23       1.0  0.25750  0.94640  0.59900  1.0000
  O   O24       1.0  0.55360  0.75750  0.34900  1.0000
  O   O25       1.0  0.73550  0.02280  0.04860  1.0000
  O   O26       1.0  0.47720  0.23550  0.79860  1.0000
  O   O27       1.0  0.26450  0.97720  0.54860  1.0000
  O   O28       1.0  0.52280  0.76450  0.29860  1.0000
  O   O29       1.0  0.23550  0.47720  0.20140  1.0000
  O   O30       1.0  0.02280  0.73550  0.95140  1.0000
  O   O31       1.0  0.76450  0.52280  0.70140  1.0000
  O   O32       1.0  0.97720  0.26450  0.45140  1.0000
  O   O33       1.0  0.76150  0.19650  0.08870  1.0000
  O   O34       1.0  0.30350  0.26150  0.83870  1.0000
  O   O35       1.0  0.23850  0.80350  0.58870  1.0000
  O   O36       1.0  0.69650  0.73850  0.33870  1.0000
  O   O37       1.0  0.26150  0.30350  0.16130  1.0000
  O   O38       1.0  0.19650  0.76150  0.91130  1.0000
  O   O39       1.0  0.73850  0.69650  0.66130  1.0000
  O   O40       1.0  0.80350  0.23850  0.41130  1.0000
  O   O41       1.0  0.82100  0.97520  0.06460  1.0000
  O   O42       1.0  0.52480  0.32100  0.81460  1.0000
  O   O43       1.0  0.17900  0.02480  0.56460  1.0000
  O   O44       1.0  0.47520  0.67900  0.31460  1.0000
  O   O45       1.0  0.32100  0.52480  0.18540  1.0000
  O   O46       1.0  0.97520  0.82100  0.93540  1.0000
  O   O47       1.0  0.67900  0.47520  0.68540  1.0000
  O   O48       1.0  0.02480  0.17900  0.43540  1.0000
  O   O49       1.0  0.35720  0.36750  0.13950  1.0000
  O   O50       1.0  0.13250  0.85720  0.88950  1.0000
  O   O51       1.0  0.64280  0.63250  0.63950  1.0000
  O   O52       1.0  0.86750  0.14280  0.38950  1.0000
  O   O53       1.0  0.85720  0.13250  0.11050  1.0000
  O   O54       1.0  0.36750  0.35720  0.86050  1.0000
  O   O55       1.0  0.14280  0.86750  0.61050  1.0000
  O   O56       1.0  0.63250  0.64280  0.36050  1.0000
  O   O57       1.0  0.71350  0.14660  0.05908  1.0000
  O   O58       1.0  0.35340  0.21350  0.80908  1.0000
  O   O59       1.0  0.28650  0.85340  0.55908  1.0000
  O   O60       1.0  0.64660  0.78650  0.30908  1.0000
  O   O61       1.0  0.21350  0.35340  0.19092  1.0000
  O   O62       1.0  0.14660  0.71350  0.94092  1.0000
  O   O63       1.0  0.78650  0.64660  0.69092  1.0000
  O   O64       1.0  0.85340  0.28650  0.44092  1.0000
  C   C1        1.0  0.53270  0.53590  0.04500  1.0000
  C   C2        1.0  0.96410  0.03270  0.79500  1.0000
  C   C3        1.0  0.46730  0.46410  0.54500  1.0000
  C   C4        1.0  0.03590  0.96730  0.29500  1.0000
  C   C5        1.0  0.03270  0.96410  0.20500  1.0000
  C   C6        1.0  0.53590  0.53270  0.95500  1.0000
  C   C7        1.0  0.96730  0.03590  0.70500  1.0000
  C   C8        1.0  0.46410  0.46730  0.45500  1.0000
  H   H1        1.0  0.50280  0.56290  0.05330  1.0000
  H   H2        1.0  0.93710  0.00280  0.80330  1.0000
  H   H3        1.0  0.49720  0.43710  0.55330  1.0000
  H   H4        1.0  0.06290  0.99720  0.30330  1.0000
  H   H5        1.0  0.00280  0.93710  0.19670  1.0000
  H   H6        1.0  0.56290  0.50280  0.94670  1.0000
  H   H7        1.0  0.99720  0.06290  0.69670  1.0000
  H   H8        1.0  0.43710  0.49720  0.44670  1.0000
  C   C9        1.0  0.62200  0.45610  0.02100  1.0000
  C   C10       1.0  0.04390  0.12200  0.77100  1.0000
  C   C11       1.0  0.37800  0.54390  0.52100  1.0000
  C   C12       1.0  0.95610  0.87800  0.27100  1.0000
  C   C13       1.0  0.12200  0.04390  0.22900  1.0000
  C   C14       1.0  0.45610  0.62200  0.97900  1.0000
  C   C15       1.0  0.87800  0.95610  0.72900  1.0000
  C   C16       1.0  0.54390  0.37800  0.47900  1.0000
  H   H9        1.0  0.65820  0.43420  0.01410  1.0000
  H   H10       1.0  0.06580  0.15820  0.76410  1.0000
  H   H11       1.0  0.34180  0.56580  0.51410  1.0000
  H   H12       1.0  0.93420  0.84180  0.26410  1.0000
  H   H13       1.0  0.15820  0.06580  0.23590  1.0000
  H   H14       1.0  0.43420  0.65820  0.98590  1.0000
  H   H15       1.0  0.84180  0.93420  0.73590  1.0000
  H   H16       1.0  0.56580  0.34180  0.48590  1.0000
  C   C17       1.0  0.69190  0.73020  0.00730  1.0000
  C   C18       1.0  0.76980  0.19190  0.75730  1.0000
  C   C19       1.0  0.30810  0.26980  0.50730  1.0000
  C   C20       1.0  0.23020  0.80810  0.25730  1.0000
  C   C21       1.0  0.19190  0.76980  0.24270  1.0000
  C   C22       1.0  0.73020  0.69190  0.99270  1.0000
  C   C23       1.0  0.80810  0.23020  0.74270  1.0000
  C   C24       1.0  0.26980  0.30810  0.49270  1.0000
  C   C25       1.0  0.62500  0.71750  0.01260  1.0000
  C   C26       1.0  0.78250  0.12500  0.76260  1.0000
  C   C27       1.0  0.37500  0.28250  0.51260  1.0000
  C   C28       1.0  0.21750  0.87500  0.26260  1.0000
  C   C29       1.0  0.12500  0.78250  0.23740  1.0000
  C   C30       1.0  0.71750  0.62500  0.98740  1.0000
  C   C31       1.0  0.87500  0.21750  0.73740  1.0000
  C   C32       1.0  0.28250  0.37500  0.48740  1.0000
  H   H17       1.0  0.59480  0.74820  0.01870  1.0000
  H   H18       1.0  0.75180  0.09480  0.76870  1.0000
  H   H19       1.0  0.40520  0.25180  0.51870  1.0000
  H   H20       1.0  0.24820  0.90520  0.26870  1.0000
  H   H21       1.0  0.09480  0.75180  0.23130  1.0000
  H   H22       1.0  0.74820  0.59480  0.98130  1.0000
  H   H23       1.0  0.90520  0.24820  0.73130  1.0000
  H   H24       1.0  0.25180  0.40520  0.48130  1.0000
  C   C33       1.0  0.48270  0.39860  0.08040  1.0000
  C   C34       1.0  0.10140  0.98270  0.83040  1.0000
  C   C35       1.0  0.51730  0.60140  0.58040  1.0000
  C   C36       1.0  0.89860  0.01730  0.33040  1.0000
  C   C37       1.0  0.98270  0.10140  0.16960  1.0000
  C   C38       1.0  0.39860  0.48270  0.91960  1.0000
  C   C39       1.0  0.01730  0.89860  0.66960  1.0000
  C   C40       1.0  0.60140  0.51730  0.41960  1.0000
  H   H25       1.0  0.48510  0.36490  0.06910  1.0000
  H   H26       1.0  0.13510  0.98510  0.81910  1.0000
  H   H27       1.0  0.51490  0.63510  0.56910  1.0000
  H   H28       1.0  0.86490  0.01490  0.31910  1.0000
  H   H29       1.0  0.98510  0.13510  0.18090  1.0000
  H   H30       1.0  0.36490  0.48510  0.93090  1.0000
  H   H31       1.0  0.01490  0.86490  0.68090  1.0000
  H   H32       1.0  0.63510  0.51490  0.43090  1.0000
  C   C41       1.0  0.59290  0.43330  0.04180  1.0000
  C   C42       1.0  0.06670  0.09290  0.79180  1.0000
  C   C43       1.0  0.40710  0.56670  0.54180  1.0000
  C   C44       1.0  0.93330  0.90710  0.29180  1.0000
  C   C45       1.0  0.09290  0.06670  0.20820  1.0000
  C   C46       1.0  0.43330  0.59290  0.95820  1.0000
  C   C47       1.0  0.90710  0.93330  0.70820  1.0000
  C   C48       1.0  0.56670  0.40710  0.45820  1.0000
  C   C49       1.0  0.71280  0.79400  0.01720  1.0000
  C   C50       1.0  0.70600  0.21280  0.76720  1.0000
  C   C51       1.0  0.28720  0.20600  0.51720  1.0000
  C   C52       1.0  0.29400  0.78720  0.26720  1.0000
  C   C53       1.0  0.21280  0.70600  0.23280  1.0000
  C   C54       1.0  0.79400  0.71280  0.98280  1.0000
  C   C55       1.0  0.78720  0.29400  0.73280  1.0000
  C   C56       1.0  0.20600  0.28720  0.48280  1.0000
  C   C57       1.0  0.55330  0.47150  0.05570  1.0000
  C   C58       1.0  0.02850  0.05330  0.80570  1.0000
  C   C59       1.0  0.44670  0.52850  0.55570  1.0000
  C   C60       1.0  0.97150  0.94670  0.30570  1.0000
  C   C61       1.0  0.05330  0.02850  0.19430  1.0000
  C   C62       1.0  0.47150  0.55330  0.94430  1.0000
  C   C63       1.0  0.94670  0.97150  0.69430  1.0000
  C   C64       1.0  0.52850  0.44670  0.44430  1.0000
  C   C65       1.0  0.63960  0.25830  0.04560  1.0000
  C   C66       1.0  0.24170  0.13960  0.79560  1.0000
  C   C67       1.0  0.36040  0.74170  0.54560  1.0000
  C   C68       1.0  0.75830  0.86040  0.29560  1.0000
  C   C69       1.0  0.13960  0.24170  0.20440  1.0000
  C   C70       1.0  0.25830  0.63960  0.95440  1.0000
  C   C71       1.0  0.86040  0.75830  0.70440  1.0000
  C   C72       1.0  0.74170  0.36040  0.45440  1.0000
  H   H33       1.0  0.62980  0.21960  0.03720  1.0000
  H   H34       1.0  0.28040  0.12980  0.78720  1.0000
  H   H35       1.0  0.37020  0.78040  0.53720  1.0000
  H   H36       1.0  0.71960  0.87020  0.28720  1.0000
  H   H37       1.0  0.12980  0.28040  0.21280  1.0000
  H   H38       1.0  0.21960  0.62980  0.96280  1.0000
  H   H39       1.0  0.87020  0.71960  0.71280  1.0000
  H   H40       1.0  0.78040  0.37020  0.46280  1.0000
  C   C73       1.0  0.78930  0.85510  0.04110  1.0000
  C   C74       1.0  0.64490  0.28930  0.79110  1.0000
  C   C75       1.0  0.21070  0.14490  0.54110  1.0000
  C   C76       1.0  0.35510  0.71070  0.29110  1.0000
  C   C77       1.0  0.28930  0.64490  0.20890  1.0000
  C   C78       1.0  0.85510  0.78930  0.95890  1.0000
  C   C79       1.0  0.71070  0.35510  0.70890  1.0000
  C   C80       1.0  0.14490  0.21070  0.45890  1.0000
  H   H41       1.0  0.82500  0.85510  0.05180  1.0000
  H   H42       1.0  0.64490  0.32500  0.80180  1.0000
  H   H43       1.0  0.17500  0.14490  0.55180  1.0000
  H   H44       1.0  0.35510  0.67500  0.30180  1.0000
  H   H45       1.0  0.32500  0.64490  0.19820  1.0000
  H   H46       1.0  0.85510  0.82500  0.94820  1.0000
  H   H47       1.0  0.67500  0.35510  0.69820  1.0000
  H   H48       1.0  0.14490  0.17500  0.44820  1.0000
  C   C81       1.0  0.55520  0.55600  0.02420  1.0000
  C   C82       1.0  0.94400  0.05520  0.77420  1.0000
  C   C83       1.0  0.44480  0.44400  0.52420  1.0000
  C   C84       1.0  0.05600  0.94480  0.27420  1.0000
  C   C85       1.0  0.05520  0.94400  0.22580  1.0000
  C   C86       1.0  0.55600  0.55520  0.97580  1.0000
  C   C87       1.0  0.94480  0.05600  0.72580  1.0000
  C   C88       1.0  0.44400  0.44480  0.47580  1.0000
  C   C89       1.0  0.68460  0.31420  0.08030  1.0000
  C   C90       1.0  0.18580  0.18460  0.83030  1.0000
  C   C91       1.0  0.31540  0.68580  0.58030  1.0000
  C   C92       1.0  0.81420  0.81540  0.33030  1.0000
  C   C93       1.0  0.18460  0.18580  0.16970  1.0000
  C   C94       1.0  0.31420  0.68460  0.91970  1.0000
  C   C95       1.0  0.81540  0.81420  0.66970  1.0000
  C   C96       1.0  0.68580  0.31540  0.41970  1.0000
  H   H49       1.0  0.71060  0.31290  0.09400  1.0000
  H   H50       1.0  0.18710  0.21060  0.84400  1.0000
  H   H51       1.0  0.28940  0.68710  0.59400  1.0000
  H   H52       1.0  0.81290  0.78940  0.34400  1.0000
  H   H53       1.0  0.21060  0.18710  0.15600  1.0000
  H   H54       1.0  0.31290  0.71060  0.90600  1.0000
  H   H55       1.0  0.78940  0.81290  0.65600  1.0000
  H   H56       1.0  0.68710  0.28940  0.40600  1.0000
  C   C97       1.0  0.77180  0.79230  0.02920  1.0000
  C   C98       1.0  0.70770  0.27180  0.77920  1.0000
  C   C99       1.0  0.22820  0.20770  0.52920  1.0000
  C   C100      1.0  0.29230  0.72820  0.27920  1.0000
  C   C101      1.0  0.27180  0.70770  0.22080  1.0000
  C   C102      1.0  0.79230  0.77180  0.97080  1.0000
  C   C103      1.0  0.72820  0.29230  0.72080  1.0000
  C   C104      1.0  0.20770  0.22820  0.47080  1.0000
  H   H57       1.0  0.79870  0.75460  0.02970  1.0000
  H   H58       1.0  0.74540  0.29870  0.77970  1.0000
  H   H59       1.0  0.20130  0.24540  0.52970  1.0000
  H   H60       1.0  0.25460  0.70130  0.27970  1.0000
  H   H61       1.0  0.29870  0.74540  0.22030  1.0000
  H   H62       1.0  0.75460  0.79870  0.97030  1.0000
  H   H63       1.0  0.70130  0.25460  0.72030  1.0000
  H   H64       1.0  0.24540  0.20130  0.47030  1.0000
  C   C105      1.0  0.53950  0.61960  0.01010  1.0000
  C   C106      1.0  0.88040  0.03950  0.76010  1.0000
  C   C107      1.0  0.46050  0.38040  0.51010  1.0000
  C   C108      1.0  0.11960  0.96050  0.26010  1.0000
  C   C109      1.0  0.03950  0.88040  0.23990  1.0000
  C   C110      1.0  0.61960  0.53950  0.98990  1.0000
  C   C111      1.0  0.96050  0.11960  0.73990  1.0000
  C   C112      1.0  0.38040  0.46050  0.48990  1.0000
  H   H65       1.0  0.51030  0.64990  0.01900  1.0000
  H   H66       1.0  0.85010  0.01030  0.76900  1.0000
  H   H67       1.0  0.48970  0.35010  0.51900  1.0000
  H   H68       1.0  0.14990  0.98970  0.26900  1.0000
  H   H69       1.0  0.01030  0.85010  0.23100  1.0000
  H   H70       1.0  0.64990  0.51030  0.98100  1.0000
  H   H71       1.0  0.98970  0.14990  0.73100  1.0000
  H   H72       1.0  0.35010  0.48970  0.48100  1.0000
  C   C113      1.0  0.69960  0.90610  0.02460  1.0000
  C   C114      1.0  0.59390  0.19960  0.77460  1.0000
  C   C115      1.0  0.30040  0.09390  0.52460  1.0000
  C   C116      1.0  0.40610  0.80040  0.27460  1.0000
  C   C117      1.0  0.19960  0.59390  0.22540  1.0000
  C   C118      1.0  0.90610  0.69960  0.97540  1.0000
  C   C119      1.0  0.80040  0.40610  0.72540  1.0000
  C   C120      1.0  0.09390  0.30040  0.47540  1.0000
  H   H73       1.0  0.67360  0.94440  0.02340  1.0000
  H   H74       1.0  0.55560  0.17360  0.77340  1.0000
  H   H75       1.0  0.32640  0.05560  0.52340  1.0000
  H   H76       1.0  0.44440  0.82640  0.27340  1.0000
  H   H77       1.0  0.17360  0.55560  0.22660  1.0000
  H   H78       1.0  0.94440  0.67360  0.97660  1.0000
  H   H79       1.0  0.82640  0.44440  0.72660  1.0000
  H   H80       1.0  0.05560  0.32640  0.47660  1.0000
  C   C121      1.0  0.67760  0.85080  0.01330  1.0000
  C   C122      1.0  0.64920  0.17760  0.76330  1.0000
  C   C123      1.0  0.32240  0.14920  0.51330  1.0000
  C   C124      1.0  0.35080  0.82240  0.26330  1.0000
  C   C125      1.0  0.17760  0.64920  0.23670  1.0000
  C   C126      1.0  0.85080  0.67760  0.98670  1.0000
  C   C127      1.0  0.82240  0.35080  0.73670  1.0000
  C   C128      1.0  0.14920  0.32240  0.48670  1.0000
  H   H81       1.0  0.64030  0.85160  0.00340  1.0000
  H   H82       1.0  0.64840  0.14030  0.75340  1.0000
  H   H83       1.0  0.35970  0.14840  0.50340  1.0000
  H   H84       1.0  0.35160  0.85970  0.25340  1.0000
  H   H85       1.0  0.14030  0.64840  0.24660  1.0000
  H   H86       1.0  0.85160  0.64030  0.99660  1.0000
  H   H87       1.0  0.85970  0.35160  0.74660  1.0000
  H   H88       1.0  0.14840  0.35970  0.49660  1.0000
  C   C129      1.0  0.75780  0.91010  0.03760  1.0000
  C   C130      1.0  0.58990  0.25780  0.78760  1.0000
  C   C131      1.0  0.24220  0.08990  0.53760  1.0000
  C   C132      1.0  0.41010  0.74220  0.28760  1.0000
  C   C133      1.0  0.25780  0.58990  0.21240  1.0000
  C   C134      1.0  0.91010  0.75780  0.96240  1.0000
  C   C135      1.0  0.74220  0.41010  0.71240  1.0000
  C   C136      1.0  0.08990  0.24220  0.46240  1.0000
  C   C137      1.0  0.44010  0.43150  0.11720  1.0000
  C   C138      1.0  0.06850  0.94010  0.86720  1.0000
  C   C139      1.0  0.55990  0.56850  0.61720  1.0000
  C   C140      1.0  0.93150  0.05990  0.36720  1.0000
  C   C141      1.0  0.94010  0.06850  0.13280  1.0000
  C   C142      1.0  0.43150  0.44010  0.88280  1.0000
  C   C143      1.0  0.05990  0.93150  0.63280  1.0000
  C   C144      1.0  0.56850  0.55990  0.38280  1.0000
  C   C145      1.0  0.67700  0.25650  0.06630  1.0000
  C   C146      1.0  0.24350  0.17700  0.81630  1.0000
  C   C147      1.0  0.32300  0.74350  0.56630  1.0000
  C   C148      1.0  0.75650  0.82300  0.31630  1.0000
  C   C149      1.0  0.17700  0.24350  0.18370  1.0000
  C   C150      1.0  0.25650  0.67700  0.93370  1.0000
  C   C151      1.0  0.82300  0.75650  0.68370  1.0000
  C   C152      1.0  0.74350  0.32300  0.43370  1.0000
  C   C153      1.0  0.61050  0.64850  0.00680  1.0000
  C   C154      1.0  0.85150  0.11050  0.75680  1.0000
  C   C155      1.0  0.38950  0.35150  0.50680  1.0000
  C   C156      1.0  0.14850  0.88950  0.25680  1.0000
  C   C157      1.0  0.11050  0.85150  0.24320  1.0000
  C   C158      1.0  0.64850  0.61050  0.99320  1.0000
  C   C159      1.0  0.88950  0.14850  0.74320  1.0000
  C   C160      1.0  0.35150  0.38950  0.49320  1.0000
  C   C161      1.0  0.47750  0.49030  0.11640  1.0000
  C   C162      1.0  0.00970  0.97750  0.86640  1.0000
  C   C163      1.0  0.52250  0.50970  0.61640  1.0000
  C   C164      1.0  0.99030  0.02250  0.36640  1.0000
  C   C165      1.0  0.97750  0.00970  0.13360  1.0000
  C   C166      1.0  0.49030  0.47750  0.88360  1.0000
  C   C167      1.0  0.02250  0.99030  0.63360  1.0000
  C   C168      1.0  0.50970  0.52250  0.38360  1.0000
  H   H89       1.0  0.48000  0.51990  0.12920  1.0000
  H   H90       1.0  0.98010  0.98000  0.87920  1.0000
  H   H91       1.0  0.52000  0.48010  0.62920  1.0000
  H   H92       1.0  0.01990  0.02000  0.37920  1.0000
  H   H93       1.0  0.98000  0.98010  0.12080  1.0000
  H   H94       1.0  0.51990  0.48000  0.87080  1.0000
  H   H95       1.0  0.02000  0.01990  0.62080  1.0000
  H   H96       1.0  0.48010  0.52000  0.37080  1.0000
  C   C169      1.0  0.39450  0.41500  0.13890  1.0000
  C   C170      1.0  0.08500  0.89450  0.88890  1.0000
  C   C171      1.0  0.60550  0.58500  0.63890  1.0000
  C   C172      1.0  0.91500  0.10550  0.38890  1.0000
  C   C173      1.0  0.89450  0.08500  0.11110  1.0000
  C   C174      1.0  0.41500  0.39450  0.86110  1.0000
  C   C175      1.0  0.10550  0.91500  0.61110  1.0000
  C   C176      1.0  0.58500  0.60550  0.36110  1.0000
  C   C177      1.0  0.59670  0.50970  0.01130  1.0000
  C   C178      1.0  0.99030  0.09670  0.76130  1.0000
  C   C179      1.0  0.40330  0.49030  0.51130  1.0000
  C   C180      1.0  0.00970  0.90330  0.26130  1.0000
  C   C181      1.0  0.09670  0.99030  0.23870  1.0000
  C   C182      1.0  0.50970  0.59670  0.98870  1.0000
  C   C183      1.0  0.90330  0.00970  0.73870  1.0000
  C   C184      1.0  0.49030  0.40330  0.48870  1.0000
  C   C185      1.0  0.44390  0.38830  0.10040  1.0000
  C   C186      1.0  0.11170  0.94390  0.85040  1.0000
  C   C187      1.0  0.55610  0.61170  0.60040  1.0000
  C   C188      1.0  0.88830  0.05610  0.35040  1.0000
  C   C189      1.0  0.94390  0.11170  0.14960  1.0000
  C   C190      1.0  0.38830  0.44390  0.89960  1.0000
  C   C191      1.0  0.05610  0.88830  0.64960  1.0000
  C   C192      1.0  0.61170  0.55610  0.39960  1.0000
  H   H97       1.0  0.41980  0.34880  0.10170  1.0000
  H   H98       1.0  0.15120  0.91980  0.85170  1.0000
  H   H99       1.0  0.58020  0.65120  0.60170  1.0000
  H   H100      1.0  0.84880  0.08020  0.35170  1.0000
  H   H101      1.0  0.91980  0.15120  0.14830  1.0000
  H   H102      1.0  0.34880  0.41980  0.89830  1.0000
  H   H103      1.0  0.08020  0.84880  0.64830  1.0000
  H   H104      1.0  0.65120  0.58020  0.39830  1.0000
  C   C193      1.0  0.61480  0.37600  0.05330  1.0000
  C   C194      1.0  0.12400  0.11480  0.80330  1.0000
  C   C195      1.0  0.38520  0.62400  0.55330  1.0000
  C   C196      1.0  0.87600  0.88520  0.30330  1.0000
  C   C197      1.0  0.11480  0.12400  0.19670  1.0000
  C   C198      1.0  0.37600  0.61480  0.94670  1.0000
  C   C199      1.0  0.88520  0.87600  0.69670  1.0000
  C   C200      1.0  0.62400  0.38520  0.44670  1.0000
  C   C201      1.0  0.72670  0.19680  0.07190  1.0000
  C   C202      1.0  0.30320  0.22670  0.82190  1.0000
  C   C203      1.0  0.27330  0.80320  0.57190  1.0000
  C   C204      1.0  0.69680  0.77330  0.32190  1.0000
  C   C205      1.0  0.22670  0.30320  0.17810  1.0000
  C   C206      1.0  0.19680  0.72670  0.92810  1.0000
  C   C207      1.0  0.77330  0.69680  0.67810  1.0000
  C   C208      1.0  0.80320  0.27330  0.42810  1.0000
  C   C209      1.0  0.51970  0.45900  0.07630  1.0000
  C   C210      1.0  0.04100  0.01970  0.82630  1.0000
  C   C211      1.0  0.48030  0.54100  0.57630  1.0000
  C   C212      1.0  0.95900  0.98030  0.32630  1.0000
  C   C213      1.0  0.01970  0.04100  0.17370  1.0000
  C   C214      1.0  0.45900  0.51970  0.92370  1.0000
  C   C215      1.0  0.98030  0.95900  0.67370  1.0000
  C   C216      1.0  0.54100  0.48030  0.42370  1.0000
  C   C217      1.0  0.65360  0.37210  0.07360  1.0000
  C   C218      1.0  0.12790  0.15360  0.82360  1.0000
  C   C219      1.0  0.34640  0.62790  0.57360  1.0000
  C   C220      1.0  0.87210  0.84640  0.32360  1.0000
  C   C221      1.0  0.15360  0.12790  0.17640  1.0000
  C   C222      1.0  0.37210  0.65360  0.92640  1.0000
  C   C223      1.0  0.84640  0.87210  0.67640  1.0000
  C   C224      1.0  0.62790  0.34640  0.42640  1.0000
  H   H105      1.0  0.65880  0.40990  0.08310  1.0000
  H   H106      1.0  0.09010  0.15880  0.83310  1.0000
  H   H107      1.0  0.34120  0.59010  0.58310  1.0000
  H   H108      1.0  0.90990  0.84120  0.33310  1.0000
  H   H109      1.0  0.15880  0.09010  0.16690  1.0000
  H   H110      1.0  0.40990  0.65880  0.91690  1.0000
  H   H111      1.0  0.84120  0.90990  0.66690  1.0000
  H   H112      1.0  0.59010  0.34120  0.41690  1.0000
  C   C225      1.0  0.61870  0.31580  0.03840  1.0000
  C   C226      1.0  0.18420  0.11870  0.78840  1.0000
  C   C227      1.0  0.38130  0.68420  0.53840  1.0000
  C   C228      1.0  0.81580  0.88130  0.28840  1.0000
  C   C229      1.0  0.11870  0.18420  0.21160  1.0000
  C   C230      1.0  0.31580  0.61870  0.96160  1.0000
  C   C231      1.0  0.88130  0.81580  0.71160  1.0000
  C   C232      1.0  0.68420  0.38130  0.46160  1.0000
  H   H113      1.0  0.60510  0.31940  0.02260  1.0000
  H   H114      1.0  0.18060  0.10510  0.77260  1.0000
  H   H115      1.0  0.39490  0.68060  0.52260  1.0000
  H   H116      1.0  0.81940  0.89490  0.27260  1.0000
  H   H117      1.0  0.10510  0.18060  0.22740  1.0000
  H   H118      1.0  0.31940  0.60510  0.97740  1.0000
  H   H119      1.0  0.89490  0.81940  0.72740  1.0000
  H   H120      1.0  0.68060  0.39490  0.47740  1.0000
  C   C233      1.0  0.50940  0.50020  0.09590  1.0000
  C   C234      1.0  0.99980  0.00940  0.84590  1.0000
  C   C235      1.0  0.49060  0.49980  0.59590  1.0000
  C   C236      1.0  0.00020  0.99060  0.34590  1.0000
  C   C237      1.0  0.00940  0.99980  0.15410  1.0000
  C   C238      1.0  0.50020  0.50940  0.90410  1.0000
  C   C239      1.0  0.99060  0.00020  0.65410  1.0000
  C   C240      1.0  0.49980  0.49060  0.40410  1.0000
  H   H121      1.0  0.52810  0.54240  0.09430  1.0000
  H   H122      1.0  0.95760  0.02810  0.84430  1.0000
  H   H123      1.0  0.47190  0.45760  0.59430  1.0000
  H   H124      1.0  0.04240  0.97190  0.34430  1.0000
  H   H125      1.0  0.02810  0.95760  0.15570  1.0000
  H   H126      1.0  0.54240  0.52810  0.90570  1.0000
  H   H127      1.0  0.97190  0.04240  0.65570  1.0000
  H   H128      1.0  0.45760  0.47190  0.40570  1.0000
  C   C241      1.0  0.77360  0.96630  0.05040  1.0000
  C   C242      1.0  0.53370  0.27360  0.80040  1.0000
  C   C243      1.0  0.22640  0.03370  0.55040  1.0000
  C   C244      1.0  0.46630  0.72640  0.30040  1.0000
  C   C245      1.0  0.27360  0.53370  0.19960  1.0000
  C   C246      1.0  0.96630  0.77360  0.94960  1.0000
  C   C247      1.0  0.72640  0.46630  0.69960  1.0000
  C   C248      1.0  0.03370  0.22640  0.44960  1.0000
