data_image0
_chemical_formula_structural       Co12O64C16H8C16H8C16H8C8H16C16H8C16H8C16H8C32
_chemical_formula_sum              "Co12 O64 C136 H64"
_cell_length_a       16.223
_cell_length_b       10.633
_cell_length_c       25.188
_cell_angle_alpha    90
_cell_angle_beta     90
_cell_angle_gamma    90

_space_group_name_H-M_alt    "P 1"
_space_group_IT_number       1

loop_
  _space_group_symop_operation_xyz
  'x, y, z'

loop_
  _atom_site_type_symbol
  _atom_site_label
  _atom_site_symmetry_multiplicity
  _atom_site_fract_x
  _atom_site_fract_y
  _atom_site_fract_z
  _atom_site_occupancy
  Co  Co1       1.0  0.06291  0.34402  0.38126  1.0000
  Co  Co2       1.0  0.43709  0.65599  0.88126  1.0000
  Co  Co3       1.0  0.93709  0.84401  0.11874  1.0000
  Co  Co4       1.0  0.56291  0.15598  0.61874  1.0000
  Co  Co5       1.0  0.93709  0.65599  0.61874  1.0000
  Co  Co6       1.0  0.56291  0.34402  0.11874  1.0000
  Co  Co7       1.0  0.06291  0.15598  0.88126  1.0000
  Co  Co8       1.0  0.43709  0.84401  0.38126  1.0000
  Co  Co9       1.0  0.00000  0.50000  0.50000  1.0000
  Co  Co10      1.0  0.50000  0.50000  0.00000  1.0000
  Co  Co11      1.0  0.00000  0.00000  0.00000  1.0000
  Co  Co12      1.0  0.50000  0.00000  0.50000  1.0000
  O   O1        1.0  0.10356  0.43945  0.45219  1.0000
  O   O2        1.0  0.39644  0.56055  0.95219  1.0000
  O   O3        1.0  0.89644  0.93945  0.04781  1.0000
  O   O4        1.0  0.60356  0.06055  0.54781  1.0000
  O   O5        1.0  0.89644  0.56055  0.54781  1.0000
  O   O6        1.0  0.60356  0.43945  0.04781  1.0000
  O   O7        1.0  0.10356  0.06055  0.95219  1.0000
  O   O8        1.0  0.39644  0.93945  0.45219  1.0000
  O   O9        1.0  0.17903  0.29135  0.41767  1.0000
  O   O10       1.0  0.32097  0.70865  0.91767  1.0000
  O   O11       1.0  0.82097  0.79135  0.08233  1.0000
  O   O12       1.0  0.67903  0.20865  0.58233  1.0000
  O   O13       1.0  0.82097  0.70865  0.58233  1.0000
  O   O14       1.0  0.67903  0.29135  0.08233  1.0000
  O   O15       1.0  0.17903  0.20865  0.91767  1.0000
  O   O16       1.0  0.32097  0.79135  0.41767  1.0000
  O   O17       1.0  0.43837  0.16612  0.51183  1.0000
  O   O18       1.0  0.06163  0.83388  0.01183  1.0000
  O   O19       1.0  0.56163  0.66612  0.98817  1.0000
  O   O20       1.0  0.93837  0.33388  0.48817  1.0000
  O   O21       1.0  0.56163  0.83388  0.48817  1.0000
  O   O22       1.0  0.93837  0.16612  0.98817  1.0000
  O   O23       1.0  0.43837  0.33388  0.01183  1.0000
  O   O24       1.0  0.06163  0.66612  0.51183  1.0000
  O   O25       1.0  0.48156  0.27372  0.58301  1.0000
  O   O26       1.0  0.01844  0.72628  0.08301  1.0000
  O   O27       1.0  0.51844  0.77372  0.91699  1.0000
  O   O28       1.0  0.98156  0.22628  0.41699  1.0000
  O   O29       1.0  0.51844  0.72628  0.41699  1.0000
  O   O30       1.0  0.98156  0.27372  0.91699  1.0000
  O   O31       1.0  0.48156  0.22628  0.08301  1.0000
  O   O32       1.0  0.01844  0.77372  0.58301  1.0000
  O   O33       1.0  0.45369  0.91691  0.56758  1.0000
  O   O34       1.0  0.04631  0.08309  0.06758  1.0000
  O   O35       1.0  0.54631  0.41691  0.93242  1.0000
  O   O36       1.0  0.95369  0.58309  0.43242  1.0000
  O   O37       1.0  0.54631  0.08309  0.43242  1.0000
  O   O38       1.0  0.95369  0.91691  0.93242  1.0000
  O   O39       1.0  0.45369  0.58309  0.06758  1.0000
  O   O40       1.0  0.04631  0.41691  0.56758  1.0000
  O   O41       1.0  0.48620  0.01692  0.64307  1.0000
  O   O42       1.0  0.01380  0.98308  0.14307  1.0000
  O   O43       1.0  0.51380  0.51692  0.85693  1.0000
  O   O44       1.0  0.98620  0.48308  0.35693  1.0000
  O   O45       1.0  0.51380  0.98308  0.35693  1.0000
  O   O46       1.0  0.98620  0.01692  0.85693  1.0000
  O   O47       1.0  0.48620  0.48308  0.14307  1.0000
  O   O48       1.0  0.01380  0.51692  0.64307  1.0000
  O   O49       1.0  0.44237  0.76840  0.81340  1.0000
  O   O50       1.0  0.05763  0.23160  0.31340  1.0000
  O   O51       1.0  0.55763  0.26840  0.68660  1.0000
  O   O52       1.0  0.94237  0.73160  0.18660  1.0000
  O   O53       1.0  0.55763  0.23160  0.18660  1.0000
  O   O54       1.0  0.94237  0.76840  0.68660  1.0000
  O   O55       1.0  0.44237  0.73160  0.31340  1.0000
  O   O56       1.0  0.05763  0.26840  0.81340  1.0000
  O   O57       1.0  0.36238  0.60379  0.80963  1.0000
  O   O58       1.0  0.13762  0.39621  0.30963  1.0000
  O   O59       1.0  0.63762  0.10379  0.69037  1.0000
  O   O60       1.0  0.86238  0.89621  0.19037  1.0000
  O   O61       1.0  0.63762  0.39621  0.19037  1.0000
  O   O62       1.0  0.86238  0.60379  0.69037  1.0000
  O   O63       1.0  0.36238  0.89621  0.30963  1.0000
  O   O64       1.0  0.13762  0.10379  0.80963  1.0000
  C   C1        1.0  0.23143  0.39212  0.49575  1.0000
  C   C2        1.0  0.26857  0.60788  0.99575  1.0000
  C   C3        1.0  0.76857  0.89212  0.00425  1.0000
  C   C4        1.0  0.73143  0.10788  0.50425  1.0000
  C   C5        1.0  0.76857  0.60788  0.50425  1.0000
  C   C6        1.0  0.73143  0.39212  0.00425  1.0000
  C   C7        1.0  0.23143  0.10788  0.99575  1.0000
  C   C8        1.0  0.26857  0.89212  0.49575  1.0000
  C   C9        1.0  0.30123  0.31717  0.49935  1.0000
  C   C10       1.0  0.19877  0.68283  0.99935  1.0000
  C   C11       1.0  0.69877  0.81717  0.00065  1.0000
  C   C12       1.0  0.80123  0.18283  0.50065  1.0000
  C   C13       1.0  0.69877  0.68283  0.50065  1.0000
  C   C14       1.0  0.80123  0.31717  0.00065  1.0000
  C   C15       1.0  0.30123  0.18283  0.99935  1.0000
  C   C16       1.0  0.19877  0.81717  0.49935  1.0000
  H   H1        1.0  0.31100  0.25520  0.47410  1.0000
  H   H2        1.0  0.18900  0.74480  0.97410  1.0000
  H   H3        1.0  0.68900  0.75520  0.02590  1.0000
  H   H4        1.0  0.81100  0.24480  0.52590  1.0000
  H   H5        1.0  0.68900  0.74480  0.52590  1.0000
  H   H6        1.0  0.81100  0.25520  0.02590  1.0000
  H   H7        1.0  0.31100  0.24480  0.97410  1.0000
  H   H8        1.0  0.18900  0.75520  0.47410  1.0000
  C   C17       1.0  0.35679  0.33507  0.54107  1.0000
  C   C18       1.0  0.14321  0.66493  0.04107  1.0000
  C   C19       1.0  0.64321  0.83507  0.95893  1.0000
  C   C20       1.0  0.85679  0.16493  0.45893  1.0000
  C   C21       1.0  0.64321  0.66493  0.45893  1.0000
  C   C22       1.0  0.85679  0.33507  0.95893  1.0000
  C   C23       1.0  0.35679  0.16493  0.04107  1.0000
  C   C24       1.0  0.14321  0.83507  0.54107  1.0000
  C   C25       1.0  0.33956  0.42441  0.58028  1.0000
  C   C26       1.0  0.16044  0.57559  0.08028  1.0000
  C   C27       1.0  0.66044  0.92441  0.91972  1.0000
  C   C28       1.0  0.83956  0.07559  0.41972  1.0000
  C   C29       1.0  0.66044  0.57559  0.41972  1.0000
  C   C30       1.0  0.83956  0.42441  0.91972  1.0000
  C   C31       1.0  0.33956  0.07559  0.08028  1.0000
  C   C32       1.0  0.16044  0.92441  0.58028  1.0000
  H   H9        1.0  0.37560  0.43410  0.60870  1.0000
  H   H10       1.0  0.12440  0.56590  0.10870  1.0000
  H   H11       1.0  0.62440  0.93410  0.89130  1.0000
  H   H12       1.0  0.87560  0.06590  0.39130  1.0000
  H   H13       1.0  0.62440  0.56590  0.39130  1.0000
  H   H14       1.0  0.87560  0.43410  0.89130  1.0000
  H   H15       1.0  0.37560  0.06590  0.10870  1.0000
  H   H16       1.0  0.12440  0.93410  0.60870  1.0000
  C   C33       1.0  0.26933  0.49878  0.57731  1.0000
  C   C34       1.0  0.23067  0.50122  0.07731  1.0000
  C   C35       1.0  0.73067  0.99878  0.92269  1.0000
  C   C36       1.0  0.76933  0.00122  0.42269  1.0000
  C   C37       1.0  0.73067  0.50122  0.42269  1.0000
  C   C38       1.0  0.76933  0.49878  0.92269  1.0000
  C   C39       1.0  0.26933  0.00122  0.07731  1.0000
  C   C40       1.0  0.23067  0.99878  0.57731  1.0000
  C   C41       1.0  0.21763  0.48496  0.53366  1.0000
  C   C42       1.0  0.28237  0.51504  0.03366  1.0000
  C   C43       1.0  0.78237  0.98496  0.96634  1.0000
  C   C44       1.0  0.71763  0.01504  0.46634  1.0000
  C   C45       1.0  0.78237  0.51504  0.46634  1.0000
  C   C46       1.0  0.71763  0.48496  0.96634  1.0000
  C   C47       1.0  0.21763  0.01504  0.03366  1.0000
  C   C48       1.0  0.28237  0.98496  0.53366  1.0000
  H   H17       1.0  0.17290  0.53890  0.52970  1.0000
  H   H18       1.0  0.32710  0.46110  0.02970  1.0000
  H   H19       1.0  0.82710  0.03890  0.97030  1.0000
  H   H20       1.0  0.67290  0.96110  0.47030  1.0000
  H   H21       1.0  0.82710  0.46110  0.47030  1.0000
  H   H22       1.0  0.67290  0.53890  0.97030  1.0000
  H   H23       1.0  0.17290  0.96110  0.02970  1.0000
  H   H24       1.0  0.32710  0.03890  0.52970  1.0000
  C   C49       1.0  0.24146  0.58343  0.62226  1.0000
  C   C50       1.0  0.25854  0.41657  0.12226  1.0000
  C   C51       1.0  0.75854  0.08343  0.87774  1.0000
  C   C52       1.0  0.74146  0.91657  0.37774  1.0000
  C   C53       1.0  0.75854  0.41657  0.37774  1.0000
  C   C54       1.0  0.74146  0.58343  0.87774  1.0000
  C   C55       1.0  0.24146  0.91657  0.12226  1.0000
  C   C56       1.0  0.25854  0.08343  0.62226  1.0000
  H   H25       1.0  0.19990  0.64030  0.60850  1.0000
  H   H26       1.0  0.30010  0.35970  0.10850  1.0000
  H   H27       1.0  0.80010  0.14030  0.89150  1.0000
  H   H28       1.0  0.69990  0.85970  0.39150  1.0000
  H   H29       1.0  0.80010  0.35970  0.39150  1.0000
  H   H30       1.0  0.69990  0.64030  0.89150  1.0000
  H   H31       1.0  0.19990  0.85970  0.10850  1.0000
  H   H32       1.0  0.30010  0.14030  0.60850  1.0000
  H   H33       1.0  0.21500  0.53140  0.64890  1.0000
  H   H34       1.0  0.28500  0.46860  0.14890  1.0000
  H   H35       1.0  0.78500  0.03140  0.85110  1.0000
  H   H36       1.0  0.71500  0.96860  0.35110  1.0000
  H   H37       1.0  0.78500  0.46860  0.35110  1.0000
  H   H38       1.0  0.71500  0.53140  0.85110  1.0000
  H   H39       1.0  0.21500  0.96860  0.14890  1.0000
  H   H40       1.0  0.28500  0.03140  0.64890  1.0000
  C   C57       1.0  0.30685  0.66107  0.64936  1.0000
  C   C58       1.0  0.19315  0.33893  0.14936  1.0000
  C   C59       1.0  0.69315  0.16107  0.85064  1.0000
  C   C60       1.0  0.80685  0.83893  0.35064  1.0000
  C   C61       1.0  0.69315  0.33893  0.35064  1.0000
  C   C62       1.0  0.80685  0.66107  0.85064  1.0000
  C   C63       1.0  0.30685  0.83893  0.14936  1.0000
  C   C64       1.0  0.19315  0.16107  0.64936  1.0000
  C   C65       1.0  0.35170  0.75188  0.62182  1.0000
  C   C66       1.0  0.14830  0.24812  0.12182  1.0000
  C   C67       1.0  0.64830  0.25188  0.87818  1.0000
  C   C68       1.0  0.85170  0.74812  0.37818  1.0000
  C   C69       1.0  0.64830  0.24812  0.37818  1.0000
  C   C70       1.0  0.85170  0.75188  0.87818  1.0000
  C   C71       1.0  0.35170  0.74812  0.12182  1.0000
  C   C72       1.0  0.14830  0.25188  0.62182  1.0000
  H   H41       1.0  0.34440  0.76010  0.58540  1.0000
  H   H42       1.0  0.15560  0.23990  0.08540  1.0000
  H   H43       1.0  0.65560  0.26010  0.91460  1.0000
  H   H44       1.0  0.84440  0.73990  0.41460  1.0000
  H   H45       1.0  0.65560  0.23990  0.41460  1.0000
  H   H46       1.0  0.84440  0.76010  0.91460  1.0000
  H   H47       1.0  0.34440  0.73990  0.08540  1.0000
  H   H48       1.0  0.15560  0.26010  0.58540  1.0000
  C   C73       1.0  0.40705  0.83032  0.64783  1.0000
  C   C74       1.0  0.09295  0.16968  0.14783  1.0000
  C   C75       1.0  0.59295  0.33032  0.85217  1.0000
  C   C76       1.0  0.90705  0.66968  0.35217  1.0000
  C   C77       1.0  0.59295  0.16968  0.35217  1.0000
  C   C78       1.0  0.90705  0.83032  0.85217  1.0000
  C   C79       1.0  0.40705  0.66968  0.14783  1.0000
  C   C80       1.0  0.09295  0.33032  0.64783  1.0000
  C   C81       1.0  0.42015  0.81534  0.70237  1.0000
  C   C82       1.0  0.07985  0.18466  0.20237  1.0000
  C   C83       1.0  0.57985  0.31534  0.79763  1.0000
  C   C84       1.0  0.92015  0.68466  0.29763  1.0000
  C   C85       1.0  0.57985  0.18466  0.29763  1.0000
  C   C86       1.0  0.92015  0.81534  0.79763  1.0000
  C   C87       1.0  0.42015  0.68466  0.20237  1.0000
  C   C88       1.0  0.07985  0.31534  0.70237  1.0000
  H   H49       1.0  0.45690  0.86770  0.72010  1.0000
  H   H50       1.0  0.04310  0.13230  0.22010  1.0000
  H   H51       1.0  0.54310  0.36770  0.77990  1.0000
  H   H52       1.0  0.95690  0.63230  0.27990  1.0000
  H   H53       1.0  0.54310  0.13230  0.27990  1.0000
  H   H54       1.0  0.95690  0.86770  0.77990  1.0000
  H   H55       1.0  0.45690  0.63230  0.22010  1.0000
  H   H56       1.0  0.04310  0.36770  0.72010  1.0000
  C   C89       1.0  0.37797  0.72175  0.72996  1.0000
  C   C90       1.0  0.12203  0.27825  0.22996  1.0000
  C   C91       1.0  0.62203  0.22175  0.77004  1.0000
  C   C92       1.0  0.87797  0.77825  0.27004  1.0000
  C   C93       1.0  0.62203  0.27825  0.27004  1.0000
  C   C94       1.0  0.87797  0.72175  0.77004  1.0000
  C   C95       1.0  0.37797  0.77825  0.22996  1.0000
  C   C96       1.0  0.12203  0.22175  0.72996  1.0000
  C   C97       1.0  0.32103  0.64713  0.70344  1.0000
  C   C98       1.0  0.17897  0.35287  0.20344  1.0000
  C   C99       1.0  0.67897  0.14713  0.79656  1.0000
  C   C100      1.0  0.82103  0.85287  0.29656  1.0000
  C   C101      1.0  0.67897  0.35287  0.29656  1.0000
  C   C102      1.0  0.82103  0.64713  0.79656  1.0000
  C   C103      1.0  0.32103  0.85287  0.20344  1.0000
  C   C104      1.0  0.17897  0.14713  0.70344  1.0000
  H   H57       1.0  0.29180  0.58660  0.72230  1.0000
  H   H58       1.0  0.20820  0.41340  0.22230  1.0000
  H   H59       1.0  0.70820  0.08660  0.77770  1.0000
  H   H60       1.0  0.79180  0.91340  0.27770  1.0000
  H   H61       1.0  0.70820  0.41340  0.27770  1.0000
  H   H62       1.0  0.79180  0.58660  0.77770  1.0000
  H   H63       1.0  0.29180  0.91340  0.22230  1.0000
  H   H64       1.0  0.20820  0.08660  0.72230  1.0000
  C   C105      1.0  0.16872  0.37240  0.45314  1.0000
  C   C106      1.0  0.33128  0.62760  0.95314  1.0000
  C   C107      1.0  0.83128  0.87240  0.04686  1.0000
  C   C108      1.0  0.66872  0.12760  0.54686  1.0000
  C   C109      1.0  0.83128  0.62760  0.54686  1.0000
  C   C110      1.0  0.66872  0.37240  0.04686  1.0000
  C   C111      1.0  0.16872  0.12760  0.95314  1.0000
  C   C112      1.0  0.33128  0.87240  0.45314  1.0000
  C   C113      1.0  0.43189  0.25180  0.54538  1.0000
  C   C114      1.0  0.06811  0.74820  0.04538  1.0000
  C   C115      1.0  0.56811  0.75180  0.95462  1.0000
  C   C116      1.0  0.93189  0.24820  0.45462  1.0000
  C   C117      1.0  0.56811  0.74820  0.45462  1.0000
  C   C118      1.0  0.93189  0.25180  0.95462  1.0000
  C   C119      1.0  0.43189  0.24820  0.04538  1.0000
  C   C120      1.0  0.06811  0.75180  0.54538  1.0000
  C   C121      1.0  0.45326  0.92912  0.61681  1.0000
  C   C122      1.0  0.04674  0.07088  0.11681  1.0000
  C   C123      1.0  0.54674  0.42912  0.88319  1.0000
  C   C124      1.0  0.95326  0.57088  0.38319  1.0000
  C   C125      1.0  0.54674  0.07088  0.38319  1.0000
  C   C126      1.0  0.95326  0.92912  0.88319  1.0000
  C   C127      1.0  0.45326  0.57088  0.11681  1.0000
  C   C128      1.0  0.04674  0.42912  0.61681  1.0000
  C   C129      1.0  0.39444  0.69655  0.78732  1.0000
  C   C130      1.0  0.10556  0.30345  0.28732  1.0000
  C   C131      1.0  0.60556  0.19655  0.71268  1.0000
  C   C132      1.0  0.89444  0.80345  0.21268  1.0000
  C   C133      1.0  0.60556  0.30345  0.21268  1.0000
  C   C134      1.0  0.89444  0.69655  0.71268  1.0000
  C   C135      1.0  0.39444  0.80345  0.28732  1.0000
  C   C136      1.0  0.10556  0.19655  0.78732  1.0000
