data_image0
_chemical_formula_structural       In18O108N36O36C36H36C144H36C36H36C36
_chemical_formula_sum              "In18 O144 N36 C252 H108"
_cell_length_a       15.7001
_cell_length_b       15.7001
_cell_length_c       52.849
_cell_angle_alpha    90
_cell_angle_beta     90
_cell_angle_gamma    120

_space_group_name_H-M_alt    "P 1"
_space_group_IT_number       1

loop_
  _space_group_symop_operation_xyz
  'x, y, z'

loop_
  _atom_site_type_symbol
  _atom_site_label
  _atom_site_symmetry_multiplicity
  _atom_site_fract_x
  _atom_site_fract_y
  _atom_site_fract_z
  _atom_site_occupancy
  In  In1       1.0  0.66667  0.86554  0.58333  1.0000
  In  In2       1.0  0.13446  0.80113  0.58333  1.0000
  In  In3       1.0  0.19887  0.33333  0.58333  1.0000
  In  In4       1.0  0.80113  0.13446  0.91667  1.0000
  In  In5       1.0  0.33333  0.19887  0.91667  1.0000
  In  In6       1.0  0.86554  0.66667  0.91667  1.0000
  In  In7       1.0  0.46780  0.46779  0.25000  1.0000
  In  In8       1.0  1.00000  0.53220  0.25000  1.0000
  In  In9       1.0  0.53221  0.00000  0.25000  1.0000
  In  In10      1.0  0.33333  0.13446  0.41667  1.0000
  In  In11      1.0  0.86554  0.19887  0.41667  1.0000
  In  In12      1.0  0.80113  0.66667  0.41667  1.0000
  In  In13      1.0  0.19887  0.86554  0.08333  1.0000
  In  In14      1.0  0.66667  0.80113  0.08333  1.0000
  In  In15      1.0  0.13446  0.33333  0.08333  1.0000
  In  In16      1.0  0.53220  0.53221  0.75000  1.0000
  In  In17      1.0  0.00000  0.46780  0.75000  1.0000
  In  In18      1.0  0.46779  1.00000  0.75000  1.0000
  O   O1        1.0  0.54964  0.71420  0.58573  1.0000
  O   O2        1.0  0.28580  0.83544  0.58573  1.0000
  O   O3        1.0  0.16456  0.45036  0.58573  1.0000
  O   O4        1.0  0.83544  0.28580  0.91427  1.0000
  O   O5        1.0  0.45036  0.16456  0.91427  1.0000
  O   O6        1.0  0.71420  0.54964  0.91427  1.0000
  O   O7        1.0  0.21631  0.04753  0.91906  1.0000
  O   O8        1.0  0.95247  0.16877  0.91906  1.0000
  O   O9        1.0  0.83123  0.78369  0.91906  1.0000
  O   O10       1.0  0.50211  0.61913  0.24760  1.0000
  O   O11       1.0  0.11703  0.49789  0.24760  1.0000
  O   O12       1.0  0.38087  0.88297  0.24760  1.0000
  O   O13       1.0  0.88297  0.38087  0.25240  1.0000
  O   O14       1.0  0.61913  0.50211  0.25240  1.0000
  O   O15       1.0  0.49789  0.11703  0.25240  1.0000
  O   O16       1.0  0.16877  0.95247  0.58094  1.0000
  O   O17       1.0  0.78369  0.83123  0.58094  1.0000
  O   O18       1.0  0.04753  0.21631  0.58094  1.0000
  O   O19       1.0  0.45036  0.28580  0.41427  1.0000
  O   O20       1.0  0.71420  0.16456  0.41427  1.0000
  O   O21       1.0  0.83544  0.54964  0.41427  1.0000
  O   O22       1.0  0.16456  0.71420  0.08573  1.0000
  O   O23       1.0  0.54964  0.83544  0.08573  1.0000
  O   O24       1.0  0.28580  0.45036  0.08573  1.0000
  O   O25       1.0  0.78369  0.95247  0.08094  1.0000
  O   O26       1.0  0.04753  0.83123  0.08094  1.0000
  O   O27       1.0  0.16877  0.21631  0.08094  1.0000
  O   O28       1.0  0.49789  0.38087  0.75240  1.0000
  O   O29       1.0  0.88297  0.50211  0.75240  1.0000
  O   O30       1.0  0.61913  0.11703  0.75240  1.0000
  O   O31       1.0  0.11703  0.61913  0.74760  1.0000
  O   O32       1.0  0.38087  0.49789  0.74760  1.0000
  O   O33       1.0  0.50211  0.88297  0.74760  1.0000
  O   O34       1.0  0.83123  0.04753  0.41906  1.0000
  O   O35       1.0  0.21631  0.16877  0.41906  1.0000
  O   O36       1.0  0.95247  0.78369  0.41906  1.0000
  O   O37       1.0  0.20430  0.24705  0.61540  1.0000
  O   O38       1.0  0.75295  0.95725  0.61540  1.0000
  O   O39       1.0  0.04275  0.79570  0.61540  1.0000
  O   O40       1.0  0.95725  0.75295  0.88460  1.0000
  O   O41       1.0  0.79570  0.04275  0.88460  1.0000
  O   O42       1.0  0.24705  0.20430  0.88460  1.0000
  O   O43       1.0  0.87097  0.58038  0.94873  1.0000
  O   O44       1.0  0.41962  0.29058  0.94873  1.0000
  O   O45       1.0  0.70942  0.12903  0.94873  1.0000
  O   O46       1.0  0.62392  0.08628  0.21793  1.0000
  O   O47       1.0  0.46237  0.37608  0.21793  1.0000
  O   O48       1.0  0.91372  0.53763  0.21793  1.0000
  O   O49       1.0  0.53763  0.91372  0.28207  1.0000
  O   O50       1.0  0.08628  0.62392  0.28207  1.0000
  O   O51       1.0  0.37608  0.46237  0.28207  1.0000
  O   O52       1.0  0.29058  0.41962  0.55127  1.0000
  O   O53       1.0  0.12903  0.70942  0.55127  1.0000
  O   O54       1.0  0.58038  0.87097  0.55127  1.0000
  O   O55       1.0  0.79570  0.75295  0.38460  1.0000
  O   O56       1.0  0.24705  0.04275  0.38460  1.0000
  O   O57       1.0  0.95725  0.20430  0.38460  1.0000
  O   O58       1.0  0.04275  0.24705  0.11540  1.0000
  O   O59       1.0  0.20430  0.95725  0.11540  1.0000
  O   O60       1.0  0.75295  0.79570  0.11540  1.0000
  O   O61       1.0  0.12903  0.41962  0.05127  1.0000
  O   O62       1.0  0.58038  0.70942  0.05127  1.0000
  O   O63       1.0  0.29058  0.87097  0.05127  1.0000
  O   O64       1.0  0.37608  0.91372  0.78207  1.0000
  O   O65       1.0  0.53763  0.62392  0.78207  1.0000
  O   O66       1.0  0.08628  0.46237  0.78207  1.0000
  O   O67       1.0  0.46237  0.08628  0.71793  1.0000
  O   O68       1.0  0.91372  0.37608  0.71793  1.0000
  O   O69       1.0  0.62392  0.53763  0.71793  1.0000
  O   O70       1.0  0.70942  0.58038  0.44873  1.0000
  O   O71       1.0  0.87097  0.29058  0.44873  1.0000
  O   O72       1.0  0.41962  0.12903  0.44873  1.0000
  O   O73       1.0  0.61650  0.74377  0.62332  1.0000
  O   O74       1.0  0.25623  0.87273  0.62332  1.0000
  O   O75       1.0  0.12727  0.38350  0.62332  1.0000
  O   O76       1.0  0.87273  0.25623  0.87668  1.0000
  O   O77       1.0  0.38350  0.12727  0.87668  1.0000
  O   O78       1.0  0.74377  0.61650  0.87668  1.0000
  O   O79       1.0  0.28317  0.07710  0.95665  1.0000
  O   O80       1.0  0.92290  0.20606  0.95665  1.0000
  O   O81       1.0  0.79394  0.71683  0.95665  1.0000
  O   O82       1.0  0.53940  0.58956  0.21001  1.0000
  O   O83       1.0  0.05017  0.46060  0.21001  1.0000
  O   O84       1.0  0.41044  0.94983  0.21001  1.0000
  O   O85       1.0  0.94983  0.41044  0.28999  1.0000
  O   O86       1.0  0.58956  0.53940  0.28999  1.0000
  O   O87       1.0  0.46060  0.05017  0.28999  1.0000
  O   O88       1.0  0.20606  0.92290  0.54335  1.0000
  O   O89       1.0  0.71683  0.79394  0.54335  1.0000
  O   O90       1.0  0.07710  0.28317  0.54335  1.0000
  O   O91       1.0  0.38350  0.25623  0.37668  1.0000
  O   O92       1.0  0.74377  0.12727  0.37668  1.0000
  O   O93       1.0  0.87273  0.61650  0.37668  1.0000
  O   O94       1.0  0.12727  0.74377  0.12332  1.0000
  O   O95       1.0  0.61650  0.87273  0.12332  1.0000
  O   O96       1.0  0.25623  0.38350  0.12332  1.0000
  O   O97       1.0  0.71683  0.92290  0.04335  1.0000
  O   O98       1.0  0.07710  0.79394  0.04335  1.0000
  O   O99       1.0  0.20606  0.28317  0.04335  1.0000
  O   O100      1.0  0.46060  0.41044  0.78999  1.0000
  O   O101      1.0  0.94983  0.53940  0.78999  1.0000
  O   O102      1.0  0.58956  0.05017  0.78999  1.0000
  O   O103      1.0  0.05017  0.58956  0.71001  1.0000
  O   O104      1.0  0.41044  0.46060  0.71001  1.0000
  O   O105      1.0  0.53940  0.94983  0.71001  1.0000
  O   O106      1.0  0.79394  0.07710  0.45665  1.0000
  O   O107      1.0  0.28317  0.20606  0.45665  1.0000
  O   O108      1.0  0.92290  0.71683  0.45665  1.0000
  N   N1        1.0  0.33665  0.43288  0.60572  1.0000
  N   N2        1.0  0.56712  0.90377  0.60572  1.0000
  N   N3        1.0  0.09623  0.66335  0.60572  1.0000
  N   N4        1.0  0.90377  0.56712  0.89428  1.0000
  N   N5        1.0  0.66335  0.09623  0.89428  1.0000
  N   N6        1.0  0.43288  0.33665  0.89428  1.0000
  N   N7        1.0  0.00332  0.76621  0.93905  1.0000
  N   N8        1.0  0.23379  0.23710  0.93905  1.0000
  N   N9        1.0  0.76290  0.99668  0.93905  1.0000
  N   N10       1.0  0.57044  0.90045  0.22761  1.0000
  N   N11       1.0  0.33002  0.42956  0.22761  1.0000
  N   N12       1.0  0.09955  0.66998  0.22761  1.0000
  N   N13       1.0  0.66998  0.09955  0.27239  1.0000
  N   N14       1.0  0.90045  0.57044  0.27239  1.0000
  N   N15       1.0  0.42956  0.33002  0.27239  1.0000
  N   N16       1.0  0.23710  0.23379  0.56095  1.0000
  N   N17       1.0  0.99668  0.76290  0.56095  1.0000
  N   N18       1.0  0.76621  0.00332  0.56095  1.0000
  N   N19       1.0  0.66335  0.56712  0.39428  1.0000
  N   N20       1.0  0.43288  0.09623  0.39428  1.0000
  N   N21       1.0  0.90377  0.33665  0.39428  1.0000
  N   N22       1.0  0.09623  0.43288  0.10572  1.0000
  N   N23       1.0  0.33665  0.90377  0.10572  1.0000
  N   N24       1.0  0.56712  0.66335  0.10572  1.0000
  N   N25       1.0  0.99668  0.23379  0.06095  1.0000
  N   N26       1.0  0.76621  0.76290  0.06095  1.0000
  N   N27       1.0  0.23710  0.00332  0.06095  1.0000
  N   N28       1.0  0.42956  0.09955  0.77239  1.0000
  N   N29       1.0  0.66998  0.57044  0.77239  1.0000
  N   N30       1.0  0.90045  0.33002  0.77239  1.0000
  N   N31       1.0  0.33002  0.90045  0.72761  1.0000
  N   N32       1.0  0.09955  0.42956  0.72761  1.0000
  N   N33       1.0  0.57044  0.66998  0.72761  1.0000
  N   N34       1.0  0.76290  0.76621  0.43905  1.0000
  N   N35       1.0  0.00332  0.23710  0.43905  1.0000
  N   N36       1.0  0.23379  0.99668  0.43905  1.0000
  O   O109      1.0  0.26581  0.25657  0.65380  1.0000
  O   O110      1.0  0.74343  0.00924  0.65380  1.0000
  O   O111      1.0  0.99076  0.73419  0.65380  1.0000
  O   O112      1.0  0.00924  0.74343  0.84620  1.0000
  O   O113      1.0  0.73419  0.99076  0.84620  1.0000
  O   O114      1.0  0.25657  0.26581  0.84620  1.0000
  O   O115      1.0  0.93248  0.58990  0.98713  1.0000
  O   O116      1.0  0.41010  0.34257  0.98713  1.0000
  O   O117      1.0  0.65743  0.06752  0.98713  1.0000
  O   O118      1.0  0.67591  0.07676  0.17953  1.0000
  O   O119      1.0  0.40086  0.32409  0.17953  1.0000
  O   O120      1.0  0.92324  0.59914  0.17953  1.0000
  O   O121      1.0  0.59914  0.92324  0.32047  1.0000
  O   O122      1.0  0.07676  0.67591  0.32047  1.0000
  O   O123      1.0  0.32409  0.40086  0.32047  1.0000
  O   O124      1.0  0.34257  0.41010  0.51287  1.0000
  O   O125      1.0  0.06752  0.65743  0.51287  1.0000
  O   O126      1.0  0.58990  0.93248  0.51287  1.0000
  O   O127      1.0  0.73419  0.74343  0.34620  1.0000
  O   O128      1.0  0.25657  0.99076  0.34620  1.0000
  O   O129      1.0  0.00924  0.26581  0.34620  1.0000
  O   O130      1.0  0.99076  0.25657  0.15380  1.0000
  O   O131      1.0  0.26581  0.00924  0.15380  1.0000
  O   O132      1.0  0.74343  0.73419  0.15380  1.0000
  O   O133      1.0  0.06752  0.41010  0.01287  1.0000
  O   O134      1.0  0.58990  0.65743  0.01287  1.0000
  O   O135      1.0  0.34257  0.93248  0.01287  1.0000
  O   O136      1.0  0.32409  0.92324  0.82047  1.0000
  O   O137      1.0  0.59914  0.67591  0.82047  1.0000
  O   O138      1.0  0.07676  0.40086  0.82047  1.0000
  O   O139      1.0  0.40086  0.07676  0.67953  1.0000
  O   O140      1.0  0.92324  0.32409  0.67953  1.0000
  O   O141      1.0  0.67591  0.59914  0.67953  1.0000
  O   O142      1.0  0.65743  0.58990  0.48713  1.0000
  O   O143      1.0  0.93248  0.34257  0.48713  1.0000
  O   O144      1.0  0.41010  0.06752  0.48713  1.0000
  C   C1        1.0  0.40502  0.52625  0.59954  1.0000
  C   C2        1.0  0.47375  0.87877  0.59954  1.0000
  C   C3        1.0  0.12123  0.59498  0.59954  1.0000
  C   C4        1.0  0.87877  0.47375  0.90046  1.0000
  C   C5        1.0  0.59498  0.12123  0.90046  1.0000
  C   C6        1.0  0.52625  0.40502  0.90046  1.0000
  C   C7        1.0  0.07169  0.85958  0.93287  1.0000
  C   C8        1.0  0.14042  0.21210  0.93287  1.0000
  C   C9        1.0  0.78790  0.92831  0.93287  1.0000
  C   C10       1.0  0.54544  0.80708  0.23379  1.0000
  C   C11       1.0  0.26165  0.45456  0.23379  1.0000
  C   C12       1.0  0.19292  0.73835  0.23379  1.0000
  C   C13       1.0  0.73835  0.19292  0.26621  1.0000
  C   C14       1.0  0.80708  0.54544  0.26621  1.0000
  C   C15       1.0  0.45456  0.26165  0.26621  1.0000
  C   C16       1.0  0.21210  0.14042  0.56713  1.0000
  C   C17       1.0  0.92831  0.78790  0.56713  1.0000
  C   C18       1.0  0.85958  0.07169  0.56713  1.0000
  C   C19       1.0  0.59498  0.47375  0.40046  1.0000
  C   C20       1.0  0.52625  0.12123  0.40046  1.0000
  C   C21       1.0  0.87877  0.40502  0.40046  1.0000
  C   C22       1.0  0.12123  0.52625  0.09954  1.0000
  C   C23       1.0  0.40502  0.87877  0.09954  1.0000
  C   C24       1.0  0.47375  0.59498  0.09954  1.0000
  C   C25       1.0  0.92831  0.14042  0.06713  1.0000
  C   C26       1.0  0.85958  0.78790  0.06713  1.0000
  C   C27       1.0  0.21210  0.07169  0.06713  1.0000
  C   C28       1.0  0.45456  0.19292  0.76621  1.0000
  C   C29       1.0  0.73835  0.54544  0.76621  1.0000
  C   C30       1.0  0.80708  0.26165  0.76621  1.0000
  C   C31       1.0  0.26165  0.80708  0.73379  1.0000
  C   C32       1.0  0.19292  0.45456  0.73379  1.0000
  C   C33       1.0  0.54544  0.73835  0.73379  1.0000
  C   C34       1.0  0.78790  0.85958  0.43287  1.0000
  C   C35       1.0  0.07169  0.21210  0.43287  1.0000
  C   C36       1.0  0.14042  0.92831  0.43287  1.0000
  H   H1        1.0  0.40043  0.55143  0.58400  1.0000
  H   H2        1.0  0.44857  0.84900  0.58400  1.0000
  H   H3        1.0  0.15100  0.59957  0.58400  1.0000
  H   H4        1.0  0.84900  0.44857  0.91600  1.0000
  H   H5        1.0  0.59957  0.15100  0.91600  1.0000
  H   H6        1.0  0.55143  0.40043  0.91600  1.0000
  H   H7        1.0  0.06710  0.88476  0.91733  1.0000
  H   H8        1.0  0.11524  0.18233  0.91733  1.0000
  H   H9        1.0  0.81767  0.93290  0.91733  1.0000
  H   H10       1.0  0.51567  0.78190  0.24933  1.0000
  H   H11       1.0  0.26624  0.48433  0.24933  1.0000
  H   H12       1.0  0.21810  0.73376  0.24933  1.0000
  H   H13       1.0  0.73376  0.21810  0.25067  1.0000
  H   H14       1.0  0.78190  0.51567  0.25067  1.0000
  H   H15       1.0  0.48433  0.26624  0.25067  1.0000
  H   H16       1.0  0.18233  0.11524  0.58267  1.0000
  H   H17       1.0  0.93290  0.81767  0.58267  1.0000
  H   H18       1.0  0.88476  0.06710  0.58267  1.0000
  H   H19       1.0  0.59957  0.44857  0.41600  1.0000
  H   H20       1.0  0.55143  0.15100  0.41600  1.0000
  H   H21       1.0  0.84900  0.40043  0.41600  1.0000
  H   H22       1.0  0.15100  0.55143  0.08400  1.0000
  H   H23       1.0  0.40043  0.84900  0.08400  1.0000
  H   H24       1.0  0.44857  0.59957  0.08400  1.0000
  H   H25       1.0  0.93290  0.11524  0.08267  1.0000
  H   H26       1.0  0.88476  0.81767  0.08267  1.0000
  H   H27       1.0  0.18233  0.06710  0.08267  1.0000
  H   H28       1.0  0.48433  0.21810  0.75067  1.0000
  H   H29       1.0  0.73376  0.51567  0.75067  1.0000
  H   H30       1.0  0.78190  0.26624  0.75067  1.0000
  H   H31       1.0  0.26624  0.78190  0.74933  1.0000
  H   H32       1.0  0.21810  0.48433  0.74933  1.0000
  H   H33       1.0  0.51567  0.73376  0.74933  1.0000
  H   H34       1.0  0.81767  0.88476  0.41733  1.0000
  H   H35       1.0  0.06710  0.18233  0.41733  1.0000
  H   H36       1.0  0.11524  0.93290  0.41733  1.0000
  C   C37       1.0  0.55488  0.68877  0.60821  1.0000
  C   C38       1.0  0.31123  0.86611  0.60821  1.0000
  C   C39       1.0  0.13389  0.44512  0.60821  1.0000
  C   C40       1.0  0.86611  0.31123  0.89179  1.0000
  C   C41       1.0  0.44512  0.13389  0.89179  1.0000
  C   C42       1.0  0.68877  0.55488  0.89179  1.0000
  C   C43       1.0  0.22155  0.02210  0.94154  1.0000
  C   C44       1.0  0.97790  0.19944  0.94154  1.0000
  C   C45       1.0  0.80056  0.77845  0.94154  1.0000
  C   C46       1.0  0.53278  0.64456  0.22512  1.0000
  C   C47       1.0  0.11179  0.46722  0.22512  1.0000
  C   C48       1.0  0.35544  0.88821  0.22512  1.0000
  C   C49       1.0  0.88821  0.35544  0.27488  1.0000
  C   C50       1.0  0.64456  0.53278  0.27488  1.0000
  C   C51       1.0  0.46722  0.11179  0.27488  1.0000
  C   C52       1.0  0.19944  0.97790  0.55846  1.0000
  C   C53       1.0  0.77845  0.80056  0.55846  1.0000
  C   C54       1.0  0.02210  0.22155  0.55846  1.0000
  C   C55       1.0  0.44512  0.31123  0.39179  1.0000
  C   C56       1.0  0.68877  0.13389  0.39179  1.0000
  C   C57       1.0  0.86611  0.55488  0.39179  1.0000
  C   C58       1.0  0.13389  0.68877  0.10821  1.0000
  C   C59       1.0  0.55488  0.86611  0.10821  1.0000
  C   C60       1.0  0.31123  0.44512  0.10821  1.0000
  C   C61       1.0  0.77845  0.97790  0.05846  1.0000
  C   C62       1.0  0.02210  0.80056  0.05846  1.0000
  C   C63       1.0  0.19944  0.22155  0.05846  1.0000
  C   C64       1.0  0.46722  0.35544  0.77488  1.0000
  C   C65       1.0  0.88821  0.53278  0.77488  1.0000
  C   C66       1.0  0.64456  0.11179  0.77488  1.0000
  C   C67       1.0  0.11179  0.64456  0.72512  1.0000
  C   C68       1.0  0.35544  0.46722  0.72512  1.0000
  C   C69       1.0  0.53278  0.88821  0.72512  1.0000
  C   C70       1.0  0.80056  0.02210  0.44154  1.0000
  C   C71       1.0  0.22155  0.19944  0.44154  1.0000
  C   C72       1.0  0.97790  0.77845  0.44154  1.0000
  C   C73       1.0  0.48107  0.58496  0.61558  1.0000
  C   C74       1.0  0.41504  0.89611  0.61558  1.0000
  C   C75       1.0  0.10389  0.51893  0.61558  1.0000
  C   C76       1.0  0.89611  0.41504  0.88442  1.0000
  C   C77       1.0  0.51893  0.10389  0.88442  1.0000
  C   C78       1.0  0.58496  0.48107  0.88442  1.0000
  C   C79       1.0  0.14774  0.91829  0.94891  1.0000
  C   C80       1.0  0.08171  0.22944  0.94891  1.0000
  C   C81       1.0  0.77056  0.85226  0.94891  1.0000
  C   C82       1.0  0.56278  0.74837  0.21775  1.0000
  C   C83       1.0  0.18560  0.43722  0.21775  1.0000
  C   C84       1.0  0.25163  0.81440  0.21775  1.0000
  C   C85       1.0  0.81440  0.25163  0.28225  1.0000
  C   C86       1.0  0.74837  0.56278  0.28225  1.0000
  C   C87       1.0  0.43722  0.18560  0.28225  1.0000
  C   C88       1.0  0.22944  0.08171  0.55109  1.0000
  C   C89       1.0  0.85226  0.77056  0.55109  1.0000
  C   C90       1.0  0.91829  0.14774  0.55109  1.0000
  C   C91       1.0  0.51893  0.41504  0.38442  1.0000
  C   C92       1.0  0.58496  0.10389  0.38442  1.0000
  C   C93       1.0  0.89611  0.48107  0.38442  1.0000
  C   C94       1.0  0.10389  0.58496  0.11558  1.0000
  C   C95       1.0  0.48107  0.89611  0.11558  1.0000
  C   C96       1.0  0.41504  0.51893  0.11558  1.0000
  C   C97       1.0  0.85226  0.08171  0.05109  1.0000
  C   C98       1.0  0.91829  0.77056  0.05109  1.0000
  C   C99       1.0  0.22944  0.14774  0.05109  1.0000
  C   C100      1.0  0.43722  0.25163  0.78225  1.0000
  C   C101      1.0  0.81440  0.56278  0.78225  1.0000
  C   C102      1.0  0.74837  0.18560  0.78225  1.0000
  C   C103      1.0  0.18560  0.74837  0.71775  1.0000
  C   C104      1.0  0.25163  0.43722  0.71775  1.0000
  C   C105      1.0  0.56278  0.81440  0.71775  1.0000
  C   C106      1.0  0.77056  0.91829  0.44891  1.0000
  C   C107      1.0  0.14774  0.22944  0.44891  1.0000
  C   C108      1.0  0.08171  0.85226  0.44891  1.0000
  C   C109      1.0  0.34394  0.39730  0.62802  1.0000
  C   C110      1.0  0.60270  0.94664  0.62802  1.0000
  C   C111      1.0  0.05336  0.65606  0.62802  1.0000
  C   C112      1.0  0.94664  0.60270  0.87198  1.0000
  C   C113      1.0  0.65606  0.05336  0.87198  1.0000
  C   C114      1.0  0.39730  0.34394  0.87198  1.0000
  C   C115      1.0  0.01061  0.73063  0.96135  1.0000
  C   C116      1.0  0.26937  0.27997  0.96135  1.0000
  C   C117      1.0  0.72003  0.98939  0.96135  1.0000
  C   C118      1.0  0.61331  0.93603  0.20531  1.0000
  C   C119      1.0  0.32273  0.38669  0.20531  1.0000
  C   C120      1.0  0.06397  0.67727  0.20531  1.0000
  C   C121      1.0  0.67727  0.06397  0.29469  1.0000
  C   C122      1.0  0.93603  0.61331  0.29469  1.0000
  C   C123      1.0  0.38669  0.32273  0.29469  1.0000
  C   C124      1.0  0.27997  0.26937  0.53865  1.0000
  C   C125      1.0  0.98939  0.72003  0.53865  1.0000
  C   C126      1.0  0.73063  0.01061  0.53865  1.0000
  C   C127      1.0  0.65606  0.60270  0.37198  1.0000
  C   C128      1.0  0.39730  0.05336  0.37198  1.0000
  C   C129      1.0  0.94664  0.34394  0.37198  1.0000
  C   C130      1.0  0.05336  0.39730  0.12802  1.0000
  C   C131      1.0  0.34394  0.94664  0.12802  1.0000
  C   C132      1.0  0.60270  0.65606  0.12802  1.0000
  C   C133      1.0  0.98939  0.26937  0.03865  1.0000
  C   C134      1.0  0.73063  0.72003  0.03865  1.0000
  C   C135      1.0  0.27997  0.01061  0.03865  1.0000
  C   C136      1.0  0.38669  0.06397  0.79469  1.0000
  C   C137      1.0  0.67727  0.61331  0.79469  1.0000
  C   C138      1.0  0.93603  0.32273  0.79469  1.0000
  C   C139      1.0  0.32273  0.93603  0.70531  1.0000
  C   C140      1.0  0.06397  0.38669  0.70531  1.0000
  C   C141      1.0  0.61331  0.67727  0.70531  1.0000
  C   C142      1.0  0.72003  0.73063  0.46135  1.0000
  C   C143      1.0  0.01061  0.27997  0.46135  1.0000
  C   C144      1.0  0.26937  0.98939  0.46135  1.0000
  C   C145      1.0  0.48670  0.54730  0.63851  1.0000
  C   C146      1.0  0.45270  0.93940  0.63851  1.0000
  C   C147      1.0  0.06060  0.51330  0.63851  1.0000
  C   C148      1.0  0.93940  0.45270  0.86149  1.0000
  C   C149      1.0  0.51330  0.06060  0.86149  1.0000
  C   C150      1.0  0.54730  0.48670  0.86149  1.0000
  C   C151      1.0  0.15337  0.88063  0.97184  1.0000
  C   C152      1.0  0.11937  0.27273  0.97184  1.0000
  C   C153      1.0  0.72727  0.84663  0.97184  1.0000
  C   C154      1.0  0.60607  0.78603  0.19482  1.0000
  C   C155      1.0  0.17997  0.39393  0.19482  1.0000
  C   C156      1.0  0.21397  0.82003  0.19482  1.0000
  C   C157      1.0  0.82003  0.21397  0.30518  1.0000
  C   C158      1.0  0.78603  0.60607  0.30518  1.0000
  C   C159      1.0  0.39393  0.17997  0.30518  1.0000
  C   C160      1.0  0.27273  0.11937  0.52816  1.0000
  C   C161      1.0  0.84663  0.72727  0.52816  1.0000
  C   C162      1.0  0.88063  0.15337  0.52816  1.0000
  C   C163      1.0  0.51330  0.45270  0.36149  1.0000
  C   C164      1.0  0.54730  0.06060  0.36149  1.0000
  C   C165      1.0  0.93940  0.48670  0.36149  1.0000
  C   C166      1.0  0.06060  0.54730  0.13851  1.0000
  C   C167      1.0  0.48670  0.93940  0.13851  1.0000
  C   C168      1.0  0.45270  0.51330  0.13851  1.0000
  C   C169      1.0  0.84663  0.11937  0.02816  1.0000
  C   C170      1.0  0.88063  0.72727  0.02816  1.0000
  C   C171      1.0  0.27273  0.15337  0.02816  1.0000
  C   C172      1.0  0.39393  0.21397  0.80518  1.0000
  C   C173      1.0  0.82003  0.60607  0.80518  1.0000
  C   C174      1.0  0.78603  0.17997  0.80518  1.0000
  C   C175      1.0  0.17997  0.78603  0.69482  1.0000
  C   C176      1.0  0.21397  0.39393  0.69482  1.0000
  C   C177      1.0  0.60607  0.82003  0.69482  1.0000
  C   C178      1.0  0.72727  0.88063  0.47184  1.0000
  C   C179      1.0  0.15337  0.27273  0.47184  1.0000
  C   C180      1.0  0.11937  0.84663  0.47184  1.0000
  H   H37       1.0  0.53703  0.58594  0.64973  1.0000
  H   H38       1.0  0.41406  0.95109  0.64973  1.0000
  H   H39       1.0  0.04891  0.46297  0.64973  1.0000
  H   H40       1.0  0.95109  0.41406  0.85027  1.0000
  H   H41       1.0  0.46297  0.04891  0.85027  1.0000
  H   H42       1.0  0.58594  0.53703  0.85027  1.0000
  H   H43       1.0  0.20370  0.91927  0.98306  1.0000
  H   H44       1.0  0.08073  0.28442  0.98306  1.0000
  H   H45       1.0  0.71558  0.79630  0.98306  1.0000
  H   H46       1.0  0.61776  0.74739  0.18360  1.0000
  H   H47       1.0  0.12964  0.38224  0.18360  1.0000
  H   H48       1.0  0.25261  0.87036  0.18360  1.0000
  H   H49       1.0  0.87036  0.25261  0.31640  1.0000
  H   H50       1.0  0.74739  0.61776  0.31640  1.0000
  H   H51       1.0  0.38224  0.12964  0.31640  1.0000
  H   H52       1.0  0.28442  0.08073  0.51694  1.0000
  H   H53       1.0  0.79630  0.71558  0.51694  1.0000
  H   H54       1.0  0.91927  0.20370  0.51694  1.0000
  H   H55       1.0  0.46297  0.41406  0.35027  1.0000
  H   H56       1.0  0.58594  0.04891  0.35027  1.0000
  H   H57       1.0  0.95109  0.53703  0.35027  1.0000
  H   H58       1.0  0.04891  0.58594  0.14973  1.0000
  H   H59       1.0  0.53703  0.95109  0.14973  1.0000
  H   H60       1.0  0.41406  0.46297  0.14973  1.0000
  H   H61       1.0  0.79630  0.08073  0.01694  1.0000
  H   H62       1.0  0.91927  0.71558  0.01694  1.0000
  H   H63       1.0  0.28442  0.20370  0.01694  1.0000
  H   H64       1.0  0.38224  0.25261  0.81640  1.0000
  H   H65       1.0  0.87036  0.61776  0.81640  1.0000
  H   H66       1.0  0.74739  0.12964  0.81640  1.0000
  H   H67       1.0  0.12964  0.74739  0.68360  1.0000
  H   H68       1.0  0.25261  0.38224  0.68360  1.0000
  H   H69       1.0  0.61776  0.87036  0.68360  1.0000
  H   H70       1.0  0.71558  0.91927  0.48306  1.0000
  H   H71       1.0  0.20370  0.28442  0.48306  1.0000
  H   H72       1.0  0.08073  0.79630  0.48306  1.0000
  C   C181      1.0  0.41730  0.45140  0.64500  1.0000
  C   C182      1.0  0.54860  0.96590  0.64500  1.0000
  C   C183      1.0  0.03410  0.58270  0.64500  1.0000
  C   C184      1.0  0.96590  0.54860  0.85500  1.0000
  C   C185      1.0  0.58270  0.03410  0.85500  1.0000
  C   C186      1.0  0.45140  0.41730  0.85500  1.0000
  C   C187      1.0  0.08397  0.78473  0.97833  1.0000
  C   C188      1.0  0.21527  0.29923  0.97833  1.0000
  C   C189      1.0  0.70077  0.91603  0.97833  1.0000
  C   C190      1.0  0.63257  0.88193  0.18833  1.0000
  C   C191      1.0  0.24937  0.36743  0.18833  1.0000
  C   C192      1.0  0.11807  0.75063  0.18833  1.0000
  C   C193      1.0  0.75063  0.11807  0.31167  1.0000
  C   C194      1.0  0.88193  0.63257  0.31167  1.0000
  C   C195      1.0  0.36743  0.24937  0.31167  1.0000
  C   C196      1.0  0.29923  0.21527  0.52167  1.0000
  C   C197      1.0  0.91603  0.70077  0.52167  1.0000
  C   C198      1.0  0.78473  0.08397  0.52167  1.0000
  C   C199      1.0  0.58270  0.54860  0.35500  1.0000
  C   C200      1.0  0.45140  0.03410  0.35500  1.0000
  C   C201      1.0  0.96590  0.41730  0.35500  1.0000
  C   C202      1.0  0.03410  0.45140  0.14500  1.0000
  C   C203      1.0  0.41730  0.96590  0.14500  1.0000
  C   C204      1.0  0.54860  0.58270  0.14500  1.0000
  C   C205      1.0  0.91603  0.21527  0.02167  1.0000
  C   C206      1.0  0.78473  0.70077  0.02167  1.0000
  C   C207      1.0  0.29923  0.08397  0.02167  1.0000
  C   C208      1.0  0.36743  0.11807  0.81167  1.0000
  C   C209      1.0  0.75063  0.63257  0.81167  1.0000
  C   C210      1.0  0.88193  0.24937  0.81167  1.0000
  C   C211      1.0  0.24937  0.88193  0.68833  1.0000
  C   C212      1.0  0.11807  0.36743  0.68833  1.0000
  C   C213      1.0  0.63257  0.75063  0.68833  1.0000
  C   C214      1.0  0.70077  0.78473  0.47833  1.0000
  C   C215      1.0  0.08397  0.29923  0.47833  1.0000
  C   C216      1.0  0.21527  0.91603  0.47833  1.0000
  H   H73       1.0  0.42064  0.42478  0.66043  1.0000
  H   H74       1.0  0.57522  0.99586  0.66043  1.0000
  H   H75       1.0  0.00414  0.57936  0.66043  1.0000
  H   H76       1.0  0.99586  0.57522  0.83957  1.0000
  H   H77       1.0  0.57936  0.00414  0.83957  1.0000
  H   H78       1.0  0.42478  0.42064  0.83957  1.0000
  H   H79       1.0  0.08731  0.75811  0.99376  1.0000
  H   H80       1.0  0.24189  0.32919  0.99376  1.0000
  H   H81       1.0  0.67081  0.91269  0.99376  1.0000
  H   H82       1.0  0.66253  0.90855  0.17290  1.0000
  H   H83       1.0  0.24603  0.33747  0.17290  1.0000
  H   H84       1.0  0.09145  0.75397  0.17290  1.0000
  H   H85       1.0  0.75397  0.09145  0.32710  1.0000
  H   H86       1.0  0.90855  0.66253  0.32710  1.0000
  H   H87       1.0  0.33747  0.24603  0.32710  1.0000
  H   H88       1.0  0.32919  0.24189  0.50624  1.0000
  H   H89       1.0  0.91269  0.67081  0.50624  1.0000
  H   H90       1.0  0.75811  0.08731  0.50624  1.0000
  H   H91       1.0  0.57936  0.57522  0.33957  1.0000
  H   H92       1.0  0.42478  0.00414  0.33957  1.0000
  H   H93       1.0  0.99586  0.42064  0.33957  1.0000
  H   H94       1.0  0.00414  0.42478  0.16043  1.0000
  H   H95       1.0  0.42064  0.99586  0.16043  1.0000
  H   H96       1.0  0.57522  0.57936  0.16043  1.0000
  H   H97       1.0  0.91269  0.24189  0.00624  1.0000
  H   H98       1.0  0.75811  0.67081  0.00624  1.0000
  H   H99       1.0  0.32919  0.08731  0.00624  1.0000
  H   H100      1.0  0.33747  0.09145  0.82710  1.0000
  H   H101      1.0  0.75397  0.66253  0.82710  1.0000
  H   H102      1.0  0.90855  0.24603  0.82710  1.0000
  H   H103      1.0  0.24603  0.90855  0.67290  1.0000
  H   H104      1.0  0.09145  0.33747  0.67290  1.0000
  H   H105      1.0  0.66253  0.75397  0.67290  1.0000
  H   H106      1.0  0.67081  0.75811  0.49376  1.0000
  H   H107      1.0  0.08731  0.32919  0.49376  1.0000
  H   H108      1.0  0.24189  0.91269  0.49376  1.0000
  C   C217      1.0  0.26510  0.29139  0.63305  1.0000
  C   C218      1.0  0.70861  0.97371  0.63305  1.0000
  C   C219      1.0  0.02629  0.73490  0.63305  1.0000
  C   C220      1.0  0.97371  0.70861  0.86695  1.0000
  C   C221      1.0  0.73490  0.02629  0.86695  1.0000
  C   C222      1.0  0.29139  0.26510  0.86695  1.0000
  C   C223      1.0  0.93177  0.62472  0.96638  1.0000
  C   C224      1.0  0.37528  0.30704  0.96638  1.0000
  C   C225      1.0  0.69296  0.06823  0.96638  1.0000
  C   C226      1.0  0.64038  0.04194  0.20028  1.0000
  C   C227      1.0  0.40157  0.35962  0.20028  1.0000
  C   C228      1.0  0.95806  0.59843  0.20028  1.0000
  C   C229      1.0  0.59843  0.95806  0.29972  1.0000
  C   C230      1.0  0.04194  0.64038  0.29972  1.0000
  C   C231      1.0  0.35962  0.40157  0.29972  1.0000
  C   C232      1.0  0.30704  0.37528  0.53362  1.0000
  C   C233      1.0  0.06823  0.69296  0.53362  1.0000
  C   C234      1.0  0.62472  0.93177  0.53362  1.0000
  C   C235      1.0  0.73490  0.70861  0.36695  1.0000
  C   C236      1.0  0.29139  0.02629  0.36695  1.0000
  C   C237      1.0  0.97371  0.26510  0.36695  1.0000
  C   C238      1.0  0.02629  0.29139  0.13305  1.0000
  C   C239      1.0  0.26510  0.97371  0.13305  1.0000
  C   C240      1.0  0.70861  0.73490  0.13305  1.0000
  C   C241      1.0  0.06823  0.37528  0.03362  1.0000
  C   C242      1.0  0.62472  0.69296  0.03362  1.0000
  C   C243      1.0  0.30704  0.93177  0.03362  1.0000
  C   C244      1.0  0.35962  0.95806  0.79972  1.0000
  C   C245      1.0  0.59843  0.64038  0.79972  1.0000
  C   C246      1.0  0.04194  0.40157  0.79972  1.0000
  C   C247      1.0  0.40157  0.04194  0.70028  1.0000
  C   C248      1.0  0.95806  0.35962  0.70028  1.0000
  C   C249      1.0  0.64038  0.59843  0.70028  1.0000
  C   C250      1.0  0.69296  0.62472  0.46638  1.0000
  C   C251      1.0  0.93177  0.30704  0.46638  1.0000
  C   C252      1.0  0.37528  0.06823  0.46638  1.0000
