data_image0
_chemical_formula_structural       Co18O108C108O36H36O36H36O36H36Co66O288C252O36H36O36H36O36H36O36H36O36H36O36H36O36H36Co54O72C72O36H72Co6
_chemical_formula_sum              "Co144 O864 C432 H432"
_cell_length_a       29.5653
_cell_length_b       29.5653
_cell_length_c       39.474
_cell_angle_alpha    90
_cell_angle_beta     90
_cell_angle_gamma    120

_space_group_name_H-M_alt    "P 1"
_space_group_IT_number       1

loop_
  _space_group_symop_operation_xyz
  'x, y, z'

loop_
  _atom_site_type_symbol
  _atom_site_label
  _atom_site_symmetry_multiplicity
  _atom_site_fract_x
  _atom_site_fract_y
  _atom_site_fract_z
  _atom_site_occupancy
  Co  Co1       1.0  0.16356  0.16356  0.25000  1.0000
  Co  Co2       1.0  0.83644  0.00000  0.25000  1.0000
  Co  Co3       1.0  0.00000  0.83644  0.25000  1.0000
  Co  Co4       1.0  0.83023  0.49689  0.58333  1.0000
  Co  Co5       1.0  0.50311  0.33333  0.58333  1.0000
  Co  Co6       1.0  0.66667  0.16977  0.58333  1.0000
  Co  Co7       1.0  0.49689  0.83023  0.91667  1.0000
  Co  Co8       1.0  0.16977  0.66667  0.91667  1.0000
  Co  Co9       1.0  0.33333  0.50311  0.91667  1.0000
  Co  Co10      1.0  0.83644  0.83644  0.75000  1.0000
  Co  Co11      1.0  0.16356  0.00000  0.75000  1.0000
  Co  Co12      1.0  0.00000  0.16356  0.75000  1.0000
  Co  Co13      1.0  0.16977  0.50311  0.41667  1.0000
  Co  Co14      1.0  0.49689  0.66667  0.41667  1.0000
  Co  Co15      1.0  0.33333  0.83023  0.41667  1.0000
  Co  Co16      1.0  0.50311  0.16977  0.08333  1.0000
  Co  Co17      1.0  0.83023  0.33333  0.08333  1.0000
  Co  Co18      1.0  0.66667  0.49689  0.08333  1.0000
  O   O1        1.0  0.13319  0.09626  0.22053  1.0000
  O   O2        1.0  0.90374  0.03693  0.22053  1.0000
  O   O3        1.0  0.96307  0.86681  0.22053  1.0000
  O   O4        1.0  0.09626  0.13319  0.27947  1.0000
  O   O5        1.0  0.03693  0.90374  0.27947  1.0000
  O   O6        1.0  0.86681  0.96307  0.27947  1.0000
  O   O7        1.0  0.79986  0.42959  0.55386  1.0000
  O   O8        1.0  0.57041  0.37026  0.55386  1.0000
  O   O9        1.0  0.62974  0.20014  0.55386  1.0000
  O   O10       1.0  0.76293  0.46652  0.61280  1.0000
  O   O11       1.0  0.70360  0.23707  0.61280  1.0000
  O   O12       1.0  0.53348  0.29640  0.61280  1.0000
  O   O13       1.0  0.46652  0.76293  0.88720  1.0000
  O   O14       1.0  0.23707  0.70360  0.88720  1.0000
  O   O15       1.0  0.29640  0.53348  0.88720  1.0000
  O   O16       1.0  0.42959  0.79986  0.94614  1.0000
  O   O17       1.0  0.37026  0.57041  0.94614  1.0000
  O   O18       1.0  0.20014  0.62974  0.94614  1.0000
  O   O19       1.0  0.86681  0.90374  0.77947  1.0000
  O   O20       1.0  0.09626  0.96307  0.77947  1.0000
  O   O21       1.0  0.03693  0.13319  0.77947  1.0000
  O   O22       1.0  0.90374  0.86681  0.72053  1.0000
  O   O23       1.0  0.96307  0.09626  0.72053  1.0000
  O   O24       1.0  0.13319  0.03693  0.72053  1.0000
  O   O25       1.0  0.20014  0.57041  0.44614  1.0000
  O   O26       1.0  0.42959  0.62974  0.44614  1.0000
  O   O27       1.0  0.37026  0.79986  0.44614  1.0000
  O   O28       1.0  0.23707  0.53348  0.38720  1.0000
  O   O29       1.0  0.29640  0.76293  0.38720  1.0000
  O   O30       1.0  0.46652  0.70360  0.38720  1.0000
  O   O31       1.0  0.53348  0.23707  0.11280  1.0000
  O   O32       1.0  0.76293  0.29640  0.11280  1.0000
  O   O33       1.0  0.70360  0.46652  0.11280  1.0000
  O   O34       1.0  0.57041  0.20014  0.05386  1.0000
  O   O35       1.0  0.62974  0.42959  0.05386  1.0000
  O   O36       1.0  0.79986  0.37026  0.05386  1.0000
  O   O37       1.0  0.12884  0.19454  0.21803  1.0000
  O   O38       1.0  0.80546  0.93430  0.21803  1.0000
  O   O39       1.0  0.06570  0.87116  0.21803  1.0000
  O   O40       1.0  0.19454  0.12884  0.28197  1.0000
  O   O41       1.0  0.93430  0.80546  0.28197  1.0000
  O   O42       1.0  0.87116  0.06570  0.28197  1.0000
  O   O43       1.0  0.79551  0.52787  0.55136  1.0000
  O   O44       1.0  0.47213  0.26763  0.55136  1.0000
  O   O45       1.0  0.73237  0.20449  0.55136  1.0000
  O   O46       1.0  0.86121  0.46217  0.61530  1.0000
  O   O47       1.0  0.60097  0.13879  0.61530  1.0000
  O   O48       1.0  0.53783  0.39903  0.61530  1.0000
  O   O49       1.0  0.46217  0.86121  0.88470  1.0000
  O   O50       1.0  0.13879  0.60097  0.88470  1.0000
  O   O51       1.0  0.39903  0.53783  0.88470  1.0000
  O   O52       1.0  0.52787  0.79551  0.94864  1.0000
  O   O53       1.0  0.26763  0.47213  0.94864  1.0000
  O   O54       1.0  0.20449  0.73237  0.94864  1.0000
  O   O55       1.0  0.87116  0.80546  0.78197  1.0000
  O   O56       1.0  0.19454  0.06570  0.78197  1.0000
  O   O57       1.0  0.93430  0.12884  0.78197  1.0000
  O   O58       1.0  0.80546  0.87116  0.71803  1.0000
  O   O59       1.0  0.06570  0.19454  0.71803  1.0000
  O   O60       1.0  0.12884  0.93430  0.71803  1.0000
  O   O61       1.0  0.20449  0.47213  0.44864  1.0000
  O   O62       1.0  0.52787  0.73237  0.44864  1.0000
  O   O63       1.0  0.26763  0.79551  0.44864  1.0000
  O   O64       1.0  0.13879  0.53783  0.38470  1.0000
  O   O65       1.0  0.39903  0.86121  0.38470  1.0000
  O   O66       1.0  0.46217  0.60097  0.38470  1.0000
  O   O67       1.0  0.53783  0.13879  0.11530  1.0000
  O   O68       1.0  0.86121  0.39903  0.11530  1.0000
  O   O69       1.0  0.60097  0.46217  0.11530  1.0000
  O   O70       1.0  0.47213  0.20449  0.05136  1.0000
  O   O71       1.0  0.73237  0.52787  0.05136  1.0000
  O   O72       1.0  0.79551  0.26763  0.05136  1.0000
  O   O73       1.0  0.22834  0.19659  0.21815  1.0000
  O   O74       1.0  0.80341  0.03175  0.21815  1.0000
  O   O75       1.0  0.96825  0.77166  0.21815  1.0000
  O   O76       1.0  0.19659  0.22834  0.28185  1.0000
  O   O77       1.0  0.03175  0.80341  0.28185  1.0000
  O   O78       1.0  0.77166  0.96825  0.28185  1.0000
  O   O79       1.0  0.89501  0.52992  0.55148  1.0000
  O   O80       1.0  0.47008  0.36508  0.55148  1.0000
  O   O81       1.0  0.63492  0.10499  0.55148  1.0000
  O   O82       1.0  0.86326  0.56167  0.61518  1.0000
  O   O83       1.0  0.69842  0.13674  0.61518  1.0000
  O   O84       1.0  0.43833  0.30158  0.61518  1.0000
  O   O85       1.0  0.56167  0.86326  0.88482  1.0000
  O   O86       1.0  0.13674  0.69842  0.88482  1.0000
  O   O87       1.0  0.30158  0.43833  0.88482  1.0000
  O   O88       1.0  0.52992  0.89501  0.94852  1.0000
  O   O89       1.0  0.36508  0.47008  0.94852  1.0000
  O   O90       1.0  0.10499  0.63492  0.94852  1.0000
  O   O91       1.0  0.77166  0.80341  0.78185  1.0000
  O   O92       1.0  0.19659  0.96825  0.78185  1.0000
  O   O93       1.0  0.03175  0.22834  0.78185  1.0000
  O   O94       1.0  0.80341  0.77166  0.71815  1.0000
  O   O95       1.0  0.96825  0.19659  0.71815  1.0000
  O   O96       1.0  0.22834  0.03175  0.71815  1.0000
  O   O97       1.0  0.10499  0.47008  0.44852  1.0000
  O   O98       1.0  0.52992  0.63492  0.44852  1.0000
  O   O99       1.0  0.36508  0.89501  0.44852  1.0000
  O   O100      1.0  0.13674  0.43833  0.38482  1.0000
  O   O101      1.0  0.30158  0.86326  0.38482  1.0000
  O   O102      1.0  0.56167  0.69842  0.38482  1.0000
  O   O103      1.0  0.43833  0.13674  0.11518  1.0000
  O   O104      1.0  0.86326  0.30158  0.11518  1.0000
  O   O105      1.0  0.69842  0.56167  0.11518  1.0000
  O   O106      1.0  0.47008  0.10499  0.05148  1.0000
  O   O107      1.0  0.63492  0.52992  0.05148  1.0000
  O   O108      1.0  0.89501  0.36508  0.05148  1.0000
  C   C1        1.0  0.08812  0.07237  0.20919  1.0000
  C   C2        1.0  0.92763  0.01575  0.20919  1.0000
  C   C3        1.0  0.98425  0.91188  0.20919  1.0000
  C   C4        1.0  0.07237  0.08812  0.29081  1.0000
  C   C5        1.0  0.01575  0.92763  0.29081  1.0000
  C   C6        1.0  0.91188  0.98425  0.29081  1.0000
  C   C7        1.0  0.75479  0.40570  0.54252  1.0000
  C   C8        1.0  0.59430  0.34908  0.54252  1.0000
  C   C9        1.0  0.65092  0.24521  0.54252  1.0000
  C   C10       1.0  0.73904  0.42145  0.62414  1.0000
  C   C11       1.0  0.68242  0.26096  0.62414  1.0000
  C   C12       1.0  0.57855  0.31758  0.62414  1.0000
  C   C13       1.0  0.42145  0.73904  0.87586  1.0000
  C   C14       1.0  0.26096  0.68242  0.87586  1.0000
  C   C15       1.0  0.31758  0.57855  0.87586  1.0000
  C   C16       1.0  0.40570  0.75479  0.95748  1.0000
  C   C17       1.0  0.34908  0.59430  0.95748  1.0000
  C   C18       1.0  0.24521  0.65092  0.95748  1.0000
  C   C19       1.0  0.91188  0.92763  0.79081  1.0000
  C   C20       1.0  0.07237  0.98425  0.79081  1.0000
  C   C21       1.0  0.01575  0.08812  0.79081  1.0000
  C   C22       1.0  0.92763  0.91188  0.70919  1.0000
  C   C23       1.0  0.98425  0.07237  0.70919  1.0000
  C   C24       1.0  0.08812  0.01575  0.70919  1.0000
  C   C25       1.0  0.24521  0.59430  0.45748  1.0000
  C   C26       1.0  0.40570  0.65092  0.45748  1.0000
  C   C27       1.0  0.34908  0.75479  0.45748  1.0000
  C   C28       1.0  0.26096  0.57855  0.37586  1.0000
  C   C29       1.0  0.31758  0.73904  0.37586  1.0000
  C   C30       1.0  0.42145  0.68242  0.37586  1.0000
  C   C31       1.0  0.57855  0.26096  0.12414  1.0000
  C   C32       1.0  0.73904  0.31758  0.12414  1.0000
  C   C33       1.0  0.68242  0.42145  0.12414  1.0000
  C   C34       1.0  0.59430  0.24521  0.04252  1.0000
  C   C35       1.0  0.65092  0.40570  0.04252  1.0000
  C   C36       1.0  0.75479  0.34908  0.04252  1.0000
  C   C37       1.0  0.15193  0.24064  0.20705  1.0000
  C   C38       1.0  0.75936  0.91129  0.20705  1.0000
  C   C39       1.0  0.08871  0.84807  0.20705  1.0000
  C   C40       1.0  0.24064  0.15193  0.29295  1.0000
  C   C41       1.0  0.91129  0.75936  0.29295  1.0000
  C   C42       1.0  0.84807  0.08871  0.29295  1.0000
  C   C43       1.0  0.81860  0.57397  0.54038  1.0000
  C   C44       1.0  0.42603  0.24462  0.54038  1.0000
  C   C45       1.0  0.75538  0.18140  0.54038  1.0000
  C   C46       1.0  0.90731  0.48526  0.62628  1.0000
  C   C47       1.0  0.57796  0.09269  0.62628  1.0000
  C   C48       1.0  0.51474  0.42204  0.62628  1.0000
  C   C49       1.0  0.48526  0.90731  0.87372  1.0000
  C   C50       1.0  0.09269  0.57796  0.87372  1.0000
  C   C51       1.0  0.42204  0.51474  0.87372  1.0000
  C   C52       1.0  0.57397  0.81860  0.95962  1.0000
  C   C53       1.0  0.24462  0.42603  0.95962  1.0000
  C   C54       1.0  0.18140  0.75538  0.95962  1.0000
  C   C55       1.0  0.84807  0.75936  0.79295  1.0000
  C   C56       1.0  0.24064  0.08871  0.79295  1.0000
  C   C57       1.0  0.91129  0.15193  0.79295  1.0000
  C   C58       1.0  0.75936  0.84807  0.70705  1.0000
  C   C59       1.0  0.08871  0.24064  0.70705  1.0000
  C   C60       1.0  0.15193  0.91129  0.70705  1.0000
  C   C61       1.0  0.18140  0.42603  0.45962  1.0000
  C   C62       1.0  0.57397  0.75538  0.45962  1.0000
  C   C63       1.0  0.24462  0.81860  0.45962  1.0000
  C   C64       1.0  0.09269  0.51474  0.37372  1.0000
  C   C65       1.0  0.42204  0.90731  0.37372  1.0000
  C   C66       1.0  0.48526  0.57796  0.37372  1.0000
  C   C67       1.0  0.51474  0.09269  0.12628  1.0000
  C   C68       1.0  0.90731  0.42204  0.12628  1.0000
  C   C69       1.0  0.57796  0.48526  0.12628  1.0000
  C   C70       1.0  0.42603  0.18140  0.04038  1.0000
  C   C71       1.0  0.75538  0.57397  0.04038  1.0000
  C   C72       1.0  0.81860  0.24462  0.04038  1.0000
  C   C73       1.0  0.25888  0.17929  0.21225  1.0000
  C   C74       1.0  0.82071  0.07959  0.21225  1.0000
  C   C75       1.0  0.92041  0.74112  0.21225  1.0000
  C   C76       1.0  0.17929  0.25888  0.28775  1.0000
  C   C77       1.0  0.07959  0.82071  0.28775  1.0000
  C   C78       1.0  0.74112  0.92041  0.28775  1.0000
  C   C79       1.0  0.92555  0.51262  0.54558  1.0000
  C   C80       1.0  0.48738  0.41292  0.54558  1.0000
  C   C81       1.0  0.58708  0.07445  0.54558  1.0000
  C   C82       1.0  0.84596  0.59221  0.62108  1.0000
  C   C83       1.0  0.74626  0.15404  0.62108  1.0000
  C   C84       1.0  0.40779  0.25374  0.62108  1.0000
  C   C85       1.0  0.59221  0.84596  0.87892  1.0000
  C   C86       1.0  0.15404  0.74626  0.87892  1.0000
  C   C87       1.0  0.25374  0.40779  0.87892  1.0000
  C   C88       1.0  0.51262  0.92555  0.95442  1.0000
  C   C89       1.0  0.41292  0.48738  0.95442  1.0000
  C   C90       1.0  0.07445  0.58708  0.95442  1.0000
  C   C91       1.0  0.74112  0.82071  0.78775  1.0000
  C   C92       1.0  0.17929  0.92041  0.78775  1.0000
  C   C93       1.0  0.07959  0.25888  0.78775  1.0000
  C   C94       1.0  0.82071  0.74112  0.71225  1.0000
  C   C95       1.0  0.92041  0.17929  0.71225  1.0000
  C   C96       1.0  0.25888  0.07959  0.71225  1.0000
  C   C97       1.0  0.07445  0.48738  0.45442  1.0000
  C   C98       1.0  0.51262  0.58708  0.45442  1.0000
  C   C99       1.0  0.41292  0.92555  0.45442  1.0000
  C   C100      1.0  0.15404  0.40779  0.37892  1.0000
  C   C101      1.0  0.25374  0.84596  0.37892  1.0000
  C   C102      1.0  0.59221  0.74626  0.37892  1.0000
  C   C103      1.0  0.40779  0.15404  0.12108  1.0000
  C   C104      1.0  0.84596  0.25374  0.12108  1.0000
  C   C105      1.0  0.74626  0.59221  0.12108  1.0000
  C   C106      1.0  0.48738  0.07445  0.04558  1.0000
  C   C107      1.0  0.58708  0.51262  0.04558  1.0000
  C   C108      1.0  0.92555  0.41292  0.04558  1.0000
  O   O109      1.0  0.06837  0.02983  0.19336  1.0000
  O   O110      1.0  0.97017  0.03854  0.19336  1.0000
  O   O111      1.0  0.96146  0.93163  0.19336  1.0000
  O   O112      1.0  0.02983  0.06837  0.30664  1.0000
  O   O113      1.0  0.03854  0.97017  0.30664  1.0000
  O   O114      1.0  0.93163  0.96146  0.30664  1.0000
  O   O115      1.0  0.73504  0.36316  0.52669  1.0000
  O   O116      1.0  0.63684  0.37187  0.52669  1.0000
  O   O117      1.0  0.62813  0.26496  0.52669  1.0000
  O   O118      1.0  0.69650  0.40170  0.63997  1.0000
  O   O119      1.0  0.70521  0.30350  0.63997  1.0000
  O   O120      1.0  0.59830  0.29479  0.63997  1.0000
  O   O121      1.0  0.40170  0.69650  0.86003  1.0000
  O   O122      1.0  0.30350  0.70521  0.86003  1.0000
  O   O123      1.0  0.29479  0.59830  0.86003  1.0000
  O   O124      1.0  0.36316  0.73504  0.97331  1.0000
  O   O125      1.0  0.37187  0.63684  0.97331  1.0000
  O   O126      1.0  0.26496  0.62813  0.97331  1.0000
  O   O127      1.0  0.93163  0.97017  0.80664  1.0000
  O   O128      1.0  0.02983  0.96146  0.80664  1.0000
  O   O129      1.0  0.03854  0.06837  0.80664  1.0000
  O   O130      1.0  0.97017  0.93163  0.69336  1.0000
  O   O131      1.0  0.96146  0.02983  0.69336  1.0000
  O   O132      1.0  0.06837  0.03854  0.69336  1.0000
  O   O133      1.0  0.26496  0.63684  0.47331  1.0000
  O   O134      1.0  0.36316  0.62813  0.47331  1.0000
  O   O135      1.0  0.37187  0.73504  0.47331  1.0000
  O   O136      1.0  0.30350  0.59830  0.36003  1.0000
  O   O137      1.0  0.29479  0.69650  0.36003  1.0000
  O   O138      1.0  0.40170  0.70521  0.36003  1.0000
  O   O139      1.0  0.59830  0.30350  0.13997  1.0000
  O   O140      1.0  0.69650  0.29479  0.13997  1.0000
  O   O141      1.0  0.70521  0.40170  0.13997  1.0000
  O   O142      1.0  0.63684  0.26496  0.02669  1.0000
  O   O143      1.0  0.62813  0.36316  0.02669  1.0000
  O   O144      1.0  0.73504  0.37187  0.02669  1.0000
  H   H1        1.0  0.06670  0.08750  0.21280  1.0000
  H   H2        1.0  0.91250  0.97920  0.21280  1.0000
  H   H3        1.0  0.02080  0.93330  0.21280  1.0000
  H   H4        1.0  0.08750  0.06670  0.28720  1.0000
  H   H5        1.0  0.97920  0.91250  0.28720  1.0000
  H   H6        1.0  0.93330  0.02080  0.28720  1.0000
  H   H7        1.0  0.73337  0.42083  0.54613  1.0000
  H   H8        1.0  0.57917  0.31253  0.54613  1.0000
  H   H9        1.0  0.68747  0.26663  0.54613  1.0000
  H   H10       1.0  0.75417  0.40003  0.62053  1.0000
  H   H11       1.0  0.64587  0.24583  0.62053  1.0000
  H   H12       1.0  0.59997  0.35413  0.62053  1.0000
  H   H13       1.0  0.40003  0.75417  0.87947  1.0000
  H   H14       1.0  0.24583  0.64587  0.87947  1.0000
  H   H15       1.0  0.35413  0.59997  0.87947  1.0000
  H   H16       1.0  0.42083  0.73337  0.95387  1.0000
  H   H17       1.0  0.31253  0.57917  0.95387  1.0000
  H   H18       1.0  0.26663  0.68747  0.95387  1.0000
  H   H19       1.0  0.93330  0.91250  0.78720  1.0000
  H   H20       1.0  0.08750  0.02080  0.78720  1.0000
  H   H21       1.0  0.97920  0.06670  0.78720  1.0000
  H   H22       1.0  0.91250  0.93330  0.71280  1.0000
  H   H23       1.0  0.02080  0.08750  0.71280  1.0000
  H   H24       1.0  0.06670  0.97920  0.71280  1.0000
  H   H25       1.0  0.26663  0.57917  0.45387  1.0000
  H   H26       1.0  0.42083  0.68747  0.45387  1.0000
  H   H27       1.0  0.31253  0.73337  0.45387  1.0000
  H   H28       1.0  0.24583  0.59997  0.37947  1.0000
  H   H29       1.0  0.35413  0.75417  0.37947  1.0000
  H   H30       1.0  0.40003  0.64587  0.37947  1.0000
  H   H31       1.0  0.59997  0.24583  0.12053  1.0000
  H   H32       1.0  0.75417  0.35413  0.12053  1.0000
  H   H33       1.0  0.64587  0.40003  0.12053  1.0000
  H   H34       1.0  0.57917  0.26663  0.04613  1.0000
  H   H35       1.0  0.68747  0.42083  0.04613  1.0000
  H   H36       1.0  0.73337  0.31253  0.04613  1.0000
  O   O145      1.0  0.12961  0.26262  0.19389  1.0000
  O   O146      1.0  0.73738  0.86699  0.19389  1.0000
  O   O147      1.0  0.13301  0.87039  0.19389  1.0000
  O   O148      1.0  0.26262  0.12961  0.30611  1.0000
  O   O149      1.0  0.86699  0.73738  0.30611  1.0000
  O   O150      1.0  0.87039  0.13301  0.30611  1.0000
  O   O151      1.0  0.79628  0.59595  0.52722  1.0000
  O   O152      1.0  0.40405  0.20032  0.52722  1.0000
  O   O153      1.0  0.79968  0.20372  0.52722  1.0000
  O   O154      1.0  0.92929  0.46294  0.63944  1.0000
  O   O155      1.0  0.53366  0.07071  0.63944  1.0000
  O   O156      1.0  0.53706  0.46634  0.63944  1.0000
  O   O157      1.0  0.46294  0.92929  0.86056  1.0000
  O   O158      1.0  0.07071  0.53366  0.86056  1.0000
  O   O159      1.0  0.46634  0.53706  0.86056  1.0000
  O   O160      1.0  0.59595  0.79628  0.97278  1.0000
  O   O161      1.0  0.20032  0.40405  0.97278  1.0000
  O   O162      1.0  0.20372  0.79968  0.97278  1.0000
  O   O163      1.0  0.87039  0.73738  0.80611  1.0000
  O   O164      1.0  0.26262  0.13301  0.80611  1.0000
  O   O165      1.0  0.86699  0.12961  0.80611  1.0000
  O   O166      1.0  0.73738  0.87039  0.69389  1.0000
  O   O167      1.0  0.13301  0.26262  0.69389  1.0000
  O   O168      1.0  0.12961  0.86699  0.69389  1.0000
  O   O169      1.0  0.20372  0.40405  0.47278  1.0000
  O   O170      1.0  0.59595  0.79968  0.47278  1.0000
  O   O171      1.0  0.20032  0.79628  0.47278  1.0000
  O   O172      1.0  0.07071  0.53706  0.36056  1.0000
  O   O173      1.0  0.46634  0.92929  0.36056  1.0000
  O   O174      1.0  0.46294  0.53366  0.36056  1.0000
  O   O175      1.0  0.53706  0.07071  0.13944  1.0000
  O   O176      1.0  0.92929  0.46634  0.13944  1.0000
  O   O177      1.0  0.53366  0.46294  0.13944  1.0000
  O   O178      1.0  0.40405  0.20372  0.02722  1.0000
  O   O179      1.0  0.79968  0.59595  0.02722  1.0000
  O   O180      1.0  0.79628  0.20032  0.02722  1.0000
  H   H37       1.0  0.18890  0.26010  0.20890  1.0000
  H   H38       1.0  0.73990  0.92880  0.20890  1.0000
  H   H39       1.0  0.07120  0.81110  0.20890  1.0000
  H   H40       1.0  0.26010  0.18890  0.29110  1.0000
  H   H41       1.0  0.92880  0.73990  0.29110  1.0000
  H   H42       1.0  0.81110  0.07120  0.29110  1.0000
  H   H43       1.0  0.85557  0.59343  0.54223  1.0000
  H   H44       1.0  0.40657  0.26213  0.54223  1.0000
  H   H45       1.0  0.73787  0.14443  0.54223  1.0000
  H   H46       1.0  0.92677  0.52223  0.62443  1.0000
  H   H47       1.0  0.59547  0.07323  0.62443  1.0000
  H   H48       1.0  0.47777  0.40453  0.62443  1.0000
  H   H49       1.0  0.52223  0.92677  0.87557  1.0000
  H   H50       1.0  0.07323  0.59547  0.87557  1.0000
  H   H51       1.0  0.40453  0.47777  0.87557  1.0000
  H   H52       1.0  0.59343  0.85557  0.95777  1.0000
  H   H53       1.0  0.26213  0.40657  0.95777  1.0000
  H   H54       1.0  0.14443  0.73787  0.95777  1.0000
  H   H55       1.0  0.81110  0.73990  0.79110  1.0000
  H   H56       1.0  0.26010  0.07120  0.79110  1.0000
  H   H57       1.0  0.92880  0.18890  0.79110  1.0000
  H   H58       1.0  0.73990  0.81110  0.70890  1.0000
  H   H59       1.0  0.07120  0.26010  0.70890  1.0000
  H   H60       1.0  0.18890  0.92880  0.70890  1.0000
  H   H61       1.0  0.14443  0.40657  0.45777  1.0000
  H   H62       1.0  0.59343  0.73787  0.45777  1.0000
  H   H63       1.0  0.26213  0.85557  0.45777  1.0000
  H   H64       1.0  0.07323  0.47777  0.37557  1.0000
  H   H65       1.0  0.40453  0.92677  0.37557  1.0000
  H   H66       1.0  0.52223  0.59547  0.37557  1.0000
  H   H67       1.0  0.47777  0.07323  0.12443  1.0000
  H   H68       1.0  0.92677  0.40453  0.12443  1.0000
  H   H69       1.0  0.59547  0.52223  0.12443  1.0000
  H   H70       1.0  0.40657  0.14443  0.04223  1.0000
  H   H71       1.0  0.73787  0.59343  0.04223  1.0000
  H   H72       1.0  0.85557  0.26213  0.04223  1.0000
  O   O181      1.0  0.29686  0.20034  0.19276  1.0000
  O   O182      1.0  0.79966  0.09652  0.19276  1.0000
  O   O183      1.0  0.90348  0.70314  0.19276  1.0000
  O   O184      1.0  0.20034  0.29686  0.30724  1.0000
  O   O185      1.0  0.09652  0.79966  0.30724  1.0000
  O   O186      1.0  0.70314  0.90348  0.30724  1.0000
  O   O187      1.0  0.96353  0.53367  0.52609  1.0000
  O   O188      1.0  0.46633  0.42985  0.52609  1.0000
  O   O189      1.0  0.57015  0.03647  0.52609  1.0000
  O   O190      1.0  0.86701  0.63019  0.64057  1.0000
  O   O191      1.0  0.76319  0.13299  0.64057  1.0000
  O   O192      1.0  0.36981  0.23681  0.64057  1.0000
  O   O193      1.0  0.63019  0.86701  0.85943  1.0000
  O   O194      1.0  0.13299  0.76319  0.85943  1.0000
  O   O195      1.0  0.23681  0.36981  0.85943  1.0000
  O   O196      1.0  0.53367  0.96353  0.97391  1.0000
  O   O197      1.0  0.42985  0.46633  0.97391  1.0000
  O   O198      1.0  0.03647  0.57015  0.97391  1.0000
  O   O199      1.0  0.70314  0.79966  0.80724  1.0000
  O   O200      1.0  0.20034  0.90348  0.80724  1.0000
  O   O201      1.0  0.09652  0.29686  0.80724  1.0000
  O   O202      1.0  0.79966  0.70314  0.69276  1.0000
  O   O203      1.0  0.90348  0.20034  0.69276  1.0000
  O   O204      1.0  0.29686  0.09652  0.69276  1.0000
  O   O205      1.0  0.03647  0.46633  0.47391  1.0000
  O   O206      1.0  0.53367  0.57015  0.47391  1.0000
  O   O207      1.0  0.42985  0.96353  0.47391  1.0000
  O   O208      1.0  0.13299  0.36981  0.35943  1.0000
  O   O209      1.0  0.23681  0.86701  0.35943  1.0000
  O   O210      1.0  0.63019  0.76319  0.35943  1.0000
  O   O211      1.0  0.36981  0.13299  0.14057  1.0000
  O   O212      1.0  0.86701  0.23681  0.14057  1.0000
  O   O213      1.0  0.76319  0.63019  0.14057  1.0000
  O   O214      1.0  0.46633  0.03647  0.02609  1.0000
  O   O215      1.0  0.57015  0.53367  0.02609  1.0000
  O   O216      1.0  0.96353  0.42985  0.02609  1.0000
  H   H73       1.0  0.25240  0.14820  0.22340  1.0000
  H   H74       1.0  0.85180  0.10420  0.22340  1.0000
  H   H75       1.0  0.89580  0.74760  0.22340  1.0000
  H   H76       1.0  0.14820  0.25240  0.27660  1.0000
  H   H77       1.0  0.10420  0.85180  0.27660  1.0000
  H   H78       1.0  0.74760  0.89580  0.27660  1.0000
  H   H79       1.0  0.91907  0.48153  0.55673  1.0000
  H   H80       1.0  0.51847  0.43753  0.55673  1.0000
  H   H81       1.0  0.56247  0.08093  0.55673  1.0000
  H   H82       1.0  0.81487  0.58573  0.60993  1.0000
  H   H83       1.0  0.77087  0.18513  0.60993  1.0000
  H   H84       1.0  0.41427  0.22913  0.60993  1.0000
  H   H85       1.0  0.58573  0.81487  0.89007  1.0000
  H   H86       1.0  0.18513  0.77087  0.89007  1.0000
  H   H87       1.0  0.22913  0.41427  0.89007  1.0000
  H   H88       1.0  0.48153  0.91907  0.94327  1.0000
  H   H89       1.0  0.43753  0.51847  0.94327  1.0000
  H   H90       1.0  0.08093  0.56247  0.94327  1.0000
  H   H91       1.0  0.74760  0.85180  0.77660  1.0000
  H   H92       1.0  0.14820  0.89580  0.77660  1.0000
  H   H93       1.0  0.10420  0.25240  0.77660  1.0000
  H   H94       1.0  0.85180  0.74760  0.72340  1.0000
  H   H95       1.0  0.89580  0.14820  0.72340  1.0000
  H   H96       1.0  0.25240  0.10420  0.72340  1.0000
  H   H97       1.0  0.08093  0.51847  0.44327  1.0000
  H   H98       1.0  0.48153  0.56247  0.44327  1.0000
  H   H99       1.0  0.43753  0.91907  0.44327  1.0000
  H   H100      1.0  0.18513  0.41427  0.39007  1.0000
  H   H101      1.0  0.22913  0.81487  0.39007  1.0000
  H   H102      1.0  0.58573  0.77087  0.39007  1.0000
  H   H103      1.0  0.41427  0.18513  0.10993  1.0000
  H   H104      1.0  0.81487  0.22913  0.10993  1.0000
  H   H105      1.0  0.77087  0.58573  0.10993  1.0000
  H   H106      1.0  0.51847  0.08093  0.05673  1.0000
  H   H107      1.0  0.56247  0.48153  0.05673  1.0000
  H   H108      1.0  0.91907  0.43753  0.05673  1.0000
  Co  Co19      1.0  0.00000  0.00000  0.16430  1.0000
  Co  Co20      1.0  0.00000  0.00000  0.33570  1.0000
  Co  Co21      1.0  0.66667  0.33333  0.49763  1.0000
  Co  Co22      1.0  0.66667  0.33333  0.66904  1.0000
  Co  Co23      1.0  0.33333  0.66667  0.83096  1.0000
  Co  Co24      1.0  0.33333  0.66667  0.00237  1.0000
  Co  Co25      1.0  0.00000  0.00000  0.83570  1.0000
  Co  Co26      1.0  0.00000  0.00000  0.66430  1.0000
  Co  Co27      1.0  0.33333  0.66667  0.50237  1.0000
  Co  Co28      1.0  0.33333  0.66667  0.33096  1.0000
  Co  Co29      1.0  0.66667  0.33333  0.16904  1.0000
  Co  Co30      1.0  0.66667  0.33333  0.99763  1.0000
  Co  Co31      1.0  0.16823  0.33123  0.16661  1.0000
  Co  Co32      1.0  0.66877  0.83700  0.16661  1.0000
  Co  Co33      1.0  0.16300  0.83177  0.16661  1.0000
  Co  Co34      1.0  0.33123  0.16823  0.33339  1.0000
  Co  Co35      1.0  0.83700  0.66877  0.33339  1.0000
  Co  Co36      1.0  0.83177  0.16300  0.33339  1.0000
  Co  Co37      1.0  0.83489  0.66456  0.49994  1.0000
  Co  Co38      1.0  0.33544  0.17033  0.49994  1.0000
  Co  Co39      1.0  0.82967  0.16511  0.49994  1.0000
  Co  Co40      1.0  0.99789  0.50156  0.66672  1.0000
  Co  Co41      1.0  0.50367  0.00211  0.66672  1.0000
  Co  Co42      1.0  0.49844  0.49633  0.66672  1.0000
  Co  Co43      1.0  0.50156  0.99789  0.83328  1.0000
  Co  Co44      1.0  0.00211  0.50367  0.83328  1.0000
  Co  Co45      1.0  0.49633  0.49844  0.83328  1.0000
  Co  Co46      1.0  0.66456  0.83489  0.00006  1.0000
  Co  Co47      1.0  0.17033  0.33544  0.00006  1.0000
  Co  Co48      1.0  0.16511  0.82967  0.00006  1.0000
  Co  Co49      1.0  0.83177  0.66877  0.83339  1.0000
  Co  Co50      1.0  0.33123  0.16300  0.83339  1.0000
  Co  Co51      1.0  0.83700  0.16823  0.83339  1.0000
  Co  Co52      1.0  0.66877  0.83177  0.66661  1.0000
  Co  Co53      1.0  0.16300  0.33123  0.66661  1.0000
  Co  Co54      1.0  0.16823  0.83700  0.66661  1.0000
  Co  Co55      1.0  0.16511  0.33544  0.50006  1.0000
  Co  Co56      1.0  0.66456  0.82967  0.50006  1.0000
  Co  Co57      1.0  0.17033  0.83489  0.50006  1.0000
  Co  Co58      1.0  0.00211  0.49844  0.33328  1.0000
  Co  Co59      1.0  0.49633  0.99789  0.33328  1.0000
  Co  Co60      1.0  0.50156  0.50367  0.33328  1.0000
  Co  Co61      1.0  0.49844  0.00211  0.16672  1.0000
  Co  Co62      1.0  0.99789  0.49633  0.16672  1.0000
  Co  Co63      1.0  0.50367  0.50156  0.16672  1.0000
  Co  Co64      1.0  0.33544  0.16511  0.99994  1.0000
  Co  Co65      1.0  0.82967  0.66456  0.99994  1.0000
  Co  Co66      1.0  0.83489  0.17033  0.99994  1.0000
  Co  Co67      1.0  0.33330  0.16670  0.16670  1.0000
  Co  Co68      1.0  0.83330  0.16660  0.16670  1.0000
  Co  Co69      1.0  0.83340  0.66670  0.16670  1.0000
  Co  Co70      1.0  0.16670  0.33330  0.33330  1.0000
  Co  Co71      1.0  0.16660  0.83330  0.33330  1.0000
  Co  Co72      1.0  0.66670  0.83340  0.33330  1.0000
  Co  Co73      1.0  0.99997  0.50003  0.50003  1.0000
  Co  Co74      1.0  0.49997  0.49993  0.50003  1.0000
  Co  Co75      1.0  0.50007  0.00003  0.50003  1.0000
  Co  Co76      1.0  0.83337  0.66663  0.66663  1.0000
  Co  Co77      1.0  0.83327  0.16663  0.66663  1.0000
  Co  Co78      1.0  0.33337  0.16673  0.66663  1.0000
  Co  Co79      1.0  0.66663  0.83337  0.83337  1.0000
  Co  Co80      1.0  0.16663  0.83327  0.83337  1.0000
  Co  Co81      1.0  0.16673  0.33337  0.83337  1.0000
  Co  Co82      1.0  0.50003  0.99997  0.99997  1.0000
  Co  Co83      1.0  0.49993  0.49997  0.99997  1.0000
  Co  Co84      1.0  0.00003  0.50007  0.99997  1.0000
  O   O217      1.0  0.03562  0.06947  0.13732  1.0000
  O   O218      1.0  0.93053  0.96615  0.13732  1.0000
  O   O219      1.0  0.03385  0.96438  0.13732  1.0000
  O   O220      1.0  0.06947  0.03562  0.36268  1.0000
  O   O221      1.0  0.96615  0.93053  0.36268  1.0000
  O   O222      1.0  0.96438  0.03385  0.36268  1.0000
  O   O223      1.0  0.70229  0.40280  0.47065  1.0000
  O   O224      1.0  0.59720  0.29948  0.47065  1.0000
  O   O225      1.0  0.70052  0.29771  0.47065  1.0000
  O   O226      1.0  0.73614  0.36895  0.69601  1.0000
  O   O227      1.0  0.63282  0.26386  0.69601  1.0000
  O   O228      1.0  0.63105  0.36718  0.69601  1.0000
  O   O229      1.0  0.36895  0.73614  0.80399  1.0000
  O   O230      1.0  0.26386  0.63282  0.80399  1.0000
  O   O231      1.0  0.36718  0.63105  0.80399  1.0000
  O   O232      1.0  0.40280  0.70229  0.02935  1.0000
  O   O233      1.0  0.29948  0.59720  0.02935  1.0000
  O   O234      1.0  0.29771  0.70052  0.02935  1.0000
  O   O235      1.0  0.96438  0.93053  0.86268  1.0000
  O   O236      1.0  0.06947  0.03385  0.86268  1.0000
  O   O237      1.0  0.96615  0.03562  0.86268  1.0000
  O   O238      1.0  0.93053  0.96438  0.63732  1.0000
  O   O239      1.0  0.03385  0.06947  0.63732  1.0000
  O   O240      1.0  0.03562  0.96615  0.63732  1.0000
  O   O241      1.0  0.29771  0.59720  0.52935  1.0000
  O   O242      1.0  0.40280  0.70052  0.52935  1.0000
  O   O243      1.0  0.29948  0.70229  0.52935  1.0000
  O   O244      1.0  0.26386  0.63105  0.30399  1.0000
  O   O245      1.0  0.36718  0.73614  0.30399  1.0000
  O   O246      1.0  0.36895  0.63282  0.30399  1.0000
  O   O247      1.0  0.63105  0.26386  0.19601  1.0000
  O   O248      1.0  0.73614  0.36718  0.19601  1.0000
  O   O249      1.0  0.63282  0.36895  0.19601  1.0000
  O   O250      1.0  0.59720  0.29771  0.97065  1.0000
  O   O251      1.0  0.70052  0.40280  0.97065  1.0000
  O   O252      1.0  0.70229  0.29948  0.97065  1.0000
  O   O253      1.0  0.09882  0.30279  0.13850  1.0000
  O   O254      1.0  0.69721  0.79603  0.13850  1.0000
  O   O255      1.0  0.20397  0.90118  0.13850  1.0000
  O   O256      1.0  0.30279  0.09882  0.36150  1.0000
  O   O257      1.0  0.79603  0.69721  0.36150  1.0000
  O   O258      1.0  0.90118  0.20397  0.36150  1.0000
  O   O259      1.0  0.76549  0.63612  0.47183  1.0000
  O   O260      1.0  0.36388  0.12936  0.47183  1.0000
  O   O261      1.0  0.87064  0.23451  0.47183  1.0000
  O   O262      1.0  0.96946  0.43215  0.69483  1.0000
  O   O263      1.0  0.46270  0.03054  0.69483  1.0000
  O   O264      1.0  0.56785  0.53730  0.69483  1.0000
  O   O265      1.0  0.43215  0.96946  0.80517  1.0000
  O   O266      1.0  0.03054  0.46270  0.80517  1.0000
  O   O267      1.0  0.53730  0.56785  0.80517  1.0000
  O   O268      1.0  0.63612  0.76549  0.02817  1.0000
  O   O269      1.0  0.12936  0.36388  0.02817  1.0000
  O   O270      1.0  0.23451  0.87064  0.02817  1.0000
  O   O271      1.0  0.90118  0.69721  0.86150  1.0000
  O   O272      1.0  0.30279  0.20397  0.86150  1.0000
  O   O273      1.0  0.79603  0.09882  0.86150  1.0000
  O   O274      1.0  0.69721  0.90118  0.63850  1.0000
  O   O275      1.0  0.20397  0.30279  0.63850  1.0000
  O   O276      1.0  0.09882  0.79603  0.63850  1.0000
  O   O277      1.0  0.23451  0.36388  0.52817  1.0000
  O   O278      1.0  0.63612  0.87064  0.52817  1.0000
  O   O279      1.0  0.12936  0.76549  0.52817  1.0000
  O   O280      1.0  0.03054  0.56785  0.30517  1.0000
  O   O281      1.0  0.53730  0.96946  0.30517  1.0000
  O   O282      1.0  0.43215  0.46270  0.30517  1.0000
  O   O283      1.0  0.56785  0.03054  0.19483  1.0000
  O   O284      1.0  0.96946  0.53730  0.19483  1.0000
  O   O285      1.0  0.46270  0.43215  0.19483  1.0000
  O   O286      1.0  0.36388  0.23451  0.97183  1.0000
  O   O287      1.0  0.87064  0.63612  0.97183  1.0000
  O   O288      1.0  0.76549  0.12936  0.97183  1.0000
  O   O289      1.0  0.19836  0.29386  0.13676  1.0000
  O   O290      1.0  0.70614  0.90450  0.13676  1.0000
  O   O291      1.0  0.09550  0.80164  0.13676  1.0000
  O   O292      1.0  0.29386  0.19836  0.36324  1.0000
  O   O293      1.0  0.90450  0.70614  0.36324  1.0000
  O   O294      1.0  0.80164  0.09550  0.36324  1.0000
  O   O295      1.0  0.86503  0.62719  0.47009  1.0000
  O   O296      1.0  0.37281  0.23783  0.47009  1.0000
  O   O297      1.0  0.76217  0.13497  0.47009  1.0000
  O   O298      1.0  0.96053  0.53169  0.69657  1.0000
  O   O299      1.0  0.57117  0.03947  0.69657  1.0000
  O   O300      1.0  0.46831  0.42883  0.69657  1.0000
  O   O301      1.0  0.53169  0.96053  0.80343  1.0000
  O   O302      1.0  0.03947  0.57117  0.80343  1.0000
  O   O303      1.0  0.42883  0.46831  0.80343  1.0000
  O   O304      1.0  0.62719  0.86503  0.02991  1.0000
  O   O305      1.0  0.23783  0.37281  0.02991  1.0000
  O   O306      1.0  0.13497  0.76217  0.02991  1.0000
  O   O307      1.0  0.80164  0.70614  0.86324  1.0000
  O   O308      1.0  0.29386  0.09550  0.86324  1.0000
  O   O309      1.0  0.90450  0.19836  0.86324  1.0000
  O   O310      1.0  0.70614  0.80164  0.63676  1.0000
  O   O311      1.0  0.09550  0.29386  0.63676  1.0000
  O   O312      1.0  0.19836  0.90450  0.63676  1.0000
  O   O313      1.0  0.13497  0.37281  0.52991  1.0000
  O   O314      1.0  0.62719  0.76217  0.52991  1.0000
  O   O315      1.0  0.23783  0.86503  0.52991  1.0000
  O   O316      1.0  0.03947  0.46831  0.30343  1.0000
  O   O317      1.0  0.42883  0.96053  0.30343  1.0000
  O   O318      1.0  0.53169  0.57117  0.30343  1.0000
  O   O319      1.0  0.46831  0.03947  0.19657  1.0000
  O   O320      1.0  0.96053  0.42883  0.19657  1.0000
  O   O321      1.0  0.57117  0.53169  0.19657  1.0000
  O   O322      1.0  0.37281  0.13497  0.97009  1.0000
  O   O323      1.0  0.76217  0.62719  0.97009  1.0000
  O   O324      1.0  0.86503  0.23783  0.97009  1.0000
  O   O325      1.0  0.23887  0.36154  0.19346  1.0000
  O   O326      1.0  0.63846  0.87733  0.19346  1.0000
  O   O327      1.0  0.12267  0.76113  0.19346  1.0000
  O   O328      1.0  0.36154  0.23887  0.30654  1.0000
  O   O329      1.0  0.87733  0.63846  0.30654  1.0000
  O   O330      1.0  0.76113  0.12267  0.30654  1.0000
  O   O331      1.0  0.90554  0.69487  0.52679  1.0000
  O   O332      1.0  0.30513  0.21066  0.52679  1.0000
  O   O333      1.0  0.78934  0.09446  0.52679  1.0000
  O   O334      1.0  0.02821  0.57220  0.63987  1.0000
  O   O335      1.0  0.54400  0.97179  0.63987  1.0000
  O   O336      1.0  0.42780  0.45600  0.63987  1.0000
  O   O337      1.0  0.57220  0.02821  0.86013  1.0000
  O   O338      1.0  0.97179  0.54400  0.86013  1.0000
  O   O339      1.0  0.45600  0.42780  0.86013  1.0000
  O   O340      1.0  0.69487  0.90554  0.97321  1.0000
  O   O341      1.0  0.21066  0.30513  0.97321  1.0000
  O   O342      1.0  0.09446  0.78934  0.97321  1.0000
  O   O343      1.0  0.76113  0.63846  0.80654  1.0000
  O   O344      1.0  0.36154  0.12267  0.80654  1.0000
  O   O345      1.0  0.87733  0.23887  0.80654  1.0000
  O   O346      1.0  0.63846  0.76113  0.69346  1.0000
  O   O347      1.0  0.12267  0.36154  0.69346  1.0000
  O   O348      1.0  0.23887  0.87733  0.69346  1.0000
  O   O349      1.0  0.09446  0.30513  0.47321  1.0000
  O   O350      1.0  0.69487  0.78934  0.47321  1.0000
  O   O351      1.0  0.21066  0.90554  0.47321  1.0000
  O   O352      1.0  0.97179  0.42780  0.36013  1.0000
  O   O353      1.0  0.45600  0.02821  0.36013  1.0000
  O   O354      1.0  0.57220  0.54400  0.36013  1.0000
  O   O355      1.0  0.42780  0.97179  0.13987  1.0000
  O   O356      1.0  0.02821  0.45600  0.13987  1.0000
  O   O357      1.0  0.54400  0.57220  0.13987  1.0000
  O   O358      1.0  0.30513  0.09446  0.02679  1.0000
  O   O359      1.0  0.78934  0.69487  0.02679  1.0000
  O   O360      1.0  0.90554  0.21066  0.02679  1.0000
  O   O361      1.0  0.13780  0.36965  0.19669  1.0000
  O   O362      1.0  0.63035  0.76815  0.19669  1.0000
  O   O363      1.0  0.23185  0.86220  0.19669  1.0000
  O   O364      1.0  0.36965  0.13780  0.30331  1.0000
  O   O365      1.0  0.76815  0.63035  0.30331  1.0000
  O   O366      1.0  0.86220  0.23185  0.30331  1.0000
  O   O367      1.0  0.80447  0.70298  0.53002  1.0000
  O   O368      1.0  0.29702  0.10148  0.53002  1.0000
  O   O369      1.0  0.89852  0.19553  0.53002  1.0000
  O   O370      1.0  0.03632  0.47113  0.63664  1.0000
  O   O371      1.0  0.43482  0.96368  0.63664  1.0000
  O   O372      1.0  0.52887  0.56518  0.63664  1.0000
  O   O373      1.0  0.47113  0.03632  0.86336  1.0000
  O   O374      1.0  0.96368  0.43482  0.86336  1.0000
  O   O375      1.0  0.56518  0.52887  0.86336  1.0000
  O   O376      1.0  0.70298  0.80447  0.96998  1.0000
  O   O377      1.0  0.10148  0.29702  0.96998  1.0000
  O   O378      1.0  0.19553  0.89852  0.96998  1.0000
  O   O379      1.0  0.86220  0.63035  0.80331  1.0000
  O   O380      1.0  0.36965  0.23185  0.80331  1.0000
  O   O381      1.0  0.76815  0.13780  0.80331  1.0000
  O   O382      1.0  0.63035  0.86220  0.69669  1.0000
  O   O383      1.0  0.23185  0.36965  0.69669  1.0000
  O   O384      1.0  0.13780  0.76815  0.69669  1.0000
  O   O385      1.0  0.19553  0.29702  0.46998  1.0000
  O   O386      1.0  0.70298  0.89852  0.46998  1.0000
  O   O387      1.0  0.10148  0.80447  0.46998  1.0000
  O   O388      1.0  0.96368  0.52887  0.36336  1.0000
  O   O389      1.0  0.56518  0.03632  0.36336  1.0000
  O   O390      1.0  0.47113  0.43482  0.36336  1.0000
  O   O391      1.0  0.52887  0.96368  0.13664  1.0000
  O   O392      1.0  0.03632  0.56518  0.13664  1.0000
  O   O393      1.0  0.43482  0.47113  0.13664  1.0000
  O   O394      1.0  0.29702  0.19553  0.03002  1.0000
  O   O395      1.0  0.89852  0.70298  0.03002  1.0000
  O   O396      1.0  0.80447  0.10148  0.03002  1.0000
  O   O397      1.0  0.20390  0.40263  0.14144  1.0000
  O   O398      1.0  0.59737  0.80127  0.14144  1.0000
  O   O399      1.0  0.19873  0.79610  0.14144  1.0000
  O   O400      1.0  0.40263  0.20390  0.35856  1.0000
  O   O401      1.0  0.80127  0.59737  0.35856  1.0000
  O   O402      1.0  0.79610  0.19873  0.35856  1.0000
  O   O403      1.0  0.87057  0.73596  0.47477  1.0000
  O   O404      1.0  0.26404  0.13460  0.47477  1.0000
  O   O405      1.0  0.86540  0.12943  0.47477  1.0000
  O   O406      1.0  0.06930  0.53723  0.69189  1.0000
  O   O407      1.0  0.46794  0.93070  0.69189  1.0000
  O   O408      1.0  0.46277  0.53206  0.69189  1.0000
  O   O409      1.0  0.53723  0.06930  0.80811  1.0000
  O   O410      1.0  0.93070  0.46794  0.80811  1.0000
  O   O411      1.0  0.53206  0.46277  0.80811  1.0000
  O   O412      1.0  0.73596  0.87057  0.02523  1.0000
  O   O413      1.0  0.13460  0.26404  0.02523  1.0000
  O   O414      1.0  0.12943  0.86540  0.02523  1.0000
  O   O415      1.0  0.79610  0.59737  0.85856  1.0000
  O   O416      1.0  0.40263  0.19873  0.85856  1.0000
  O   O417      1.0  0.80127  0.20390  0.85856  1.0000
  O   O418      1.0  0.59737  0.79610  0.64144  1.0000
  O   O419      1.0  0.19873  0.40263  0.64144  1.0000
  O   O420      1.0  0.20390  0.80127  0.64144  1.0000
  O   O421      1.0  0.12943  0.26404  0.52523  1.0000
  O   O422      1.0  0.73596  0.86540  0.52523  1.0000
  O   O423      1.0  0.13460  0.87057  0.52523  1.0000
  O   O424      1.0  0.93070  0.46277  0.30811  1.0000
  O   O425      1.0  0.53206  0.06930  0.30811  1.0000
  O   O426      1.0  0.53723  0.46794  0.30811  1.0000
  O   O427      1.0  0.46277  0.93070  0.19189  1.0000
  O   O428      1.0  0.06930  0.53206  0.19189  1.0000
  O   O429      1.0  0.46794  0.53723  0.19189  1.0000
  O   O430      1.0  0.26404  0.12943  0.97477  1.0000
  O   O431      1.0  0.86540  0.73596  0.97477  1.0000
  O   O432      1.0  0.87057  0.13460  0.97477  1.0000
  O   O433      1.0  0.37258  0.23719  0.14062  1.0000
  O   O434      1.0  0.76281  0.13539  0.14062  1.0000
  O   O435      1.0  0.86461  0.62742  0.14062  1.0000
  O   O436      1.0  0.23719  0.37258  0.35938  1.0000
  O   O437      1.0  0.13539  0.76281  0.35938  1.0000
  O   O438      1.0  0.62742  0.86461  0.35938  1.0000
  O   O439      1.0  0.03925  0.57052  0.47395  1.0000
  O   O440      1.0  0.42948  0.46872  0.47395  1.0000
  O   O441      1.0  0.53128  0.96075  0.47395  1.0000
  O   O442      1.0  0.90386  0.70591  0.69271  1.0000
  O   O443      1.0  0.80206  0.09614  0.69271  1.0000
  O   O444      1.0  0.29409  0.19794  0.69271  1.0000
  O   O445      1.0  0.70591  0.90386  0.80729  1.0000
  O   O446      1.0  0.09614  0.80206  0.80729  1.0000
  O   O447      1.0  0.19794  0.29409  0.80729  1.0000
  O   O448      1.0  0.57052  0.03925  0.02605  1.0000
  O   O449      1.0  0.46872  0.42948  0.02605  1.0000
  O   O450      1.0  0.96075  0.53128  0.02605  1.0000
  O   O451      1.0  0.62742  0.76281  0.85938  1.0000
  O   O452      1.0  0.23719  0.86461  0.85938  1.0000
  O   O453      1.0  0.13539  0.37258  0.85938  1.0000
  O   O454      1.0  0.76281  0.62742  0.64062  1.0000
  O   O455      1.0  0.86461  0.23719  0.64062  1.0000
  O   O456      1.0  0.37258  0.13539  0.64062  1.0000
  O   O457      1.0  0.96075  0.42948  0.52605  1.0000
  O   O458      1.0  0.57052  0.53128  0.52605  1.0000
  O   O459      1.0  0.46872  0.03925  0.52605  1.0000
  O   O460      1.0  0.09614  0.29409  0.30729  1.0000
  O   O461      1.0  0.19794  0.90386  0.30729  1.0000
  O   O462      1.0  0.70591  0.80206  0.30729  1.0000
  O   O463      1.0  0.29409  0.09614  0.19271  1.0000
  O   O464      1.0  0.90386  0.19794  0.19271  1.0000
  O   O465      1.0  0.80206  0.70591  0.19271  1.0000
  O   O466      1.0  0.42948  0.96075  0.97395  1.0000
  O   O467      1.0  0.53128  0.57052  0.97395  1.0000
  O   O468      1.0  0.03925  0.46872  0.97395  1.0000
  O   O469      1.0  0.26690  0.13729  0.13530  1.0000
  O   O470      1.0  0.86271  0.12961  0.13530  1.0000
  O   O471      1.0  0.87039  0.73310  0.13530  1.0000
  O   O472      1.0  0.13729  0.26690  0.36470  1.0000
  O   O473      1.0  0.12961  0.86271  0.36470  1.0000
  O   O474      1.0  0.73310  0.87039  0.36470  1.0000
  O   O475      1.0  0.93357  0.47062  0.46863  1.0000
  O   O476      1.0  0.52938  0.46294  0.46863  1.0000
  O   O477      1.0  0.53706  0.06643  0.46863  1.0000
  O   O478      1.0  0.80396  0.60023  0.69803  1.0000
  O   O479      1.0  0.79628  0.19604  0.69803  1.0000
  O   O480      1.0  0.39977  0.20372  0.69803  1.0000
  O   O481      1.0  0.60023  0.80396  0.80197  1.0000
  O   O482      1.0  0.19604  0.79628  0.80197  1.0000
  O   O483      1.0  0.20372  0.39977  0.80197  1.0000
  O   O484      1.0  0.47062  0.93357  0.03137  1.0000
  O   O485      1.0  0.46294  0.52938  0.03137  1.0000
  O   O486      1.0  0.06643  0.53706  0.03137  1.0000
  O   O487      1.0  0.73310  0.86271  0.86470  1.0000
  O   O488      1.0  0.13729  0.87039  0.86470  1.0000
  O   O489      1.0  0.12961  0.26690  0.86470  1.0000
  O   O490      1.0  0.86271  0.73310  0.63530  1.0000
  O   O491      1.0  0.87039  0.13729  0.63530  1.0000
  O   O492      1.0  0.26690  0.12961  0.63530  1.0000
  O   O493      1.0  0.06643  0.52938  0.53137  1.0000
  O   O494      1.0  0.47062  0.53706  0.53137  1.0000
  O   O495      1.0  0.46294  0.93357  0.53137  1.0000
  O   O496      1.0  0.19604  0.39977  0.30197  1.0000
  O   O497      1.0  0.20372  0.80396  0.30197  1.0000
  O   O498      1.0  0.60023  0.79628  0.30197  1.0000
  O   O499      1.0  0.39977  0.19604  0.19803  1.0000
  O   O500      1.0  0.80396  0.20372  0.19803  1.0000
  O   O501      1.0  0.79628  0.60023  0.19803  1.0000
  O   O502      1.0  0.52938  0.06643  0.96863  1.0000
  O   O503      1.0  0.53706  0.47062  0.96863  1.0000
  O   O504      1.0  0.93357  0.46294  0.96863  1.0000
  C   C109      1.0  0.01304  0.08820  0.12080  1.0000
  C   C110      1.0  0.91180  0.92484  0.12080  1.0000
  C   C111      1.0  0.07516  0.98696  0.12080  1.0000
  C   C112      1.0  0.08820  0.01304  0.37920  1.0000
  C   C113      1.0  0.92484  0.91180  0.37920  1.0000
  C   C114      1.0  0.98696  0.07516  0.37920  1.0000
  C   C115      1.0  0.67971  0.42153  0.45413  1.0000
  C   C116      1.0  0.57847  0.25817  0.45413  1.0000
  C   C117      1.0  0.74183  0.32029  0.45413  1.0000
  C   C118      1.0  0.75487  0.34637  0.71253  1.0000
  C   C119      1.0  0.59151  0.24513  0.71253  1.0000
  C   C120      1.0  0.65363  0.40849  0.71253  1.0000
  C   C121      1.0  0.34637  0.75487  0.78747  1.0000
  C   C122      1.0  0.24513  0.59151  0.78747  1.0000
  C   C123      1.0  0.40849  0.65363  0.78747  1.0000
  C   C124      1.0  0.42153  0.67971  0.04587  1.0000
  C   C125      1.0  0.25817  0.57847  0.04587  1.0000
  C   C126      1.0  0.32029  0.74183  0.04587  1.0000
  C   C127      1.0  0.98696  0.91180  0.87920  1.0000
  C   C128      1.0  0.08820  0.07516  0.87920  1.0000
  C   C129      1.0  0.92484  0.01304  0.87920  1.0000
  C   C130      1.0  0.91180  0.98696  0.62080  1.0000
  C   C131      1.0  0.07516  0.08820  0.62080  1.0000
  C   C132      1.0  0.01304  0.92484  0.62080  1.0000
  C   C133      1.0  0.32029  0.57847  0.54587  1.0000
  C   C134      1.0  0.42153  0.74183  0.54587  1.0000
  C   C135      1.0  0.25817  0.67971  0.54587  1.0000
  C   C136      1.0  0.24513  0.65363  0.28747  1.0000
  C   C137      1.0  0.40849  0.75487  0.28747  1.0000
  C   C138      1.0  0.34637  0.59151  0.28747  1.0000
  C   C139      1.0  0.65363  0.24513  0.21253  1.0000
  C   C140      1.0  0.75487  0.40849  0.21253  1.0000
  C   C141      1.0  0.59151  0.34637  0.21253  1.0000
  C   C142      1.0  0.57847  0.32029  0.95413  1.0000
  C   C143      1.0  0.74183  0.42153  0.95413  1.0000
  C   C144      1.0  0.67971  0.25817  0.95413  1.0000
  C   C145      1.0  0.07635  0.25719  0.12617  1.0000
  C   C146      1.0  0.74281  0.81916  0.12617  1.0000
  C   C147      1.0  0.18084  0.92365  0.12617  1.0000
  C   C148      1.0  0.25719  0.07635  0.37383  1.0000
  C   C149      1.0  0.81916  0.74281  0.37383  1.0000
  C   C150      1.0  0.92365  0.18084  0.37383  1.0000
  C   C151      1.0  0.74302  0.59052  0.45950  1.0000
  C   C152      1.0  0.40948  0.15249  0.45950  1.0000
  C   C153      1.0  0.84751  0.25698  0.45950  1.0000
  C   C154      1.0  0.92386  0.40968  0.70716  1.0000
  C   C155      1.0  0.48583  0.07614  0.70716  1.0000
  C   C156      1.0  0.59032  0.51417  0.70716  1.0000
  C   C157      1.0  0.40968  0.92386  0.79284  1.0000
  C   C158      1.0  0.07614  0.48583  0.79284  1.0000
  C   C159      1.0  0.51417  0.59032  0.79284  1.0000
  C   C160      1.0  0.59052  0.74302  0.04050  1.0000
  C   C161      1.0  0.15249  0.40948  0.04050  1.0000
  C   C162      1.0  0.25698  0.84751  0.04050  1.0000
  C   C163      1.0  0.92365  0.74281  0.87383  1.0000
  C   C164      1.0  0.25719  0.18084  0.87383  1.0000
  C   C165      1.0  0.81916  0.07635  0.87383  1.0000
  C   C166      1.0  0.74281  0.92365  0.62617  1.0000
  C   C167      1.0  0.18084  0.25719  0.62617  1.0000
  C   C168      1.0  0.07635  0.81916  0.62617  1.0000
  C   C169      1.0  0.25698  0.40948  0.54050  1.0000
  C   C170      1.0  0.59052  0.84751  0.54050  1.0000
  C   C171      1.0  0.15249  0.74302  0.54050  1.0000
  C   C172      1.0  0.07614  0.59032  0.29284  1.0000
  C   C173      1.0  0.51417  0.92386  0.29284  1.0000
  C   C174      1.0  0.40968  0.48583  0.29284  1.0000
  C   C175      1.0  0.59032  0.07614  0.20716  1.0000
  C   C176      1.0  0.92386  0.51417  0.20716  1.0000
  C   C177      1.0  0.48583  0.40968  0.20716  1.0000
  C   C178      1.0  0.40948  0.25698  0.95950  1.0000
  C   C179      1.0  0.84751  0.59052  0.95950  1.0000
  C   C180      1.0  0.74302  0.15249  0.95950  1.0000
  C   C181      1.0  0.24267  0.31794  0.12346  1.0000
  C   C182      1.0  0.68206  0.92473  0.12346  1.0000
  C   C183      1.0  0.07527  0.75733  0.12346  1.0000
  C   C184      1.0  0.31794  0.24267  0.37654  1.0000
  C   C185      1.0  0.92473  0.68206  0.37654  1.0000
  C   C186      1.0  0.75733  0.07527  0.37654  1.0000
  C   C187      1.0  0.90934  0.65127  0.45679  1.0000
  C   C188      1.0  0.34873  0.25806  0.45679  1.0000
  C   C189      1.0  0.74194  0.09066  0.45679  1.0000
  C   C190      1.0  0.98461  0.57600  0.70987  1.0000
  C   C191      1.0  0.59140  0.01539  0.70987  1.0000
  C   C192      1.0  0.42400  0.40860  0.70987  1.0000
  C   C193      1.0  0.57600  0.98461  0.79013  1.0000
  C   C194      1.0  0.01539  0.59140  0.79013  1.0000
  C   C195      1.0  0.40860  0.42400  0.79013  1.0000
  C   C196      1.0  0.65127  0.90934  0.04321  1.0000
  C   C197      1.0  0.25806  0.34873  0.04321  1.0000
  C   C198      1.0  0.09066  0.74194  0.04321  1.0000
  C   C199      1.0  0.75733  0.68206  0.87654  1.0000
  C   C200      1.0  0.31794  0.07527  0.87654  1.0000
  C   C201      1.0  0.92473  0.24267  0.87654  1.0000
  C   C202      1.0  0.68206  0.75733  0.62346  1.0000
  C   C203      1.0  0.07527  0.31794  0.62346  1.0000
  C   C204      1.0  0.24267  0.92473  0.62346  1.0000
  C   C205      1.0  0.09066  0.34873  0.54321  1.0000
  C   C206      1.0  0.65127  0.74194  0.54321  1.0000
  C   C207      1.0  0.25806  0.90934  0.54321  1.0000
  C   C208      1.0  0.01539  0.42400  0.29013  1.0000
  C   C209      1.0  0.40860  0.98461  0.29013  1.0000
  C   C210      1.0  0.57600  0.59140  0.29013  1.0000
  C   C211      1.0  0.42400  0.01539  0.20987  1.0000
  C   C212      1.0  0.98461  0.40860  0.20987  1.0000
  C   C213      1.0  0.59140  0.57600  0.20987  1.0000
  C   C214      1.0  0.34873  0.09066  0.95679  1.0000
  C   C215      1.0  0.74194  0.65127  0.95679  1.0000
  C   C216      1.0  0.90934  0.25806  0.95679  1.0000
  C   C217      1.0  0.25782  0.40373  0.20922  1.0000
  C   C218      1.0  0.59627  0.85409  0.20922  1.0000
  C   C219      1.0  0.14591  0.74218  0.20922  1.0000
  C   C220      1.0  0.40373  0.25782  0.29078  1.0000
  C   C221      1.0  0.85409  0.59627  0.29078  1.0000
  C   C222      1.0  0.74218  0.14591  0.29078  1.0000
  C   C223      1.0  0.92449  0.73706  0.54255  1.0000
  C   C224      1.0  0.26294  0.18742  0.54255  1.0000
  C   C225      1.0  0.81258  0.07551  0.54255  1.0000
  C   C226      1.0  0.07040  0.59115  0.62411  1.0000
  C   C227      1.0  0.52076  0.92960  0.62411  1.0000
  C   C228      1.0  0.40885  0.47924  0.62411  1.0000
  C   C229      1.0  0.59115  0.07040  0.87589  1.0000
  C   C230      1.0  0.92960  0.52076  0.87589  1.0000
  C   C231      1.0  0.47924  0.40885  0.87589  1.0000
  C   C232      1.0  0.73706  0.92449  0.95745  1.0000
  C   C233      1.0  0.18742  0.26294  0.95745  1.0000
  C   C234      1.0  0.07551  0.81258  0.95745  1.0000
  C   C235      1.0  0.74218  0.59627  0.79078  1.0000
  C   C236      1.0  0.40373  0.14591  0.79078  1.0000
  C   C237      1.0  0.85409  0.25782  0.79078  1.0000
  C   C238      1.0  0.59627  0.74218  0.70922  1.0000
  C   C239      1.0  0.14591  0.40373  0.70922  1.0000
  C   C240      1.0  0.25782  0.85409  0.70922  1.0000
  C   C241      1.0  0.07551  0.26294  0.45745  1.0000
  C   C242      1.0  0.73706  0.81258  0.45745  1.0000
  C   C243      1.0  0.18742  0.92449  0.45745  1.0000
  C   C244      1.0  0.92960  0.40885  0.37589  1.0000
  C   C245      1.0  0.47924  0.07040  0.37589  1.0000
  C   C246      1.0  0.59115  0.52076  0.37589  1.0000
  C   C247      1.0  0.40885  0.92960  0.12411  1.0000
  C   C248      1.0  0.07040  0.47924  0.12411  1.0000
  C   C249      1.0  0.52076  0.59115  0.12411  1.0000
  C   C250      1.0  0.26294  0.07551  0.04255  1.0000
  C   C251      1.0  0.81258  0.73706  0.04255  1.0000
  C   C252      1.0  0.92449  0.18742  0.04255  1.0000
  C   C253      1.0  0.09484  0.34589  0.21207  1.0000
  C   C254      1.0  0.65411  0.74895  0.21207  1.0000
  C   C255      1.0  0.25105  0.90516  0.21207  1.0000
  C   C256      1.0  0.34589  0.09484  0.28793  1.0000
  C   C257      1.0  0.74895  0.65411  0.28793  1.0000
  C   C258      1.0  0.90516  0.25105  0.28793  1.0000
  C   C259      1.0  0.76151  0.67922  0.54540  1.0000
  C   C260      1.0  0.32078  0.08228  0.54540  1.0000
  C   C261      1.0  0.91772  0.23849  0.54540  1.0000
  C   C262      1.0  0.01256  0.42817  0.62126  1.0000
  C   C263      1.0  0.41562  0.98744  0.62126  1.0000
  C   C264      1.0  0.57183  0.58438  0.62126  1.0000
  C   C265      1.0  0.42817  0.01256  0.87874  1.0000
  C   C266      1.0  0.98744  0.41562  0.87874  1.0000
  C   C267      1.0  0.58438  0.57183  0.87874  1.0000
  C   C268      1.0  0.67922  0.76151  0.95460  1.0000
  C   C269      1.0  0.08228  0.32078  0.95460  1.0000
  C   C270      1.0  0.23849  0.91772  0.95460  1.0000
  C   C271      1.0  0.90516  0.65411  0.78793  1.0000
  C   C272      1.0  0.34589  0.25105  0.78793  1.0000
  C   C273      1.0  0.74895  0.09484  0.78793  1.0000
  C   C274      1.0  0.65411  0.90516  0.71207  1.0000
  C   C275      1.0  0.25105  0.34589  0.71207  1.0000
  C   C276      1.0  0.09484  0.74895  0.71207  1.0000
  C   C277      1.0  0.23849  0.32078  0.45460  1.0000
  C   C278      1.0  0.67922  0.91772  0.45460  1.0000
  C   C279      1.0  0.08228  0.76151  0.45460  1.0000
  C   C280      1.0  0.98744  0.57183  0.37874  1.0000
  C   C281      1.0  0.58438  0.01256  0.37874  1.0000
  C   C282      1.0  0.42817  0.41562  0.37874  1.0000
  C   C283      1.0  0.57183  0.98744  0.12126  1.0000
  C   C284      1.0  0.01256  0.58438  0.12126  1.0000
  C   C285      1.0  0.41562  0.42817  0.12126  1.0000
  C   C286      1.0  0.32078  0.23849  0.04540  1.0000
  C   C287      1.0  0.91772  0.67922  0.04540  1.0000
  C   C288      1.0  0.76151  0.08228  0.04540  1.0000
  C   C289      1.0  0.35031  0.25706  0.12436  1.0000
  C   C290      1.0  0.74294  0.09325  0.12436  1.0000
  C   C291      1.0  0.90675  0.64969  0.12436  1.0000
  C   C292      1.0  0.25706  0.35031  0.37564  1.0000
  C   C293      1.0  0.09325  0.74294  0.37564  1.0000
  C   C294      1.0  0.64969  0.90675  0.37564  1.0000
  C   C295      1.0  0.01698  0.59039  0.45769  1.0000
  C   C296      1.0  0.40961  0.42658  0.45769  1.0000
  C   C297      1.0  0.57342  0.98302  0.45769  1.0000
  C   C298      1.0  0.92373  0.68364  0.70897  1.0000
  C   C299      1.0  0.75992  0.07627  0.70897  1.0000
  C   C300      1.0  0.31636  0.24008  0.70897  1.0000
  C   C301      1.0  0.68364  0.92373  0.79103  1.0000
  C   C302      1.0  0.07627  0.75992  0.79103  1.0000
  C   C303      1.0  0.24008  0.31636  0.79103  1.0000
  C   C304      1.0  0.59039  0.01698  0.04231  1.0000
  C   C305      1.0  0.42658  0.40961  0.04231  1.0000
  C   C306      1.0  0.98302  0.57342  0.04231  1.0000
  C   C307      1.0  0.64969  0.74294  0.87564  1.0000
  C   C308      1.0  0.25706  0.90675  0.87564  1.0000
  C   C309      1.0  0.09325  0.35031  0.87564  1.0000
  C   C310      1.0  0.74294  0.64969  0.62436  1.0000
  C   C311      1.0  0.90675  0.25706  0.62436  1.0000
  C   C312      1.0  0.35031  0.09325  0.62436  1.0000
  C   C313      1.0  0.98302  0.40961  0.54231  1.0000
  C   C314      1.0  0.59039  0.57342  0.54231  1.0000
  C   C315      1.0  0.42658  0.01698  0.54231  1.0000
  C   C316      1.0  0.07627  0.31636  0.29103  1.0000
  C   C317      1.0  0.24008  0.92373  0.29103  1.0000
  C   C318      1.0  0.68364  0.75992  0.29103  1.0000
  C   C319      1.0  0.31636  0.07627  0.20897  1.0000
  C   C320      1.0  0.92373  0.24008  0.20897  1.0000
  C   C321      1.0  0.75992  0.68364  0.20897  1.0000
  C   C322      1.0  0.40961  0.98302  0.95769  1.0000
  C   C323      1.0  0.57342  0.59039  0.95769  1.0000
  C   C324      1.0  0.01698  0.42658  0.95769  1.0000
  C   C325      1.0  0.24648  0.09254  0.12231  1.0000
  C   C326      1.0  0.90746  0.15394  0.12231  1.0000
  C   C327      1.0  0.84606  0.75352  0.12231  1.0000
  C   C328      1.0  0.09254  0.24648  0.37769  1.0000
  C   C329      1.0  0.15394  0.90746  0.37769  1.0000
  C   C330      1.0  0.75352  0.84606  0.37769  1.0000
  C   C331      1.0  0.91315  0.42587  0.45564  1.0000
  C   C332      1.0  0.57413  0.48727  0.45564  1.0000
  C   C333      1.0  0.51273  0.08685  0.45564  1.0000
  C   C334      1.0  0.75921  0.57981  0.71102  1.0000
  C   C335      1.0  0.82061  0.24079  0.71102  1.0000
  C   C336      1.0  0.42019  0.17939  0.71102  1.0000
  C   C337      1.0  0.57981  0.75921  0.78898  1.0000
  C   C338      1.0  0.24079  0.82061  0.78898  1.0000
  C   C339      1.0  0.17939  0.42019  0.78898  1.0000
  C   C340      1.0  0.42587  0.91315  0.04436  1.0000
  C   C341      1.0  0.48727  0.57413  0.04436  1.0000
  C   C342      1.0  0.08685  0.51273  0.04436  1.0000
  C   C343      1.0  0.75352  0.90746  0.87769  1.0000
  C   C344      1.0  0.09254  0.84606  0.87769  1.0000
  C   C345      1.0  0.15394  0.24648  0.87769  1.0000
  C   C346      1.0  0.90746  0.75352  0.62231  1.0000
  C   C347      1.0  0.84606  0.09254  0.62231  1.0000
  C   C348      1.0  0.24648  0.15394  0.62231  1.0000
  C   C349      1.0  0.08685  0.57413  0.54436  1.0000
  C   C350      1.0  0.42587  0.51273  0.54436  1.0000
  C   C351      1.0  0.48727  0.91315  0.54436  1.0000
  C   C352      1.0  0.24079  0.42019  0.28898  1.0000
  C   C353      1.0  0.17939  0.75921  0.28898  1.0000
  C   C354      1.0  0.57981  0.82061  0.28898  1.0000
  C   C355      1.0  0.42019  0.24079  0.21102  1.0000
  C   C356      1.0  0.75921  0.17939  0.21102  1.0000
  C   C357      1.0  0.82061  0.57981  0.21102  1.0000
  C   C358      1.0  0.57413  0.08685  0.95564  1.0000
  C   C359      1.0  0.51273  0.42587  0.95564  1.0000
  C   C360      1.0  0.91315  0.48727  0.95564  1.0000
  O   O505      1.0  0.03187  0.13546  0.11355  1.0000
  O   O506      1.0  0.86454  0.89641  0.11355  1.0000
  O   O507      1.0  0.10359  0.96813  0.11355  1.0000
  O   O508      1.0  0.13546  0.03187  0.38645  1.0000
  O   O509      1.0  0.89641  0.86454  0.38645  1.0000
  O   O510      1.0  0.96813  0.10359  0.38645  1.0000
  O   O511      1.0  0.69854  0.46879  0.44688  1.0000
  O   O512      1.0  0.53121  0.22974  0.44688  1.0000
  O   O513      1.0  0.77026  0.30146  0.44688  1.0000
  O   O514      1.0  0.80213  0.36520  0.71978  1.0000
  O   O515      1.0  0.56308  0.19787  0.71978  1.0000
  O   O516      1.0  0.63480  0.43692  0.71978  1.0000
  O   O517      1.0  0.36520  0.80213  0.78022  1.0000
  O   O518      1.0  0.19787  0.56308  0.78022  1.0000
  O   O519      1.0  0.43692  0.63480  0.78022  1.0000
  O   O520      1.0  0.46879  0.69854  0.05312  1.0000
  O   O521      1.0  0.22974  0.53121  0.05312  1.0000
  O   O522      1.0  0.30146  0.77026  0.05312  1.0000
  O   O523      1.0  0.96813  0.86454  0.88645  1.0000
  O   O524      1.0  0.13546  0.10359  0.88645  1.0000
  O   O525      1.0  0.89641  0.03187  0.88645  1.0000
  O   O526      1.0  0.86454  0.96813  0.61355  1.0000
  O   O527      1.0  0.10359  0.13546  0.61355  1.0000
  O   O528      1.0  0.03187  0.89641  0.61355  1.0000
  O   O529      1.0  0.30146  0.53121  0.55312  1.0000
  O   O530      1.0  0.46879  0.77026  0.55312  1.0000
  O   O531      1.0  0.22974  0.69854  0.55312  1.0000
  O   O532      1.0  0.19787  0.63480  0.28022  1.0000
  O   O533      1.0  0.43692  0.80213  0.28022  1.0000
  O   O534      1.0  0.36520  0.56308  0.28022  1.0000
  O   O535      1.0  0.63480  0.19787  0.21978  1.0000
  O   O536      1.0  0.80213  0.43692  0.21978  1.0000
  O   O537      1.0  0.56308  0.36520  0.21978  1.0000
  O   O538      1.0  0.53121  0.30146  0.94688  1.0000
  O   O539      1.0  0.77026  0.46879  0.94688  1.0000
  O   O540      1.0  0.69854  0.22974  0.94688  1.0000
  H   H109      1.0  0.97870  0.06470  0.11300  1.0000
  H   H110      1.0  0.93530  0.91400  0.11300  1.0000
  H   H111      1.0  0.08600  0.02130  0.11300  1.0000
  H   H112      1.0  0.06470  0.97870  0.38700  1.0000
  H   H113      1.0  0.91400  0.93530  0.38700  1.0000
  H   H114      1.0  0.02130  0.08600  0.38700  1.0000
  H   H115      1.0  0.64537  0.39803  0.44633  1.0000
  H   H116      1.0  0.60197  0.24733  0.44633  1.0000
  H   H117      1.0  0.75267  0.35463  0.44633  1.0000
  H   H118      1.0  0.73137  0.31203  0.72033  1.0000
  H   H119      1.0  0.58067  0.26863  0.72033  1.0000
  H   H120      1.0  0.68797  0.41933  0.72033  1.0000
  H   H121      1.0  0.31203  0.73137  0.77967  1.0000
  H   H122      1.0  0.26863  0.58067  0.77967  1.0000
  H   H123      1.0  0.41933  0.68797  0.77967  1.0000
  H   H124      1.0  0.39803  0.64537  0.05367  1.0000
  H   H125      1.0  0.24733  0.60197  0.05367  1.0000
  H   H126      1.0  0.35463  0.75267  0.05367  1.0000
  H   H127      1.0  0.02130  0.93530  0.88700  1.0000
  H   H128      1.0  0.06470  0.08600  0.88700  1.0000
  H   H129      1.0  0.91400  0.97870  0.88700  1.0000
  H   H130      1.0  0.93530  0.02130  0.61300  1.0000
  H   H131      1.0  0.08600  0.06470  0.61300  1.0000
  H   H132      1.0  0.97870  0.91400  0.61300  1.0000
  H   H133      1.0  0.35463  0.60197  0.55367  1.0000
  H   H134      1.0  0.39803  0.75267  0.55367  1.0000
  H   H135      1.0  0.24733  0.64537  0.55367  1.0000
  H   H136      1.0  0.26863  0.68797  0.27967  1.0000
  H   H137      1.0  0.41933  0.73137  0.27967  1.0000
  H   H138      1.0  0.31203  0.58067  0.27967  1.0000
  H   H139      1.0  0.68797  0.26863  0.22033  1.0000
  H   H140      1.0  0.73137  0.41933  0.22033  1.0000
  H   H141      1.0  0.58067  0.31203  0.22033  1.0000
  H   H142      1.0  0.60197  0.35463  0.94633  1.0000
  H   H143      1.0  0.75267  0.39803  0.94633  1.0000
  H   H144      1.0  0.64537  0.24733  0.94633  1.0000
  O   O541      1.0  0.03180  0.23494  0.11362  1.0000
  O   O542      1.0  0.76506  0.79686  0.11362  1.0000
  O   O543      1.0  0.20314  0.96820  0.11362  1.0000
  O   O544      1.0  0.23494  0.03180  0.38638  1.0000
  O   O545      1.0  0.79686  0.76506  0.38638  1.0000
  O   O546      1.0  0.96820  0.20314  0.38638  1.0000
  O   O547      1.0  0.69847  0.56827  0.44695  1.0000
  O   O548      1.0  0.43173  0.13019  0.44695  1.0000
  O   O549      1.0  0.86981  0.30153  0.44695  1.0000
  O   O550      1.0  0.90161  0.36513  0.71971  1.0000
  O   O551      1.0  0.46353  0.09839  0.71971  1.0000
  O   O552      1.0  0.63487  0.53647  0.71971  1.0000
  O   O553      1.0  0.36513  0.90161  0.78029  1.0000
  O   O554      1.0  0.09839  0.46353  0.78029  1.0000
  O   O555      1.0  0.53647  0.63487  0.78029  1.0000
  O   O556      1.0  0.56827  0.69847  0.05305  1.0000
  O   O557      1.0  0.13019  0.43173  0.05305  1.0000
  O   O558      1.0  0.30153  0.86981  0.05305  1.0000
  O   O559      1.0  0.96820  0.76506  0.88638  1.0000
  O   O560      1.0  0.23494  0.20314  0.88638  1.0000
  O   O561      1.0  0.79686  0.03180  0.88638  1.0000
  O   O562      1.0  0.76506  0.96820  0.61362  1.0000
  O   O563      1.0  0.20314  0.23494  0.61362  1.0000
  O   O564      1.0  0.03180  0.79686  0.61362  1.0000
  O   O565      1.0  0.30153  0.43173  0.55305  1.0000
  O   O566      1.0  0.56827  0.86981  0.55305  1.0000
  O   O567      1.0  0.13019  0.69847  0.55305  1.0000
  O   O568      1.0  0.09839  0.63487  0.28029  1.0000
  O   O569      1.0  0.53647  0.90161  0.28029  1.0000
  O   O570      1.0  0.36513  0.46353  0.28029  1.0000
  O   O571      1.0  0.63487  0.09839  0.21971  1.0000
  O   O572      1.0  0.90161  0.53647  0.21971  1.0000
  O   O573      1.0  0.46353  0.36513  0.21971  1.0000
  O   O574      1.0  0.43173  0.30153  0.94695  1.0000
  O   O575      1.0  0.86981  0.56827  0.94695  1.0000
  O   O576      1.0  0.69847  0.13019  0.94695  1.0000
  H   H145      1.0  0.09480  0.23860  0.12650  1.0000
  H   H146      1.0  0.76140  0.85620  0.12650  1.0000
  H   H147      1.0  0.14380  0.90520  0.12650  1.0000
  H   H148      1.0  0.23860  0.09480  0.37350  1.0000
  H   H149      1.0  0.85620  0.76140  0.37350  1.0000
  H   H150      1.0  0.90520  0.14380  0.37350  1.0000
  H   H151      1.0  0.76147  0.57193  0.45983  1.0000
  H   H152      1.0  0.42807  0.18953  0.45983  1.0000
  H   H153      1.0  0.81047  0.23853  0.45983  1.0000
  H   H154      1.0  0.90527  0.42813  0.70683  1.0000
  H   H155      1.0  0.52287  0.09473  0.70683  1.0000
  H   H156      1.0  0.57187  0.47713  0.70683  1.0000
  H   H157      1.0  0.42813  0.90527  0.79317  1.0000
  H   H158      1.0  0.09473  0.52287  0.79317  1.0000
  H   H159      1.0  0.47713  0.57187  0.79317  1.0000
  H   H160      1.0  0.57193  0.76147  0.04017  1.0000
  H   H161      1.0  0.18953  0.42807  0.04017  1.0000
  H   H162      1.0  0.23853  0.81047  0.04017  1.0000
  H   H163      1.0  0.90520  0.76140  0.87350  1.0000
  H   H164      1.0  0.23860  0.14380  0.87350  1.0000
  H   H165      1.0  0.85620  0.09480  0.87350  1.0000
  H   H166      1.0  0.76140  0.90520  0.62650  1.0000
  H   H167      1.0  0.14380  0.23860  0.62650  1.0000
  H   H168      1.0  0.09480  0.85620  0.62650  1.0000
  H   H169      1.0  0.23853  0.42807  0.54017  1.0000
  H   H170      1.0  0.57193  0.81047  0.54017  1.0000
  H   H171      1.0  0.18953  0.76147  0.54017  1.0000
  H   H172      1.0  0.09473  0.57187  0.29317  1.0000
  H   H173      1.0  0.47713  0.90527  0.29317  1.0000
  H   H174      1.0  0.42813  0.52287  0.29317  1.0000
  H   H175      1.0  0.57187  0.09473  0.20683  1.0000
  H   H176      1.0  0.90527  0.47713  0.20683  1.0000
  H   H177      1.0  0.52287  0.42813  0.20683  1.0000
  H   H178      1.0  0.42807  0.23853  0.95983  1.0000
  H   H179      1.0  0.81047  0.57193  0.95983  1.0000
  H   H180      1.0  0.76147  0.18953  0.95983  1.0000
  O   O577      1.0  0.26799  0.29645  0.11334  1.0000
  O   O578      1.0  0.70355  0.97154  0.11334  1.0000
  O   O579      1.0  0.02846  0.73201  0.11334  1.0000
  O   O580      1.0  0.29645  0.26799  0.38666  1.0000
  O   O581      1.0  0.97154  0.70355  0.38666  1.0000
  O   O582      1.0  0.73201  0.02846  0.38666  1.0000
  O   O583      1.0  0.93466  0.62978  0.44667  1.0000
  O   O584      1.0  0.37022  0.30487  0.44667  1.0000
  O   O585      1.0  0.69513  0.06534  0.44667  1.0000
  O   O586      1.0  0.96312  0.60132  0.71999  1.0000
  O   O587      1.0  0.63821  0.03688  0.71999  1.0000
  O   O588      1.0  0.39868  0.36179  0.71999  1.0000
  O   O589      1.0  0.60132  0.96312  0.78001  1.0000
  O   O590      1.0  0.03688  0.63821  0.78001  1.0000
  O   O591      1.0  0.36179  0.39868  0.78001  1.0000
  O   O592      1.0  0.62978  0.93466  0.05333  1.0000
  O   O593      1.0  0.30487  0.37022  0.05333  1.0000
  O   O594      1.0  0.06534  0.69513  0.05333  1.0000
  O   O595      1.0  0.73201  0.70355  0.88666  1.0000
  O   O596      1.0  0.29645  0.02846  0.88666  1.0000
  O   O597      1.0  0.97154  0.26799  0.88666  1.0000
  O   O598      1.0  0.70355  0.73201  0.61334  1.0000
  O   O599      1.0  0.02846  0.29645  0.61334  1.0000
  O   O600      1.0  0.26799  0.97154  0.61334  1.0000
  O   O601      1.0  0.06534  0.37022  0.55333  1.0000
  O   O602      1.0  0.62978  0.69513  0.55333  1.0000
  O   O603      1.0  0.30487  0.93466  0.55333  1.0000
  O   O604      1.0  0.03688  0.39868  0.28001  1.0000
  O   O605      1.0  0.36179  0.96312  0.28001  1.0000
  O   O606      1.0  0.60132  0.63821  0.28001  1.0000
  O   O607      1.0  0.39868  0.03688  0.21999  1.0000
  O   O608      1.0  0.96312  0.36179  0.21999  1.0000
  O   O609      1.0  0.63821  0.60132  0.21999  1.0000
  O   O610      1.0  0.37022  0.06534  0.94667  1.0000
  O   O611      1.0  0.69513  0.62978  0.94667  1.0000
  O   O612      1.0  0.93466  0.30487  0.94667  1.0000
  H   H181      1.0  0.25830  0.35470  0.12080  1.0000
  H   H182      1.0  0.64530  0.90360  0.12080  1.0000
  H   H183      1.0  0.09640  0.74170  0.12080  1.0000
  H   H184      1.0  0.35470  0.25830  0.37920  1.0000
  H   H185      1.0  0.90360  0.64530  0.37920  1.0000
  H   H186      1.0  0.74170  0.09640  0.37920  1.0000
  H   H187      1.0  0.92497  0.68803  0.45413  1.0000
  H   H188      1.0  0.31197  0.23693  0.45413  1.0000
  H   H189      1.0  0.76307  0.07503  0.45413  1.0000
  H   H190      1.0  0.02137  0.59163  0.71253  1.0000
  H   H191      1.0  0.57027  0.97863  0.71253  1.0000
  H   H192      1.0  0.40837  0.42973  0.71253  1.0000
  H   H193      1.0  0.59163  0.02137  0.78747  1.0000
  H   H194      1.0  0.97863  0.57027  0.78747  1.0000
  H   H195      1.0  0.42973  0.40837  0.78747  1.0000
  H   H196      1.0  0.68803  0.92497  0.04587  1.0000
  H   H197      1.0  0.23693  0.31197  0.04587  1.0000
  H   H198      1.0  0.07503  0.76307  0.04587  1.0000
  H   H199      1.0  0.74170  0.64530  0.87920  1.0000
  H   H200      1.0  0.35470  0.09640  0.87920  1.0000
  H   H201      1.0  0.90360  0.25830  0.87920  1.0000
  H   H202      1.0  0.64530  0.74170  0.62080  1.0000
  H   H203      1.0  0.09640  0.35470  0.62080  1.0000
  H   H204      1.0  0.25830  0.90360  0.62080  1.0000
  H   H205      1.0  0.07503  0.31197  0.54587  1.0000
  H   H206      1.0  0.68803  0.76307  0.54587  1.0000
  H   H207      1.0  0.23693  0.92497  0.54587  1.0000
  H   H208      1.0  0.97863  0.40837  0.28747  1.0000
  H   H209      1.0  0.42973  0.02137  0.28747  1.0000
  H   H210      1.0  0.59163  0.57027  0.28747  1.0000
  H   H211      1.0  0.40837  0.97863  0.21253  1.0000
  H   H212      1.0  0.02137  0.42973  0.21253  1.0000
  H   H213      1.0  0.57027  0.59163  0.21253  1.0000
  H   H214      1.0  0.31197  0.07503  0.95413  1.0000
  H   H215      1.0  0.76307  0.68803  0.95413  1.0000
  H   H216      1.0  0.92497  0.23693  0.95413  1.0000
  O   O613      1.0  0.30489  0.43039  0.21821  1.0000
  O   O614      1.0  0.56961  0.87450  0.21821  1.0000
  O   O615      1.0  0.12550  0.69511  0.21821  1.0000
  O   O616      1.0  0.43039  0.30489  0.28179  1.0000
  O   O617      1.0  0.87450  0.56961  0.28179  1.0000
  O   O618      1.0  0.69511  0.12550  0.28179  1.0000
  O   O619      1.0  0.97156  0.76372  0.55154  1.0000
  O   O620      1.0  0.23628  0.20783  0.55154  1.0000
  O   O621      1.0  0.79217  0.02844  0.55154  1.0000
  O   O622      1.0  0.09706  0.63822  0.61512  1.0000
  O   O623      1.0  0.54117  0.90294  0.61512  1.0000
  O   O624      1.0  0.36178  0.45883  0.61512  1.0000
  O   O625      1.0  0.63822  0.09706  0.88488  1.0000
  O   O626      1.0  0.90294  0.54117  0.88488  1.0000
  O   O627      1.0  0.45883  0.36178  0.88488  1.0000
  O   O628      1.0  0.76372  0.97156  0.94846  1.0000
  O   O629      1.0  0.20783  0.23628  0.94846  1.0000
  O   O630      1.0  0.02844  0.79217  0.94846  1.0000
  O   O631      1.0  0.69511  0.56961  0.78179  1.0000
  O   O632      1.0  0.43039  0.12550  0.78179  1.0000
  O   O633      1.0  0.87450  0.30489  0.78179  1.0000
  O   O634      1.0  0.56961  0.69511  0.71821  1.0000
  O   O635      1.0  0.12550  0.43039  0.71821  1.0000
  O   O636      1.0  0.30489  0.87450  0.71821  1.0000
  O   O637      1.0  0.02844  0.23628  0.44846  1.0000
  O   O638      1.0  0.76372  0.79217  0.44846  1.0000
  O   O639      1.0  0.20783  0.97156  0.44846  1.0000
  O   O640      1.0  0.90294  0.36178  0.38488  1.0000
  O   O641      1.0  0.45883  0.09706  0.38488  1.0000
  O   O642      1.0  0.63822  0.54117  0.38488  1.0000
  O   O643      1.0  0.36178  0.90294  0.11512  1.0000
  O   O644      1.0  0.09706  0.45883  0.11512  1.0000
  O   O645      1.0  0.54117  0.63822  0.11512  1.0000
  O   O646      1.0  0.23628  0.02844  0.05154  1.0000
  O   O647      1.0  0.79217  0.76372  0.05154  1.0000
  O   O648      1.0  0.97156  0.20783  0.05154  1.0000
  H   H217      1.0  0.23510  0.41670  0.21480  1.0000
  H   H218      1.0  0.58330  0.81840  0.21480  1.0000
  H   H219      1.0  0.18160  0.76490  0.21480  1.0000
  H   H220      1.0  0.41670  0.23510  0.28520  1.0000
  H   H221      1.0  0.81840  0.58330  0.28520  1.0000
  H   H222      1.0  0.76490  0.18160  0.28520  1.0000
  H   H223      1.0  0.90177  0.75003  0.54813  1.0000
  H   H224      1.0  0.24997  0.15173  0.54813  1.0000
  H   H225      1.0  0.84827  0.09823  0.54813  1.0000
  H   H226      1.0  0.08337  0.56843  0.61853  1.0000
  H   H227      1.0  0.48507  0.91663  0.61853  1.0000
  H   H228      1.0  0.43157  0.51493  0.61853  1.0000
  H   H229      1.0  0.56843  0.08337  0.88147  1.0000
  H   H230      1.0  0.91663  0.48507  0.88147  1.0000
  H   H231      1.0  0.51493  0.43157  0.88147  1.0000
  H   H232      1.0  0.75003  0.90177  0.95187  1.0000
  H   H233      1.0  0.15173  0.24997  0.95187  1.0000
  H   H234      1.0  0.09823  0.84827  0.95187  1.0000
  H   H235      1.0  0.76490  0.58330  0.78520  1.0000
  H   H236      1.0  0.41670  0.18160  0.78520  1.0000
  H   H237      1.0  0.81840  0.23510  0.78520  1.0000
  H   H238      1.0  0.58330  0.76490  0.71480  1.0000
  H   H239      1.0  0.18160  0.41670  0.71480  1.0000
  H   H240      1.0  0.23510  0.81840  0.71480  1.0000
  H   H241      1.0  0.09823  0.24997  0.45187  1.0000
  H   H242      1.0  0.75003  0.84827  0.45187  1.0000
  H   H243      1.0  0.15173  0.90177  0.45187  1.0000
  H   H244      1.0  0.91663  0.43157  0.38147  1.0000
  H   H245      1.0  0.51493  0.08337  0.38147  1.0000
  H   H246      1.0  0.56843  0.48507  0.38147  1.0000
  H   H247      1.0  0.43157  0.91663  0.11853  1.0000
  H   H248      1.0  0.08337  0.51493  0.11853  1.0000
  H   H249      1.0  0.48507  0.56843  0.11853  1.0000
  H   H250      1.0  0.24997  0.09823  0.04813  1.0000
  H   H251      1.0  0.84827  0.75003  0.04813  1.0000
  H   H252      1.0  0.90177  0.15173  0.04813  1.0000
  O   O649      1.0  0.06667  0.36534  0.21857  1.0000
  O   O650      1.0  0.63466  0.70133  0.21857  1.0000
  O   O651      1.0  0.29867  0.93333  0.21857  1.0000
  O   O652      1.0  0.36534  0.06667  0.28143  1.0000
  O   O653      1.0  0.70133  0.63466  0.28143  1.0000
  O   O654      1.0  0.93333  0.29867  0.28143  1.0000
  O   O655      1.0  0.73334  0.69867  0.55190  1.0000
  O   O656      1.0  0.30133  0.03466  0.55190  1.0000
  O   O657      1.0  0.96534  0.26666  0.55190  1.0000
  O   O658      1.0  0.03201  0.40000  0.61476  1.0000
  O   O659      1.0  0.36800  0.96799  0.61476  1.0000
  O   O660      1.0  0.60000  0.63200  0.61476  1.0000
  O   O661      1.0  0.40000  0.03201  0.88524  1.0000
  O   O662      1.0  0.96799  0.36800  0.88524  1.0000
  O   O663      1.0  0.63200  0.60000  0.88524  1.0000
  O   O664      1.0  0.69867  0.73334  0.94810  1.0000
  O   O665      1.0  0.03466  0.30133  0.94810  1.0000
  O   O666      1.0  0.26666  0.96534  0.94810  1.0000
  O   O667      1.0  0.93333  0.63466  0.78143  1.0000
  O   O668      1.0  0.36534  0.29867  0.78143  1.0000
  O   O669      1.0  0.70133  0.06667  0.78143  1.0000
  O   O670      1.0  0.63466  0.93333  0.71857  1.0000
  O   O671      1.0  0.29867  0.36534  0.71857  1.0000
  O   O672      1.0  0.06667  0.70133  0.71857  1.0000
  O   O673      1.0  0.26666  0.30133  0.44810  1.0000
  O   O674      1.0  0.69867  0.96534  0.44810  1.0000
  O   O675      1.0  0.03466  0.73334  0.44810  1.0000
  O   O676      1.0  0.96799  0.60000  0.38524  1.0000
  O   O677      1.0  0.63200  0.03201  0.38524  1.0000
  O   O678      1.0  0.40000  0.36800  0.38524  1.0000
  O   O679      1.0  0.60000  0.96799  0.11476  1.0000
  O   O680      1.0  0.03201  0.63200  0.11476  1.0000
  O   O681      1.0  0.36800  0.40000  0.11476  1.0000
  O   O682      1.0  0.30133  0.26666  0.05190  1.0000
  O   O683      1.0  0.96534  0.69867  0.05190  1.0000
  O   O684      1.0  0.73334  0.03466  0.05190  1.0000
  H   H253      1.0  0.08300  0.31110  0.21920  1.0000
  H   H254      1.0  0.68890  0.77190  0.21920  1.0000
  H   H255      1.0  0.22810  0.91700  0.21920  1.0000
  H   H256      1.0  0.31110  0.08300  0.28080  1.0000
  H   H257      1.0  0.77190  0.68890  0.28080  1.0000
  H   H258      1.0  0.91700  0.22810  0.28080  1.0000
  H   H259      1.0  0.74967  0.64443  0.55253  1.0000
  H   H260      1.0  0.35557  0.10523  0.55253  1.0000
  H   H261      1.0  0.89477  0.25033  0.55253  1.0000
  H   H262      1.0  0.97777  0.41633  0.61413  1.0000
  H   H263      1.0  0.43857  0.02223  0.61413  1.0000
  H   H264      1.0  0.58367  0.56143  0.61413  1.0000
  H   H265      1.0  0.41633  0.97777  0.88587  1.0000
  H   H266      1.0  0.02223  0.43857  0.88587  1.0000
  H   H267      1.0  0.56143  0.58367  0.88587  1.0000
  H   H268      1.0  0.64443  0.74967  0.94747  1.0000
  H   H269      1.0  0.10523  0.35557  0.94747  1.0000
  H   H270      1.0  0.25033  0.89477  0.94747  1.0000
  H   H271      1.0  0.91700  0.68890  0.78080  1.0000
  H   H272      1.0  0.31110  0.22810  0.78080  1.0000
  H   H273      1.0  0.77190  0.08300  0.78080  1.0000
  H   H274      1.0  0.68890  0.91700  0.71920  1.0000
  H   H275      1.0  0.22810  0.31110  0.71920  1.0000
  H   H276      1.0  0.08300  0.77190  0.71920  1.0000
  H   H277      1.0  0.25033  0.35557  0.44747  1.0000
  H   H278      1.0  0.64443  0.89477  0.44747  1.0000
  H   H279      1.0  0.10523  0.74967  0.44747  1.0000
  H   H280      1.0  0.02223  0.58367  0.38587  1.0000
  H   H281      1.0  0.56143  0.97777  0.38587  1.0000
  H   H282      1.0  0.41633  0.43857  0.38587  1.0000
  H   H283      1.0  0.58367  0.02223  0.11413  1.0000
  H   H284      1.0  0.97777  0.56143  0.11413  1.0000
  H   H285      1.0  0.43857  0.41633  0.11413  1.0000
  H   H286      1.0  0.35557  0.25033  0.05253  1.0000
  H   H287      1.0  0.89477  0.64443  0.05253  1.0000
  H   H288      1.0  0.74967  0.10523  0.05253  1.0000
  O   O685      1.0  0.37114  0.30342  0.11470  1.0000
  O   O686      1.0  0.69658  0.06772  0.11470  1.0000
  O   O687      1.0  0.93228  0.62886  0.11470  1.0000
  O   O688      1.0  0.30342  0.37114  0.38530  1.0000
  O   O689      1.0  0.06772  0.69658  0.38530  1.0000
  O   O690      1.0  0.62886  0.93228  0.38530  1.0000
  O   O691      1.0  0.03781  0.63675  0.44803  1.0000
  O   O692      1.0  0.36325  0.40105  0.44803  1.0000
  O   O693      1.0  0.59895  0.96219  0.44803  1.0000
  O   O694      1.0  0.97009  0.70447  0.71863  1.0000
  O   O695      1.0  0.73439  0.02991  0.71863  1.0000
  O   O696      1.0  0.29553  0.26561  0.71863  1.0000
  O   O697      1.0  0.70447  0.97009  0.78137  1.0000
  O   O698      1.0  0.02991  0.73439  0.78137  1.0000
  O   O699      1.0  0.26561  0.29553  0.78137  1.0000
  O   O700      1.0  0.63675  0.03781  0.05197  1.0000
  O   O701      1.0  0.40105  0.36325  0.05197  1.0000
  O   O702      1.0  0.96219  0.59895  0.05197  1.0000
  O   O703      1.0  0.62886  0.69658  0.88530  1.0000
  O   O704      1.0  0.30342  0.93228  0.88530  1.0000
  O   O705      1.0  0.06772  0.37114  0.88530  1.0000
  O   O706      1.0  0.69658  0.62886  0.61470  1.0000
  O   O707      1.0  0.93228  0.30342  0.61470  1.0000
  O   O708      1.0  0.37114  0.06772  0.61470  1.0000
  O   O709      1.0  0.96219  0.36325  0.55197  1.0000
  O   O710      1.0  0.63675  0.59895  0.55197  1.0000
  O   O711      1.0  0.40105  0.03781  0.55197  1.0000
  O   O712      1.0  0.02991  0.29553  0.28137  1.0000
  O   O713      1.0  0.26561  0.97009  0.28137  1.0000
  O   O714      1.0  0.70447  0.73439  0.28137  1.0000
  O   O715      1.0  0.29553  0.02991  0.21863  1.0000
  O   O716      1.0  0.97009  0.26561  0.21863  1.0000
  O   O717      1.0  0.73439  0.70447  0.21863  1.0000
  O   O718      1.0  0.36325  0.96219  0.94803  1.0000
  O   O719      1.0  0.59895  0.63675  0.94803  1.0000
  O   O720      1.0  0.03781  0.40105  0.94803  1.0000
  H   H289      1.0  0.31450  0.23490  0.11890  1.0000
  H   H290      1.0  0.76510  0.07960  0.11890  1.0000
  H   H291      1.0  0.92040  0.68550  0.11890  1.0000
  H   H292      1.0  0.23490  0.31450  0.38110  1.0000
  H   H293      1.0  0.07960  0.76510  0.38110  1.0000
  H   H294      1.0  0.68550  0.92040  0.38110  1.0000
  H   H295      1.0  0.98117  0.56823  0.45223  1.0000
  H   H296      1.0  0.43177  0.41293  0.45223  1.0000
  H   H297      1.0  0.58707  0.01883  0.45223  1.0000
  H   H298      1.0  0.90157  0.64783  0.71443  1.0000
  H   H299      1.0  0.74627  0.09843  0.71443  1.0000
  H   H300      1.0  0.35217  0.25373  0.71443  1.0000
  H   H301      1.0  0.64783  0.90157  0.78557  1.0000
  H   H302      1.0  0.09843  0.74627  0.78557  1.0000
  H   H303      1.0  0.25373  0.35217  0.78557  1.0000
  H   H304      1.0  0.56823  0.98117  0.04777  1.0000
  H   H305      1.0  0.41293  0.43177  0.04777  1.0000
  H   H306      1.0  0.01883  0.58707  0.04777  1.0000
  H   H307      1.0  0.68550  0.76510  0.88110  1.0000
  H   H308      1.0  0.23490  0.92040  0.88110  1.0000
  H   H309      1.0  0.07960  0.31450  0.88110  1.0000
  H   H310      1.0  0.76510  0.68550  0.61890  1.0000
  H   H311      1.0  0.92040  0.23490  0.61890  1.0000
  H   H312      1.0  0.31450  0.07960  0.61890  1.0000
  H   H313      1.0  0.01883  0.43177  0.54777  1.0000
  H   H314      1.0  0.56823  0.58707  0.54777  1.0000
  H   H315      1.0  0.41293  0.98117  0.54777  1.0000
  H   H316      1.0  0.09843  0.35217  0.28557  1.0000
  H   H317      1.0  0.25373  0.90157  0.28557  1.0000
  H   H318      1.0  0.64783  0.74627  0.28557  1.0000
  H   H319      1.0  0.35217  0.09843  0.21443  1.0000
  H   H320      1.0  0.90157  0.25373  0.21443  1.0000
  H   H321      1.0  0.74627  0.64783  0.21443  1.0000
  H   H322      1.0  0.43177  0.01883  0.95223  1.0000
  H   H323      1.0  0.58707  0.56823  0.95223  1.0000
  H   H324      1.0  0.98117  0.41293  0.95223  1.0000
  O   O721      1.0  0.20168  0.06863  0.11025  1.0000
  O   O722      1.0  0.93137  0.13305  0.11025  1.0000
  O   O723      1.0  0.86695  0.79832  0.11025  1.0000
  O   O724      1.0  0.06863  0.20168  0.38975  1.0000
  O   O725      1.0  0.13305  0.93137  0.38975  1.0000
  O   O726      1.0  0.79832  0.86695  0.38975  1.0000
  O   O727      1.0  0.86835  0.40196  0.44358  1.0000
  O   O728      1.0  0.59804  0.46638  0.44358  1.0000
  O   O729      1.0  0.53362  0.13165  0.44358  1.0000
  O   O730      1.0  0.73530  0.53501  0.72308  1.0000
  O   O731      1.0  0.79972  0.26470  0.72308  1.0000
  O   O732      1.0  0.46499  0.20028  0.72308  1.0000
  O   O733      1.0  0.53501  0.73530  0.77692  1.0000
  O   O734      1.0  0.26470  0.79972  0.77692  1.0000
  O   O735      1.0  0.20028  0.46499  0.77692  1.0000
  O   O736      1.0  0.40196  0.86835  0.05642  1.0000
  O   O737      1.0  0.46638  0.59804  0.05642  1.0000
  O   O738      1.0  0.13165  0.53362  0.05642  1.0000
  O   O739      1.0  0.79832  0.93137  0.88975  1.0000
  O   O740      1.0  0.06863  0.86695  0.88975  1.0000
  O   O741      1.0  0.13305  0.20168  0.88975  1.0000
  O   O742      1.0  0.93137  0.79832  0.61025  1.0000
  O   O743      1.0  0.86695  0.06863  0.61025  1.0000
  O   O744      1.0  0.20168  0.13305  0.61025  1.0000
  O   O745      1.0  0.13165  0.59804  0.55642  1.0000
  O   O746      1.0  0.40196  0.53362  0.55642  1.0000
  O   O747      1.0  0.46638  0.86835  0.55642  1.0000
  O   O748      1.0  0.26470  0.46499  0.27692  1.0000
  O   O749      1.0  0.20028  0.73530  0.27692  1.0000
  O   O750      1.0  0.53501  0.79972  0.27692  1.0000
  O   O751      1.0  0.46499  0.26470  0.22308  1.0000
  O   O752      1.0  0.73530  0.20028  0.22308  1.0000
  O   O753      1.0  0.79972  0.53501  0.22308  1.0000
  O   O754      1.0  0.59804  0.13165  0.94358  1.0000
  O   O755      1.0  0.53362  0.40196  0.94358  1.0000
  O   O756      1.0  0.86835  0.46638  0.94358  1.0000
  H   H325      1.0  0.26670  0.07580  0.12170  1.0000
  H   H326      1.0  0.92420  0.19090  0.12170  1.0000
  H   H327      1.0  0.80910  0.73330  0.12170  1.0000
  H   H328      1.0  0.07580  0.26670  0.37830  1.0000
  H   H329      1.0  0.19090  0.92420  0.37830  1.0000
  H   H330      1.0  0.73330  0.80910  0.37830  1.0000
  H   H331      1.0  0.93337  0.40913  0.45503  1.0000
  H   H332      1.0  0.59087  0.52423  0.45503  1.0000
  H   H333      1.0  0.47577  0.06663  0.45503  1.0000
  H   H334      1.0  0.74247  0.60003  0.71163  1.0000
  H   H335      1.0  0.85757  0.25753  0.71163  1.0000
  H   H336      1.0  0.39997  0.14243  0.71163  1.0000
  H   H337      1.0  0.60003  0.74247  0.78837  1.0000
  H   H338      1.0  0.25753  0.85757  0.78837  1.0000
  H   H339      1.0  0.14243  0.39997  0.78837  1.0000
  H   H340      1.0  0.40913  0.93337  0.04497  1.0000
  H   H341      1.0  0.52423  0.59087  0.04497  1.0000
  H   H342      1.0  0.06663  0.47577  0.04497  1.0000
  H   H343      1.0  0.73330  0.92420  0.87830  1.0000
  H   H344      1.0  0.07580  0.80910  0.87830  1.0000
  H   H345      1.0  0.19090  0.26670  0.87830  1.0000
  H   H346      1.0  0.92420  0.73330  0.62170  1.0000
  H   H347      1.0  0.80910  0.07580  0.62170  1.0000
  H   H348      1.0  0.26670  0.19090  0.62170  1.0000
  H   H349      1.0  0.06663  0.59087  0.54497  1.0000
  H   H350      1.0  0.40913  0.47577  0.54497  1.0000
  H   H351      1.0  0.52423  0.93337  0.54497  1.0000
  H   H352      1.0  0.25753  0.39997  0.28837  1.0000
  H   H353      1.0  0.14243  0.74247  0.28837  1.0000
  H   H354      1.0  0.60003  0.85757  0.28837  1.0000
  H   H355      1.0  0.39997  0.25753  0.21163  1.0000
  H   H356      1.0  0.74247  0.14243  0.21163  1.0000
  H   H357      1.0  0.85757  0.60003  0.21163  1.0000
  H   H358      1.0  0.59087  0.06663  0.95503  1.0000
  H   H359      1.0  0.47577  0.40913  0.95503  1.0000
  H   H360      1.0  0.93337  0.52423  0.95503  1.0000
  Co  Co85      1.0  0.99992  0.16858  0.08230  1.0000
  Co  Co86      1.0  0.83142  0.83134  0.08230  1.0000
  Co  Co87      1.0  0.16866  0.00008  0.08230  1.0000
  Co  Co88      1.0  0.16858  0.99992  0.41770  1.0000
  Co  Co89      1.0  0.83134  0.83142  0.41770  1.0000
  Co  Co90      1.0  0.00008  0.16866  0.41770  1.0000
  Co  Co91      1.0  0.66659  0.50192  0.41563  1.0000
  Co  Co92      1.0  0.49808  0.16467  0.41563  1.0000
  Co  Co93      1.0  0.83533  0.33341  0.41563  1.0000
  Co  Co94      1.0  0.83525  0.33325  0.75103  1.0000
  Co  Co95      1.0  0.49800  0.16475  0.75103  1.0000
  Co  Co96      1.0  0.66675  0.50200  0.75103  1.0000
  Co  Co97      1.0  0.33325  0.83525  0.74897  1.0000
  Co  Co98      1.0  0.16475  0.49800  0.74897  1.0000
  Co  Co99      1.0  0.50200  0.66675  0.74897  1.0000
  Co  Co100     1.0  0.50192  0.66659  0.08437  1.0000
  Co  Co101     1.0  0.16467  0.49808  0.08437  1.0000
  Co  Co102     1.0  0.33341  0.83533  0.08437  1.0000
  Co  Co103     1.0  0.00008  0.83142  0.91770  1.0000
  Co  Co104     1.0  0.16858  0.16866  0.91770  1.0000
  Co  Co105     1.0  0.83134  0.99992  0.91770  1.0000
  Co  Co106     1.0  0.83142  0.00008  0.58230  1.0000
  Co  Co107     1.0  0.16866  0.16858  0.58230  1.0000
  Co  Co108     1.0  0.99992  0.83134  0.58230  1.0000
  Co  Co109     1.0  0.33341  0.49808  0.58437  1.0000
  Co  Co110     1.0  0.50192  0.83533  0.58437  1.0000
  Co  Co111     1.0  0.16467  0.66659  0.58437  1.0000
  Co  Co112     1.0  0.16475  0.66675  0.24897  1.0000
  Co  Co113     1.0  0.50200  0.83525  0.24897  1.0000
  Co  Co114     1.0  0.33325  0.49800  0.24897  1.0000
  Co  Co115     1.0  0.66675  0.16475  0.25103  1.0000
  Co  Co116     1.0  0.83525  0.50200  0.25103  1.0000
  Co  Co117     1.0  0.49800  0.33325  0.25103  1.0000
  Co  Co118     1.0  0.49808  0.33341  0.91563  1.0000
  Co  Co119     1.0  0.83533  0.50192  0.91563  1.0000
  Co  Co120     1.0  0.66659  0.16467  0.91563  1.0000
  Co  Co121     1.0  0.33621  0.33330  0.08330  1.0000
  Co  Co122     1.0  0.66670  0.00291  0.08330  1.0000
  Co  Co123     1.0  0.99709  0.66379  0.08330  1.0000
  Co  Co124     1.0  0.33330  0.33621  0.41670  1.0000
  Co  Co125     1.0  0.00291  0.66670  0.41670  1.0000
  Co  Co126     1.0  0.66379  0.99709  0.41670  1.0000
  Co  Co127     1.0  0.99997  0.66954  0.75003  1.0000
  Co  Co128     1.0  0.66957  0.00003  0.75003  1.0000
  Co  Co129     1.0  0.33046  0.33043  0.75003  1.0000
  Co  Co130     1.0  0.66379  0.66670  0.91670  1.0000
  Co  Co131     1.0  0.33330  0.99709  0.91670  1.0000
  Co  Co132     1.0  0.00291  0.33621  0.91670  1.0000
  Co  Co133     1.0  0.66670  0.66379  0.58330  1.0000
  Co  Co134     1.0  0.99709  0.33330  0.58330  1.0000
  Co  Co135     1.0  0.33621  0.00291  0.58330  1.0000
  Co  Co136     1.0  0.00003  0.33046  0.24997  1.0000
  Co  Co137     1.0  0.33043  0.99997  0.24997  1.0000
  Co  Co138     1.0  0.66954  0.66957  0.24997  1.0000
  O   O757      1.0  0.96400  0.10199  0.05005  1.0000
  O   O758      1.0  0.89801  0.86201  0.05005  1.0000
  O   O759      1.0  0.13799  0.03600  0.05005  1.0000
  O   O760      1.0  0.10199  0.96400  0.44995  1.0000
  O   O761      1.0  0.86201  0.89801  0.44995  1.0000
  O   O762      1.0  0.03600  0.13799  0.44995  1.0000
  O   O763      1.0  0.63067  0.43532  0.38338  1.0000
  O   O764      1.0  0.56468  0.19534  0.38338  1.0000
  O   O765      1.0  0.80466  0.36933  0.38338  1.0000
  O   O766      1.0  0.76866  0.29733  0.78328  1.0000
  O   O767      1.0  0.52868  0.23134  0.78328  1.0000
  O   O768      1.0  0.70267  0.47132  0.78328  1.0000
  O   O769      1.0  0.29733  0.76866  0.71672  1.0000
  O   O770      1.0  0.23134  0.52868  0.71672  1.0000
  O   O771      1.0  0.47132  0.70267  0.71672  1.0000
  O   O772      1.0  0.43532  0.63067  0.11662  1.0000
  O   O773      1.0  0.19534  0.56468  0.11662  1.0000
  O   O774      1.0  0.36933  0.80466  0.11662  1.0000
  O   O775      1.0  0.03600  0.89801  0.94995  1.0000
  O   O776      1.0  0.10199  0.13799  0.94995  1.0000
  O   O777      1.0  0.86201  0.96400  0.94995  1.0000
  O   O778      1.0  0.89801  0.03600  0.55005  1.0000
  O   O779      1.0  0.13799  0.10199  0.55005  1.0000
  O   O780      1.0  0.96400  0.86201  0.55005  1.0000
  O   O781      1.0  0.36933  0.56468  0.61662  1.0000
  O   O782      1.0  0.43532  0.80466  0.61662  1.0000
  O   O783      1.0  0.19534  0.63067  0.61662  1.0000
  O   O784      1.0  0.23134  0.70267  0.21672  1.0000
  O   O785      1.0  0.47132  0.76866  0.21672  1.0000
  O   O786      1.0  0.29733  0.52868  0.21672  1.0000
  O   O787      1.0  0.70267  0.23134  0.28328  1.0000
  O   O788      1.0  0.76866  0.47132  0.28328  1.0000
  O   O789      1.0  0.52868  0.29733  0.28328  1.0000
  O   O790      1.0  0.56468  0.36933  0.88338  1.0000
  O   O791      1.0  0.80466  0.43532  0.88338  1.0000
  O   O792      1.0  0.63067  0.19534  0.88338  1.0000
  O   O793      1.0  0.06517  0.19990  0.05043  1.0000
  O   O794      1.0  0.80010  0.86527  0.05043  1.0000
  O   O795      1.0  0.13473  0.93483  0.05043  1.0000
  O   O796      1.0  0.19990  0.06517  0.44957  1.0000
  O   O797      1.0  0.86527  0.80010  0.44957  1.0000
  O   O798      1.0  0.93483  0.13473  0.44957  1.0000
  O   O799      1.0  0.73184  0.53323  0.38376  1.0000
  O   O800      1.0  0.46677  0.19860  0.38376  1.0000
  O   O801      1.0  0.80140  0.26816  0.38376  1.0000
  O   O802      1.0  0.86657  0.39850  0.78290  1.0000
  O   O803      1.0  0.53194  0.13343  0.78290  1.0000
  O   O804      1.0  0.60150  0.46806  0.78290  1.0000
  O   O805      1.0  0.39850  0.86657  0.71710  1.0000
  O   O806      1.0  0.13343  0.53194  0.71710  1.0000
  O   O807      1.0  0.46806  0.60150  0.71710  1.0000
  O   O808      1.0  0.53323  0.73184  0.11624  1.0000
  O   O809      1.0  0.19860  0.46677  0.11624  1.0000
  O   O810      1.0  0.26816  0.80140  0.11624  1.0000
  O   O811      1.0  0.93483  0.80010  0.94957  1.0000
  O   O812      1.0  0.19990  0.13473  0.94957  1.0000
  O   O813      1.0  0.86527  0.06517  0.94957  1.0000
  O   O814      1.0  0.80010  0.93483  0.55043  1.0000
  O   O815      1.0  0.13473  0.19990  0.55043  1.0000
  O   O816      1.0  0.06517  0.86527  0.55043  1.0000
  O   O817      1.0  0.26816  0.46677  0.61624  1.0000
  O   O818      1.0  0.53323  0.80140  0.61624  1.0000
  O   O819      1.0  0.19860  0.73184  0.61624  1.0000
  O   O820      1.0  0.13343  0.60150  0.21710  1.0000
  O   O821      1.0  0.46806  0.86657  0.21710  1.0000
  O   O822      1.0  0.39850  0.53194  0.21710  1.0000
  O   O823      1.0  0.60150  0.13343  0.28290  1.0000
  O   O824      1.0  0.86657  0.46806  0.28290  1.0000
  O   O825      1.0  0.53194  0.39850  0.28290  1.0000
  O   O826      1.0  0.46677  0.26816  0.88376  1.0000
  O   O827      1.0  0.80140  0.53323  0.88376  1.0000
  O   O828      1.0  0.73184  0.19860  0.88376  1.0000
  C   C361      1.0  0.98545  0.07632  0.04092  1.0000
  C   C362      1.0  0.92368  0.90913  0.04092  1.0000
  C   C363      1.0  0.09087  0.01455  0.04092  1.0000
  C   C364      1.0  0.07632  0.98545  0.45908  1.0000
  C   C365      1.0  0.90913  0.92368  0.45908  1.0000
  C   C366      1.0  0.01455  0.09087  0.45908  1.0000
  C   C367      1.0  0.65212  0.40965  0.37425  1.0000
  C   C368      1.0  0.59035  0.24246  0.37425  1.0000
  C   C369      1.0  0.75754  0.34788  0.37425  1.0000
  C   C370      1.0  0.74299  0.31878  0.79241  1.0000
  C   C371      1.0  0.57580  0.25701  0.79241  1.0000
  C   C372      1.0  0.68122  0.42420  0.79241  1.0000
  C   C373      1.0  0.31878  0.74299  0.70759  1.0000
  C   C374      1.0  0.25701  0.57580  0.70759  1.0000
  C   C375      1.0  0.42420  0.68122  0.70759  1.0000
  C   C376      1.0  0.40965  0.65212  0.12575  1.0000
  C   C377      1.0  0.24246  0.59035  0.12575  1.0000
  C   C378      1.0  0.34788  0.75754  0.12575  1.0000
  C   C379      1.0  0.01455  0.92368  0.95908  1.0000
  C   C380      1.0  0.07632  0.09087  0.95908  1.0000
  C   C381      1.0  0.90913  0.98545  0.95908  1.0000
  C   C382      1.0  0.92368  0.01455  0.54092  1.0000
  C   C383      1.0  0.09087  0.07632  0.54092  1.0000
  C   C384      1.0  0.98545  0.90913  0.54092  1.0000
  C   C385      1.0  0.34788  0.59035  0.62575  1.0000
  C   C386      1.0  0.40965  0.75754  0.62575  1.0000
  C   C387      1.0  0.24246  0.65212  0.62575  1.0000
  C   C388      1.0  0.25701  0.68122  0.20759  1.0000
  C   C389      1.0  0.42420  0.74299  0.20759  1.0000
  C   C390      1.0  0.31878  0.57580  0.20759  1.0000
  C   C391      1.0  0.68122  0.25701  0.29241  1.0000
  C   C392      1.0  0.74299  0.42420  0.29241  1.0000
  C   C393      1.0  0.57580  0.31878  0.29241  1.0000
  C   C394      1.0  0.59035  0.34788  0.87425  1.0000
  C   C395      1.0  0.75754  0.40965  0.87425  1.0000
  C   C396      1.0  0.65212  0.24246  0.87425  1.0000
  C   C397      1.0  0.09782  0.24744  0.04591  1.0000
  C   C398      1.0  0.75256  0.85038  0.04591  1.0000
  C   C399      1.0  0.14962  0.90218  0.04591  1.0000
  C   C400      1.0  0.24744  0.09782  0.45409  1.0000
  C   C401      1.0  0.85038  0.75256  0.45409  1.0000
  C   C402      1.0  0.90218  0.14962  0.45409  1.0000
  C   C403      1.0  0.76449  0.58077  0.37924  1.0000
  C   C404      1.0  0.41923  0.18371  0.37924  1.0000
  C   C405      1.0  0.81629  0.23551  0.37924  1.0000
  C   C406      1.0  0.91411  0.43115  0.78742  1.0000
  C   C407      1.0  0.51705  0.08589  0.78742  1.0000
  C   C408      1.0  0.56885  0.48295  0.78742  1.0000
  C   C409      1.0  0.43115  0.91411  0.71258  1.0000
  C   C410      1.0  0.08589  0.51705  0.71258  1.0000
  C   C411      1.0  0.48295  0.56885  0.71258  1.0000
  C   C412      1.0  0.58077  0.76449  0.12076  1.0000
  C   C413      1.0  0.18371  0.41923  0.12076  1.0000
  C   C414      1.0  0.23551  0.81629  0.12076  1.0000
  C   C415      1.0  0.90218  0.75256  0.95409  1.0000
  C   C416      1.0  0.24744  0.14962  0.95409  1.0000
  C   C417      1.0  0.85038  0.09782  0.95409  1.0000
  C   C418      1.0  0.75256  0.90218  0.54591  1.0000
  C   C419      1.0  0.14962  0.24744  0.54591  1.0000
  C   C420      1.0  0.09782  0.85038  0.54591  1.0000
  C   C421      1.0  0.23551  0.41923  0.62076  1.0000
  C   C422      1.0  0.58077  0.81629  0.62076  1.0000
  C   C423      1.0  0.18371  0.76449  0.62076  1.0000
  C   C424      1.0  0.08589  0.56885  0.21258  1.0000
  C   C425      1.0  0.48295  0.91411  0.21258  1.0000
  C   C426      1.0  0.43115  0.51705  0.21258  1.0000
  C   C427      1.0  0.56885  0.08589  0.28742  1.0000
  C   C428      1.0  0.91411  0.48295  0.28742  1.0000
  C   C429      1.0  0.51705  0.43115  0.28742  1.0000
  C   C430      1.0  0.41923  0.23551  0.87924  1.0000
  C   C431      1.0  0.81629  0.58077  0.87924  1.0000
  C   C432      1.0  0.76449  0.18371  0.87924  1.0000
  O   O829      1.0  0.96188  0.03187  0.02777  1.0000
  O   O830      1.0  0.96813  0.93001  0.02777  1.0000
  O   O831      1.0  0.06999  0.03812  0.02777  1.0000
  O   O832      1.0  0.03187  0.96188  0.47223  1.0000
  O   O833      1.0  0.93001  0.96813  0.47223  1.0000
  O   O834      1.0  0.03812  0.06999  0.47223  1.0000
  O   O835      1.0  0.62855  0.36520  0.36110  1.0000
  O   O836      1.0  0.63480  0.26334  0.36110  1.0000
  O   O837      1.0  0.73666  0.37145  0.36110  1.0000
  O   O838      1.0  0.69854  0.29521  0.80556  1.0000
  O   O839      1.0  0.59668  0.30146  0.80556  1.0000
  O   O840      1.0  0.70479  0.40332  0.80556  1.0000
  O   O841      1.0  0.29521  0.69854  0.69444  1.0000
  O   O842      1.0  0.30146  0.59668  0.69444  1.0000
  O   O843      1.0  0.40332  0.70479  0.69444  1.0000
  O   O844      1.0  0.36520  0.62855  0.13890  1.0000
  O   O845      1.0  0.26334  0.63480  0.13890  1.0000
  O   O846      1.0  0.37145  0.73666  0.13890  1.0000
  O   O847      1.0  0.03812  0.96813  0.97223  1.0000
  O   O848      1.0  0.03187  0.06999  0.97223  1.0000
  O   O849      1.0  0.93001  0.96188  0.97223  1.0000
  O   O850      1.0  0.96813  0.03812  0.52777  1.0000
  O   O851      1.0  0.06999  0.03187  0.52777  1.0000
  O   O852      1.0  0.96188  0.93001  0.52777  1.0000
  O   O853      1.0  0.37145  0.63480  0.63890  1.0000
  O   O854      1.0  0.36520  0.73666  0.63890  1.0000
  O   O855      1.0  0.26334  0.62855  0.63890  1.0000
  O   O856      1.0  0.30146  0.70479  0.19444  1.0000
  O   O857      1.0  0.40332  0.69854  0.19444  1.0000
  O   O858      1.0  0.29521  0.59668  0.19444  1.0000
  O   O859      1.0  0.70479  0.30146  0.30556  1.0000
  O   O860      1.0  0.69854  0.40332  0.30556  1.0000
  O   O861      1.0  0.59668  0.29521  0.30556  1.0000
  O   O862      1.0  0.63480  0.37145  0.86110  1.0000
  O   O863      1.0  0.73666  0.36520  0.86110  1.0000
  O   O864      1.0  0.62855  0.26334  0.86110  1.0000
  H   H361      1.0  0.02200  0.09180  0.04420  1.0000
  H   H362      1.0  0.90820  0.93020  0.04420  1.0000
  H   H363      1.0  0.06980  0.97800  0.04420  1.0000
  H   H364      1.0  0.09180  0.02200  0.45580  1.0000
  H   H365      1.0  0.93020  0.90820  0.45580  1.0000
  H   H366      1.0  0.97800  0.06980  0.45580  1.0000
  H   H367      1.0  0.68867  0.42513  0.37753  1.0000
  H   H368      1.0  0.57487  0.26353  0.37753  1.0000
  H   H369      1.0  0.73647  0.31133  0.37753  1.0000
  H   H370      1.0  0.75847  0.35533  0.78913  1.0000
  H   H371      1.0  0.59687  0.24153  0.78913  1.0000
  H   H372      1.0  0.64467  0.40313  0.78913  1.0000
  H   H373      1.0  0.35533  0.75847  0.71087  1.0000
  H   H374      1.0  0.24153  0.59687  0.71087  1.0000
  H   H375      1.0  0.40313  0.64467  0.71087  1.0000
  H   H376      1.0  0.42513  0.68867  0.12247  1.0000
  H   H377      1.0  0.26353  0.57487  0.12247  1.0000
  H   H378      1.0  0.31133  0.73647  0.12247  1.0000
  H   H379      1.0  0.97800  0.90820  0.95580  1.0000
  H   H380      1.0  0.09180  0.06980  0.95580  1.0000
  H   H381      1.0  0.93020  0.02200  0.95580  1.0000
  H   H382      1.0  0.90820  0.97800  0.54420  1.0000
  H   H383      1.0  0.06980  0.09180  0.54420  1.0000
  H   H384      1.0  0.02200  0.93020  0.54420  1.0000
  H   H385      1.0  0.31133  0.57487  0.62247  1.0000
  H   H386      1.0  0.42513  0.73647  0.62247  1.0000
  H   H387      1.0  0.26353  0.68867  0.62247  1.0000
  H   H388      1.0  0.24153  0.64467  0.21087  1.0000
  H   H389      1.0  0.40313  0.75847  0.21087  1.0000
  H   H390      1.0  0.35533  0.59687  0.21087  1.0000
  H   H391      1.0  0.64467  0.24153  0.28913  1.0000
  H   H392      1.0  0.75847  0.40313  0.28913  1.0000
  H   H393      1.0  0.59687  0.35533  0.28913  1.0000
  H   H394      1.0  0.57487  0.31133  0.87753  1.0000
  H   H395      1.0  0.73647  0.42513  0.87753  1.0000
  H   H396      1.0  0.68867  0.26353  0.87753  1.0000
  H   H397      1.0  0.09420  0.27230  0.05910  1.0000
  H   H398      1.0  0.72770  0.82190  0.05910  1.0000
  H   H399      1.0  0.17810  0.90580  0.05910  1.0000
  H   H400      1.0  0.27230  0.09420  0.44090  1.0000
  H   H401      1.0  0.82190  0.72770  0.44090  1.0000
  H   H402      1.0  0.90580  0.17810  0.44090  1.0000
  H   H403      1.0  0.76087  0.60563  0.39243  1.0000
  H   H404      1.0  0.39437  0.15523  0.39243  1.0000
  H   H405      1.0  0.84477  0.23913  0.39243  1.0000
  H   H406      1.0  0.93897  0.42753  0.77423  1.0000
  H   H407      1.0  0.48857  0.06103  0.77423  1.0000
  H   H408      1.0  0.57247  0.51143  0.77423  1.0000
  H   H409      1.0  0.42753  0.93897  0.72577  1.0000
  H   H410      1.0  0.06103  0.48857  0.72577  1.0000
  H   H411      1.0  0.51143  0.57247  0.72577  1.0000
  H   H412      1.0  0.60563  0.76087  0.10757  1.0000
  H   H413      1.0  0.15523  0.39437  0.10757  1.0000
  H   H414      1.0  0.23913  0.84477  0.10757  1.0000
  H   H415      1.0  0.90580  0.72770  0.94090  1.0000
  H   H416      1.0  0.27230  0.17810  0.94090  1.0000
  H   H417      1.0  0.82190  0.09420  0.94090  1.0000
  H   H418      1.0  0.72770  0.90580  0.55910  1.0000
  H   H419      1.0  0.17810  0.27230  0.55910  1.0000
  H   H420      1.0  0.09420  0.82190  0.55910  1.0000
  H   H421      1.0  0.23913  0.39437  0.60757  1.0000
  H   H422      1.0  0.60563  0.84477  0.60757  1.0000
  H   H423      1.0  0.15523  0.76087  0.60757  1.0000
  H   H424      1.0  0.06103  0.57247  0.22577  1.0000
  H   H425      1.0  0.51143  0.93897  0.22577  1.0000
  H   H426      1.0  0.42753  0.48857  0.22577  1.0000
  H   H427      1.0  0.57247  0.06103  0.27423  1.0000
  H   H428      1.0  0.93897  0.51143  0.27423  1.0000
  H   H429      1.0  0.48857  0.42753  0.27423  1.0000
  H   H430      1.0  0.39437  0.23913  0.89243  1.0000
  H   H431      1.0  0.84477  0.60563  0.89243  1.0000
  H   H432      1.0  0.76087  0.15523  0.89243  1.0000
  Co  Co139     1.0  0.00000  0.00000  0.00000  1.0000
  Co  Co140     1.0  0.00000  0.00000  0.50000  1.0000
  Co  Co141     1.0  0.66667  0.33333  0.33333  1.0000
  Co  Co142     1.0  0.66667  0.33333  0.83333  1.0000
  Co  Co143     1.0  0.33333  0.66667  0.66667  1.0000
  Co  Co144     1.0  0.33333  0.66667  0.16667  1.0000
