data_image0
_chemical_formula_structural       Fe4O24C12H12
_chemical_formula_sum              "Fe4 O24 C12 H12"
_cell_length_a       8.5897
_cell_length_b       8.5897
_cell_length_c       13.4769
_cell_angle_alpha    90
_cell_angle_beta     90
_cell_angle_gamma    120

_space_group_name_H-M_alt    "P 1"
_space_group_IT_number       1

loop_
  _space_group_symop_operation_xyz
  'x, y, z'

loop_
  _atom_site_type_symbol
  _atom_site_label
  _atom_site_symmetry_multiplicity
  _atom_site_fract_x
  _atom_site_fract_y
  _atom_site_fract_z
  _atom_site_occupancy
  Fe  Fe1       1.0  0.00000  0.00000  0.50000  1.0000
  Fe  Fe2       1.0  0.00000  0.00000  0.00000  1.0000
  Fe  Fe3       1.0  0.33330  0.66670  0.25000  1.0000
  Fe  Fe4       1.0  0.66670  0.33330  0.75000  1.0000
  O   O1        1.0  0.21423  0.20365  0.41585  1.0000
  O   O2        1.0  0.79635  0.01058  0.41585  1.0000
  O   O3        1.0  0.98942  0.78577  0.41585  1.0000
  O   O4        1.0  0.79635  0.78577  0.08415  1.0000
  O   O5        1.0  0.98942  0.20365  0.08415  1.0000
  O   O6        1.0  0.21423  0.01058  0.08415  1.0000
  O   O7        1.0  0.78577  0.79635  0.58415  1.0000
  O   O8        1.0  0.20365  0.98942  0.58415  1.0000
  O   O9        1.0  0.01058  0.21423  0.58415  1.0000
  O   O10       1.0  0.20365  0.21423  0.91585  1.0000
  O   O11       1.0  0.01058  0.79635  0.91585  1.0000
  O   O12       1.0  0.78577  0.98942  0.91585  1.0000
  O   O13       1.0  0.33908  0.47035  0.34418  1.0000
  O   O14       1.0  0.52965  0.86873  0.34418  1.0000
  O   O15       1.0  0.13127  0.66092  0.34418  1.0000
  O   O16       1.0  0.52965  0.66092  0.15582  1.0000
  O   O17       1.0  0.13127  0.47035  0.15582  1.0000
  O   O18       1.0  0.33908  0.86873  0.15582  1.0000
  O   O19       1.0  0.66092  0.52965  0.65582  1.0000
  O   O20       1.0  0.47035  0.13127  0.65582  1.0000
  O   O21       1.0  0.86873  0.33908  0.65582  1.0000
  O   O22       1.0  0.47035  0.33908  0.84418  1.0000
  O   O23       1.0  0.86873  0.52965  0.84418  1.0000
  O   O24       1.0  0.66092  0.13127  0.84418  1.0000
  C   C1        1.0  0.20990  0.32610  0.37092  1.0000
  C   C2        1.0  0.67390  0.88380  0.37092  1.0000
  C   C3        1.0  0.11620  0.79010  0.37092  1.0000
  C   C4        1.0  0.67390  0.79010  0.12908  1.0000
  C   C5        1.0  0.11620  0.32610  0.12908  1.0000
  C   C6        1.0  0.20990  0.88380  0.12908  1.0000
  C   C7        1.0  0.79010  0.67390  0.62908  1.0000
  C   C8        1.0  0.32610  0.11620  0.62908  1.0000
  C   C9        1.0  0.88380  0.20990  0.62908  1.0000
  C   C10       1.0  0.32610  0.20990  0.87092  1.0000
  C   C11       1.0  0.88380  0.67390  0.87092  1.0000
  C   C12       1.0  0.79010  0.11620  0.87092  1.0000
  H   H1        1.0  0.09650  0.30790  0.35540  1.0000
  H   H2        1.0  0.69210  0.78860  0.35540  1.0000
  H   H3        1.0  0.21140  0.90350  0.35540  1.0000
  H   H4        1.0  0.69210  0.90350  0.14460  1.0000
  H   H5        1.0  0.21140  0.30790  0.14460  1.0000
  H   H6        1.0  0.09650  0.78860  0.14460  1.0000
  H   H7        1.0  0.90350  0.69210  0.64460  1.0000
  H   H8        1.0  0.30790  0.21140  0.64460  1.0000
  H   H9        1.0  0.78860  0.09650  0.64460  1.0000
  H   H10       1.0  0.30790  0.09650  0.85540  1.0000
  H   H11       1.0  0.78860  0.69210  0.85540  1.0000
  H   H12       1.0  0.90350  0.21140  0.85540  1.0000
