data_image0
_chemical_formula_structural       Zn144O864C36H36C36H36C36H36C36H36C36H36C36H36C36H36C36H36C36H36C36H36C36H36C36H36
_chemical_formula_sum              "Zn144 O864 C432 H432"
_cell_length_a       29.587
_cell_length_b       29.587
_cell_length_c       39.6408
_cell_angle_alpha    90
_cell_angle_beta     90
_cell_angle_gamma    120

_space_group_name_H-M_alt    "P 1"
_space_group_IT_number       1

loop_
  _space_group_symop_operation_xyz
  'x, y, z'

loop_
  _atom_site_type_symbol
  _atom_site_label
  _atom_site_symmetry_multiplicity
  _atom_site_fract_x
  _atom_site_fract_y
  _atom_site_fract_z
  _atom_site_occupancy
  Zn  Zn1       1.0  0.16371  0.16371  0.25000  1.0000
  Zn  Zn2       1.0  0.83629  0.00000  0.25000  1.0000
  Zn  Zn3       1.0  0.00000  0.83629  0.25000  1.0000
  Zn  Zn4       1.0  0.83038  0.49705  0.58333  1.0000
  Zn  Zn5       1.0  0.50295  0.33333  0.58333  1.0000
  Zn  Zn6       1.0  0.66667  0.16962  0.58333  1.0000
  Zn  Zn7       1.0  0.49705  0.83038  0.91667  1.0000
  Zn  Zn8       1.0  0.16962  0.66667  0.91667  1.0000
  Zn  Zn9       1.0  0.33333  0.50295  0.91667  1.0000
  Zn  Zn10      1.0  0.83629  0.83629  0.75000  1.0000
  Zn  Zn11      1.0  0.16371  0.00000  0.75000  1.0000
  Zn  Zn12      1.0  0.00000  0.16371  0.75000  1.0000
  Zn  Zn13      1.0  0.16962  0.50295  0.41667  1.0000
  Zn  Zn14      1.0  0.49705  0.66667  0.41667  1.0000
  Zn  Zn15      1.0  0.33333  0.83038  0.41667  1.0000
  Zn  Zn16      1.0  0.50295  0.16962  0.08333  1.0000
  Zn  Zn17      1.0  0.83038  0.33333  0.08333  1.0000
  Zn  Zn18      1.0  0.66667  0.49705  0.08333  1.0000
  Zn  Zn19      1.0  0.00000  0.00000  0.16401  1.0000
  Zn  Zn20      1.0  0.00000  0.00000  0.33599  1.0000
  Zn  Zn21      1.0  0.66667  0.33333  0.49734  1.0000
  Zn  Zn22      1.0  0.66667  0.33333  0.66933  1.0000
  Zn  Zn23      1.0  0.33333  0.66667  0.83067  1.0000
  Zn  Zn24      1.0  0.33333  0.66667  0.00266  1.0000
  Zn  Zn25      1.0  0.00000  0.00000  0.83599  1.0000
  Zn  Zn26      1.0  0.00000  0.00000  0.66401  1.0000
  Zn  Zn27      1.0  0.33333  0.66667  0.50266  1.0000
  Zn  Zn28      1.0  0.33333  0.66667  0.33067  1.0000
  Zn  Zn29      1.0  0.66667  0.33333  0.16933  1.0000
  Zn  Zn30      1.0  0.66667  0.33333  0.99734  1.0000
  Zn  Zn31      1.0  0.16893  0.33091  0.16645  1.0000
  Zn  Zn32      1.0  0.66909  0.83802  0.16645  1.0000
  Zn  Zn33      1.0  0.16198  0.83107  0.16645  1.0000
  Zn  Zn34      1.0  0.33091  0.16893  0.33355  1.0000
  Zn  Zn35      1.0  0.83802  0.66909  0.33355  1.0000
  Zn  Zn36      1.0  0.83107  0.16198  0.33355  1.0000
  Zn  Zn37      1.0  0.83560  0.66424  0.49978  1.0000
  Zn  Zn38      1.0  0.33576  0.17136  0.49978  1.0000
  Zn  Zn39      1.0  0.82864  0.16440  0.49978  1.0000
  Zn  Zn40      1.0  0.99758  0.50227  0.66689  1.0000
  Zn  Zn41      1.0  0.50469  0.00242  0.66689  1.0000
  Zn  Zn42      1.0  0.49773  0.49531  0.66689  1.0000
  Zn  Zn43      1.0  0.50227  0.99758  0.83311  1.0000
  Zn  Zn44      1.0  0.00242  0.50469  0.83311  1.0000
  Zn  Zn45      1.0  0.49531  0.49773  0.83311  1.0000
  Zn  Zn46      1.0  0.66424  0.83560  0.00022  1.0000
  Zn  Zn47      1.0  0.17136  0.33576  0.00022  1.0000
  Zn  Zn48      1.0  0.16440  0.82864  0.00022  1.0000
  Zn  Zn49      1.0  0.83107  0.66909  0.83355  1.0000
  Zn  Zn50      1.0  0.33091  0.16198  0.83355  1.0000
  Zn  Zn51      1.0  0.83802  0.16893  0.83355  1.0000
  Zn  Zn52      1.0  0.66909  0.83107  0.66645  1.0000
  Zn  Zn53      1.0  0.16198  0.33091  0.66645  1.0000
  Zn  Zn54      1.0  0.16893  0.83802  0.66645  1.0000
  Zn  Zn55      1.0  0.16440  0.33576  0.50022  1.0000
  Zn  Zn56      1.0  0.66424  0.82864  0.50022  1.0000
  Zn  Zn57      1.0  0.17136  0.83560  0.50022  1.0000
  Zn  Zn58      1.0  0.00242  0.49773  0.33311  1.0000
  Zn  Zn59      1.0  0.49531  0.99758  0.33311  1.0000
  Zn  Zn60      1.0  0.50227  0.50469  0.33311  1.0000
  Zn  Zn61      1.0  0.49773  0.00242  0.16689  1.0000
  Zn  Zn62      1.0  0.99758  0.49531  0.16689  1.0000
  Zn  Zn63      1.0  0.50469  0.50227  0.16689  1.0000
  Zn  Zn64      1.0  0.33576  0.16440  0.99978  1.0000
  Zn  Zn65      1.0  0.82864  0.66424  0.99978  1.0000
  Zn  Zn66      1.0  0.83560  0.17136  0.99978  1.0000
  Zn  Zn67      1.0  0.33330  0.16670  0.16670  1.0000
  Zn  Zn68      1.0  0.83330  0.16660  0.16670  1.0000
  Zn  Zn69      1.0  0.83340  0.66670  0.16670  1.0000
  Zn  Zn70      1.0  0.16670  0.33330  0.33330  1.0000
  Zn  Zn71      1.0  0.16660  0.83330  0.33330  1.0000
  Zn  Zn72      1.0  0.66670  0.83340  0.33330  1.0000
  Zn  Zn73      1.0  0.99997  0.50003  0.50003  1.0000
  Zn  Zn74      1.0  0.49997  0.49993  0.50003  1.0000
  Zn  Zn75      1.0  0.50007  0.00003  0.50003  1.0000
  Zn  Zn76      1.0  0.83337  0.66663  0.66663  1.0000
  Zn  Zn77      1.0  0.83327  0.16663  0.66663  1.0000
  Zn  Zn78      1.0  0.33337  0.16673  0.66663  1.0000
  Zn  Zn79      1.0  0.66663  0.83337  0.83337  1.0000
  Zn  Zn80      1.0  0.16663  0.83327  0.83337  1.0000
  Zn  Zn81      1.0  0.16673  0.33337  0.83337  1.0000
  Zn  Zn82      1.0  0.50003  0.99997  0.99997  1.0000
  Zn  Zn83      1.0  0.49993  0.49997  0.99997  1.0000
  Zn  Zn84      1.0  0.00003  0.50007  0.99997  1.0000
  Zn  Zn85      1.0  0.00035  0.16873  0.08242  1.0000
  Zn  Zn86      1.0  0.83127  0.83162  0.08242  1.0000
  Zn  Zn87      1.0  0.16838  0.99966  0.08242  1.0000
  Zn  Zn88      1.0  0.16873  0.00035  0.41758  1.0000
  Zn  Zn89      1.0  0.83162  0.83127  0.41758  1.0000
  Zn  Zn90      1.0  0.99965  0.16838  0.41758  1.0000
  Zn  Zn91      1.0  0.66701  0.50206  0.41576  1.0000
  Zn  Zn92      1.0  0.49794  0.16495  0.41576  1.0000
  Zn  Zn93      1.0  0.83505  0.33299  0.41576  1.0000
  Zn  Zn94      1.0  0.83540  0.33368  0.75091  1.0000
  Zn  Zn95      1.0  0.49828  0.16460  0.75091  1.0000
  Zn  Zn96      1.0  0.66632  0.50172  0.75091  1.0000
  Zn  Zn97      1.0  0.33368  0.83540  0.74909  1.0000
  Zn  Zn98      1.0  0.16460  0.49828  0.74909  1.0000
  Zn  Zn99      1.0  0.50172  0.66632  0.74909  1.0000
  Zn  Zn100     1.0  0.50206  0.66701  0.08424  1.0000
  Zn  Zn101     1.0  0.16495  0.49794  0.08424  1.0000
  Zn  Zn102     1.0  0.33299  0.83505  0.08424  1.0000
  Zn  Zn103     1.0  0.99965  0.83127  0.91758  1.0000
  Zn  Zn104     1.0  0.16873  0.16838  0.91758  1.0000
  Zn  Zn105     1.0  0.83162  0.00035  0.91758  1.0000
  Zn  Zn106     1.0  0.83127  0.99966  0.58242  1.0000
  Zn  Zn107     1.0  0.16838  0.16873  0.58242  1.0000
  Zn  Zn108     1.0  0.00034  0.83162  0.58242  1.0000
  Zn  Zn109     1.0  0.33299  0.49794  0.58424  1.0000
  Zn  Zn110     1.0  0.50206  0.83505  0.58424  1.0000
  Zn  Zn111     1.0  0.16495  0.66701  0.58424  1.0000
  Zn  Zn112     1.0  0.16460  0.66632  0.24909  1.0000
  Zn  Zn113     1.0  0.50172  0.83540  0.24909  1.0000
  Zn  Zn114     1.0  0.33368  0.49828  0.24909  1.0000
  Zn  Zn115     1.0  0.66632  0.16460  0.25091  1.0000
  Zn  Zn116     1.0  0.83540  0.50172  0.25091  1.0000
  Zn  Zn117     1.0  0.49828  0.33368  0.25091  1.0000
  Zn  Zn118     1.0  0.49794  0.33299  0.91576  1.0000
  Zn  Zn119     1.0  0.83505  0.50206  0.91576  1.0000
  Zn  Zn120     1.0  0.66701  0.16495  0.91576  1.0000
  Zn  Zn121     1.0  0.33725  0.33330  0.08330  1.0000
  Zn  Zn122     1.0  0.66670  0.00395  0.08330  1.0000
  Zn  Zn123     1.0  0.99605  0.66275  0.08330  1.0000
  Zn  Zn124     1.0  0.33330  0.33725  0.41670  1.0000
  Zn  Zn125     1.0  0.00395  0.66670  0.41670  1.0000
  Zn  Zn126     1.0  0.66275  0.99605  0.41670  1.0000
  Zn  Zn127     1.0  0.99997  0.67059  0.75003  1.0000
  Zn  Zn128     1.0  0.67062  0.00003  0.75003  1.0000
  Zn  Zn129     1.0  0.32941  0.32938  0.75003  1.0000
  Zn  Zn130     1.0  0.66275  0.66670  0.91670  1.0000
  Zn  Zn131     1.0  0.33330  0.99605  0.91670  1.0000
  Zn  Zn132     1.0  0.00395  0.33725  0.91670  1.0000
  Zn  Zn133     1.0  0.66670  0.66275  0.58330  1.0000
  Zn  Zn134     1.0  0.99605  0.33330  0.58330  1.0000
  Zn  Zn135     1.0  0.33725  0.00395  0.58330  1.0000
  Zn  Zn136     1.0  0.00003  0.32941  0.24997  1.0000
  Zn  Zn137     1.0  0.32938  0.99997  0.24997  1.0000
  Zn  Zn138     1.0  0.67059  0.67062  0.24997  1.0000
  Zn  Zn139     1.0  0.00000  0.00000  0.00000  1.0000
  Zn  Zn140     1.0  0.00000  0.00000  0.50000  1.0000
  Zn  Zn141     1.0  0.66667  0.33333  0.33333  1.0000
  Zn  Zn142     1.0  0.66667  0.33333  0.83333  1.0000
  Zn  Zn143     1.0  0.33333  0.66667  0.66667  1.0000
  Zn  Zn144     1.0  0.33333  0.66667  0.16667  1.0000
  O   O1        1.0  0.13333  0.09654  0.22019  1.0000
  O   O2        1.0  0.90346  0.03679  0.22019  1.0000
  O   O3        1.0  0.96321  0.86667  0.22019  1.0000
  O   O4        1.0  0.09654  0.13333  0.27981  1.0000
  O   O5        1.0  0.03679  0.90346  0.27981  1.0000
  O   O6        1.0  0.86667  0.96321  0.27981  1.0000
  O   O7        1.0  0.80000  0.42987  0.55352  1.0000
  O   O8        1.0  0.57013  0.37012  0.55352  1.0000
  O   O9        1.0  0.62988  0.20000  0.55352  1.0000
  O   O10       1.0  0.76321  0.46666  0.61314  1.0000
  O   O11       1.0  0.70346  0.23679  0.61314  1.0000
  O   O12       1.0  0.53334  0.29654  0.61314  1.0000
  O   O13       1.0  0.46666  0.76321  0.88686  1.0000
  O   O14       1.0  0.23679  0.70346  0.88686  1.0000
  O   O15       1.0  0.29654  0.53334  0.88686  1.0000
  O   O16       1.0  0.42987  0.80000  0.94648  1.0000
  O   O17       1.0  0.37012  0.57013  0.94648  1.0000
  O   O18       1.0  0.20000  0.62988  0.94648  1.0000
  O   O19       1.0  0.86667  0.90346  0.77981  1.0000
  O   O20       1.0  0.09654  0.96321  0.77981  1.0000
  O   O21       1.0  0.03679  0.13333  0.77981  1.0000
  O   O22       1.0  0.90346  0.86667  0.72019  1.0000
  O   O23       1.0  0.96321  0.09654  0.72019  1.0000
  O   O24       1.0  0.13333  0.03679  0.72019  1.0000
  O   O25       1.0  0.20000  0.57013  0.44648  1.0000
  O   O26       1.0  0.42987  0.62988  0.44648  1.0000
  O   O27       1.0  0.37012  0.80000  0.44648  1.0000
  O   O28       1.0  0.23679  0.53334  0.38686  1.0000
  O   O29       1.0  0.29654  0.76321  0.38686  1.0000
  O   O30       1.0  0.46666  0.70346  0.38686  1.0000
  O   O31       1.0  0.53334  0.23679  0.11314  1.0000
  O   O32       1.0  0.76321  0.29654  0.11314  1.0000
  O   O33       1.0  0.70346  0.46666  0.11314  1.0000
  O   O34       1.0  0.57013  0.20000  0.05352  1.0000
  O   O35       1.0  0.62988  0.42987  0.05352  1.0000
  O   O36       1.0  0.80000  0.37012  0.05352  1.0000
  O   O37       1.0  0.06848  0.02993  0.19331  1.0000
  O   O38       1.0  0.97007  0.03855  0.19331  1.0000
  O   O39       1.0  0.96145  0.93152  0.19331  1.0000
  O   O40       1.0  0.02993  0.06848  0.30669  1.0000
  O   O41       1.0  0.03855  0.97007  0.30669  1.0000
  O   O42       1.0  0.93152  0.96145  0.30669  1.0000
  O   O43       1.0  0.73515  0.36326  0.52664  1.0000
  O   O44       1.0  0.63674  0.37188  0.52664  1.0000
  O   O45       1.0  0.62812  0.26485  0.52664  1.0000
  O   O46       1.0  0.69660  0.40181  0.64002  1.0000
  O   O47       1.0  0.70522  0.30340  0.64002  1.0000
  O   O48       1.0  0.59819  0.29478  0.64002  1.0000
  O   O49       1.0  0.40181  0.69660  0.85998  1.0000
  O   O50       1.0  0.30340  0.70522  0.85998  1.0000
  O   O51       1.0  0.29478  0.59819  0.85998  1.0000
  O   O52       1.0  0.36326  0.73515  0.97336  1.0000
  O   O53       1.0  0.37188  0.63674  0.97336  1.0000
  O   O54       1.0  0.26485  0.62812  0.97336  1.0000
  O   O55       1.0  0.93152  0.97007  0.80669  1.0000
  O   O56       1.0  0.02993  0.96145  0.80669  1.0000
  O   O57       1.0  0.03855  0.06848  0.80669  1.0000
  O   O58       1.0  0.97007  0.93152  0.69331  1.0000
  O   O59       1.0  0.96145  0.02993  0.69331  1.0000
  O   O60       1.0  0.06848  0.03855  0.69331  1.0000
  O   O61       1.0  0.26485  0.63674  0.47336  1.0000
  O   O62       1.0  0.36326  0.62812  0.47336  1.0000
  O   O63       1.0  0.37188  0.73515  0.47336  1.0000
  O   O64       1.0  0.30340  0.59819  0.35998  1.0000
  O   O65       1.0  0.29478  0.69660  0.35998  1.0000
  O   O66       1.0  0.40181  0.70522  0.35998  1.0000
  O   O67       1.0  0.59819  0.30340  0.14002  1.0000
  O   O68       1.0  0.69660  0.29478  0.14002  1.0000
  O   O69       1.0  0.70522  0.40181  0.14002  1.0000
  O   O70       1.0  0.63674  0.26485  0.02664  1.0000
  O   O71       1.0  0.62812  0.36326  0.02664  1.0000
  O   O72       1.0  0.73515  0.37188  0.02664  1.0000
  O   O73       1.0  0.12939  0.19491  0.21820  1.0000
  O   O74       1.0  0.80509  0.93448  0.21820  1.0000
  O   O75       1.0  0.06552  0.87061  0.21820  1.0000
  O   O76       1.0  0.19491  0.12939  0.28180  1.0000
  O   O77       1.0  0.93448  0.80509  0.28180  1.0000
  O   O78       1.0  0.87061  0.06552  0.28180  1.0000
  O   O79       1.0  0.79606  0.52824  0.55153  1.0000
  O   O80       1.0  0.47176  0.26781  0.55153  1.0000
  O   O81       1.0  0.73219  0.20394  0.55153  1.0000
  O   O82       1.0  0.86158  0.46272  0.61513  1.0000
  O   O83       1.0  0.60115  0.13842  0.61513  1.0000
  O   O84       1.0  0.53728  0.39885  0.61513  1.0000
  O   O85       1.0  0.46272  0.86158  0.88487  1.0000
  O   O86       1.0  0.13842  0.60115  0.88487  1.0000
  O   O87       1.0  0.39885  0.53728  0.88487  1.0000
  O   O88       1.0  0.52824  0.79606  0.94847  1.0000
  O   O89       1.0  0.26781  0.47176  0.94847  1.0000
  O   O90       1.0  0.20394  0.73219  0.94847  1.0000
  O   O91       1.0  0.87061  0.80509  0.78180  1.0000
  O   O92       1.0  0.19491  0.06552  0.78180  1.0000
  O   O93       1.0  0.93448  0.12939  0.78180  1.0000
  O   O94       1.0  0.80509  0.87061  0.71820  1.0000
  O   O95       1.0  0.06552  0.19491  0.71820  1.0000
  O   O96       1.0  0.12939  0.93448  0.71820  1.0000
  O   O97       1.0  0.20394  0.47176  0.44847  1.0000
  O   O98       1.0  0.52824  0.73219  0.44847  1.0000
  O   O99       1.0  0.26781  0.79606  0.44847  1.0000
  O   O100      1.0  0.13842  0.53728  0.38487  1.0000
  O   O101      1.0  0.39885  0.86158  0.38487  1.0000
  O   O102      1.0  0.46272  0.60115  0.38487  1.0000
  O   O103      1.0  0.53728  0.13842  0.11513  1.0000
  O   O104      1.0  0.86158  0.39885  0.11513  1.0000
  O   O105      1.0  0.60115  0.46272  0.11513  1.0000
  O   O106      1.0  0.47176  0.20394  0.05153  1.0000
  O   O107      1.0  0.73219  0.52824  0.05153  1.0000
  O   O108      1.0  0.79606  0.26781  0.05153  1.0000
  O   O109      1.0  0.13016  0.26294  0.19401  1.0000
  O   O110      1.0  0.73706  0.86722  0.19401  1.0000
  O   O111      1.0  0.13278  0.86984  0.19401  1.0000
  O   O112      1.0  0.26294  0.13016  0.30599  1.0000
  O   O113      1.0  0.86722  0.73706  0.30599  1.0000
  O   O114      1.0  0.86984  0.13278  0.30599  1.0000
  O   O115      1.0  0.79683  0.59627  0.52734  1.0000
  O   O116      1.0  0.40373  0.20055  0.52734  1.0000
  O   O117      1.0  0.79945  0.20317  0.52734  1.0000
  O   O118      1.0  0.92961  0.46349  0.63932  1.0000
  O   O119      1.0  0.53389  0.07039  0.63932  1.0000
  O   O120      1.0  0.53651  0.46611  0.63932  1.0000
  O   O121      1.0  0.46349  0.92961  0.86068  1.0000
  O   O122      1.0  0.07039  0.53389  0.86068  1.0000
  O   O123      1.0  0.46611  0.53651  0.86068  1.0000
  O   O124      1.0  0.59627  0.79683  0.97266  1.0000
  O   O125      1.0  0.20055  0.40373  0.97266  1.0000
  O   O126      1.0  0.20317  0.79945  0.97266  1.0000
  O   O127      1.0  0.86984  0.73706  0.80599  1.0000
  O   O128      1.0  0.26294  0.13278  0.80599  1.0000
  O   O129      1.0  0.86722  0.13016  0.80599  1.0000
  O   O130      1.0  0.73706  0.86984  0.69401  1.0000
  O   O131      1.0  0.13278  0.26294  0.69401  1.0000
  O   O132      1.0  0.13016  0.86722  0.69401  1.0000
  O   O133      1.0  0.20317  0.40373  0.47266  1.0000
  O   O134      1.0  0.59627  0.79945  0.47266  1.0000
  O   O135      1.0  0.20055  0.79683  0.47266  1.0000
  O   O136      1.0  0.07039  0.53651  0.36068  1.0000
  O   O137      1.0  0.46611  0.92961  0.36068  1.0000
  O   O138      1.0  0.46349  0.53389  0.36068  1.0000
  O   O139      1.0  0.53651  0.07039  0.13932  1.0000
  O   O140      1.0  0.92961  0.46611  0.13932  1.0000
  O   O141      1.0  0.53389  0.46349  0.13932  1.0000
  O   O142      1.0  0.40373  0.20317  0.02734  1.0000
  O   O143      1.0  0.79945  0.59627  0.02734  1.0000
  O   O144      1.0  0.79683  0.20055  0.02734  1.0000
  O   O145      1.0  0.22849  0.19648  0.21793  1.0000
  O   O146      1.0  0.80352  0.03201  0.21793  1.0000
  O   O147      1.0  0.96799  0.77151  0.21793  1.0000
  O   O148      1.0  0.19648  0.22849  0.28207  1.0000
  O   O149      1.0  0.03201  0.80352  0.28207  1.0000
  O   O150      1.0  0.77151  0.96799  0.28207  1.0000
  O   O151      1.0  0.89516  0.52981  0.55126  1.0000
  O   O152      1.0  0.47019  0.36534  0.55126  1.0000
  O   O153      1.0  0.63466  0.10484  0.55126  1.0000
  O   O154      1.0  0.86315  0.56182  0.61540  1.0000
  O   O155      1.0  0.69868  0.13685  0.61540  1.0000
  O   O156      1.0  0.43818  0.30132  0.61540  1.0000
  O   O157      1.0  0.56182  0.86315  0.88460  1.0000
  O   O158      1.0  0.13685  0.69868  0.88460  1.0000
  O   O159      1.0  0.30132  0.43818  0.88460  1.0000
  O   O160      1.0  0.52981  0.89516  0.94874  1.0000
  O   O161      1.0  0.36534  0.47019  0.94874  1.0000
  O   O162      1.0  0.10484  0.63466  0.94874  1.0000
  O   O163      1.0  0.77151  0.80352  0.78207  1.0000
  O   O164      1.0  0.19648  0.96799  0.78207  1.0000
  O   O165      1.0  0.03201  0.22849  0.78207  1.0000
  O   O166      1.0  0.80352  0.77151  0.71793  1.0000
  O   O167      1.0  0.96799  0.19648  0.71793  1.0000
  O   O168      1.0  0.22849  0.03201  0.71793  1.0000
  O   O169      1.0  0.10484  0.47019  0.44874  1.0000
  O   O170      1.0  0.52981  0.63466  0.44874  1.0000
  O   O171      1.0  0.36534  0.89516  0.44874  1.0000
  O   O172      1.0  0.13685  0.43818  0.38460  1.0000
  O   O173      1.0  0.30132  0.86315  0.38460  1.0000
  O   O174      1.0  0.56182  0.69868  0.38460  1.0000
  O   O175      1.0  0.43818  0.13685  0.11540  1.0000
  O   O176      1.0  0.86315  0.30132  0.11540  1.0000
  O   O177      1.0  0.69868  0.56182  0.11540  1.0000
  O   O178      1.0  0.47019  0.10484  0.05126  1.0000
  O   O179      1.0  0.63466  0.52981  0.05126  1.0000
  O   O180      1.0  0.89516  0.36534  0.05126  1.0000
  O   O181      1.0  0.29693  0.20057  0.19241  1.0000
  O   O182      1.0  0.79943  0.09636  0.19241  1.0000
  O   O183      1.0  0.90364  0.70307  0.19241  1.0000
  O   O184      1.0  0.20057  0.29693  0.30759  1.0000
  O   O185      1.0  0.09636  0.79943  0.30759  1.0000
  O   O186      1.0  0.70307  0.90364  0.30759  1.0000
  O   O187      1.0  0.96360  0.53390  0.52574  1.0000
  O   O188      1.0  0.46610  0.42969  0.52574  1.0000
  O   O189      1.0  0.57031  0.03640  0.52574  1.0000
  O   O190      1.0  0.86724  0.63026  0.64092  1.0000
  O   O191      1.0  0.76303  0.13276  0.64092  1.0000
  O   O192      1.0  0.36974  0.23697  0.64092  1.0000
  O   O193      1.0  0.63026  0.86724  0.85908  1.0000
  O   O194      1.0  0.13276  0.76303  0.85908  1.0000
  O   O195      1.0  0.23697  0.36974  0.85908  1.0000
  O   O196      1.0  0.53390  0.96360  0.97426  1.0000
  O   O197      1.0  0.42969  0.46610  0.97426  1.0000
  O   O198      1.0  0.03640  0.57031  0.97426  1.0000
  O   O199      1.0  0.70307  0.79943  0.80759  1.0000
  O   O200      1.0  0.20057  0.90364  0.80759  1.0000
  O   O201      1.0  0.09636  0.29693  0.80759  1.0000
  O   O202      1.0  0.79943  0.70307  0.69241  1.0000
  O   O203      1.0  0.90364  0.20057  0.69241  1.0000
  O   O204      1.0  0.29693  0.09636  0.69241  1.0000
  O   O205      1.0  0.03640  0.46610  0.47426  1.0000
  O   O206      1.0  0.53390  0.57031  0.47426  1.0000
  O   O207      1.0  0.42969  0.96360  0.47426  1.0000
  O   O208      1.0  0.13276  0.36974  0.35908  1.0000
  O   O209      1.0  0.23697  0.86724  0.35908  1.0000
  O   O210      1.0  0.63026  0.76303  0.35908  1.0000
  O   O211      1.0  0.36974  0.13276  0.14092  1.0000
  O   O212      1.0  0.86724  0.23697  0.14092  1.0000
  O   O213      1.0  0.76303  0.63026  0.14092  1.0000
  O   O214      1.0  0.46610  0.03640  0.02574  1.0000
  O   O215      1.0  0.57031  0.53390  0.02574  1.0000
  O   O216      1.0  0.96360  0.42969  0.02574  1.0000
  O   O217      1.0  0.03566  0.06941  0.13704  1.0000
  O   O218      1.0  0.93059  0.96625  0.13704  1.0000
  O   O219      1.0  0.03375  0.96434  0.13704  1.0000
  O   O220      1.0  0.06941  0.03566  0.36296  1.0000
  O   O221      1.0  0.96625  0.93059  0.36296  1.0000
  O   O222      1.0  0.96434  0.03375  0.36296  1.0000
  O   O223      1.0  0.70233  0.40274  0.47037  1.0000
  O   O224      1.0  0.59726  0.29958  0.47037  1.0000
  O   O225      1.0  0.70042  0.29767  0.47037  1.0000
  O   O226      1.0  0.73608  0.36899  0.69629  1.0000
  O   O227      1.0  0.63292  0.26392  0.69629  1.0000
  O   O228      1.0  0.63101  0.36708  0.69629  1.0000
  O   O229      1.0  0.36899  0.73608  0.80371  1.0000
  O   O230      1.0  0.26392  0.63292  0.80371  1.0000
  O   O231      1.0  0.36708  0.63101  0.80371  1.0000
  O   O232      1.0  0.40274  0.70233  0.02963  1.0000
  O   O233      1.0  0.29958  0.59726  0.02963  1.0000
  O   O234      1.0  0.29767  0.70042  0.02963  1.0000
  O   O235      1.0  0.96434  0.93059  0.86296  1.0000
  O   O236      1.0  0.06941  0.03375  0.86296  1.0000
  O   O237      1.0  0.96625  0.03566  0.86296  1.0000
  O   O238      1.0  0.93059  0.96434  0.63704  1.0000
  O   O239      1.0  0.03375  0.06941  0.63704  1.0000
  O   O240      1.0  0.03566  0.96625  0.63704  1.0000
  O   O241      1.0  0.29767  0.59726  0.52963  1.0000
  O   O242      1.0  0.40274  0.70042  0.52963  1.0000
  O   O243      1.0  0.29958  0.70233  0.52963  1.0000
  O   O244      1.0  0.26392  0.63101  0.30371  1.0000
  O   O245      1.0  0.36708  0.73608  0.30371  1.0000
  O   O246      1.0  0.36899  0.63292  0.30371  1.0000
  O   O247      1.0  0.63101  0.26392  0.19629  1.0000
  O   O248      1.0  0.73608  0.36708  0.19629  1.0000
  O   O249      1.0  0.63292  0.36899  0.19629  1.0000
  O   O250      1.0  0.59726  0.29767  0.97037  1.0000
  O   O251      1.0  0.70042  0.40274  0.97037  1.0000
  O   O252      1.0  0.70233  0.29958  0.97037  1.0000
  O   O253      1.0  0.03217  0.13549  0.11338  1.0000
  O   O254      1.0  0.86451  0.89668  0.11338  1.0000
  O   O255      1.0  0.10332  0.96783  0.11338  1.0000
  O   O256      1.0  0.13549  0.03217  0.38662  1.0000
  O   O257      1.0  0.89668  0.86451  0.38662  1.0000
  O   O258      1.0  0.96783  0.10332  0.38662  1.0000
  O   O259      1.0  0.69884  0.46882  0.44671  1.0000
  O   O260      1.0  0.53118  0.23001  0.44671  1.0000
  O   O261      1.0  0.76999  0.30116  0.44671  1.0000
  O   O262      1.0  0.80216  0.36550  0.71995  1.0000
  O   O263      1.0  0.56335  0.19784  0.71995  1.0000
  O   O264      1.0  0.63450  0.43665  0.71995  1.0000
  O   O265      1.0  0.36550  0.80216  0.78005  1.0000
  O   O266      1.0  0.19784  0.56335  0.78005  1.0000
  O   O267      1.0  0.43665  0.63450  0.78005  1.0000
  O   O268      1.0  0.46882  0.69884  0.05329  1.0000
  O   O269      1.0  0.23001  0.53118  0.05329  1.0000
  O   O270      1.0  0.30116  0.76999  0.05329  1.0000
  O   O271      1.0  0.96783  0.86451  0.88662  1.0000
  O   O272      1.0  0.13549  0.10332  0.88662  1.0000
  O   O273      1.0  0.89668  0.03217  0.88662  1.0000
  O   O274      1.0  0.86451  0.96783  0.61338  1.0000
  O   O275      1.0  0.10332  0.13549  0.61338  1.0000
  O   O276      1.0  0.03217  0.89668  0.61338  1.0000
  O   O277      1.0  0.30116  0.53118  0.55329  1.0000
  O   O278      1.0  0.46882  0.76999  0.55329  1.0000
  O   O279      1.0  0.23001  0.69884  0.55329  1.0000
  O   O280      1.0  0.19784  0.63450  0.28005  1.0000
  O   O281      1.0  0.43665  0.80216  0.28005  1.0000
  O   O282      1.0  0.36550  0.56335  0.28005  1.0000
  O   O283      1.0  0.63450  0.19784  0.21995  1.0000
  O   O284      1.0  0.80216  0.43665  0.21995  1.0000
  O   O285      1.0  0.56335  0.36550  0.21995  1.0000
  O   O286      1.0  0.53118  0.30116  0.94671  1.0000
  O   O287      1.0  0.76999  0.46882  0.94671  1.0000
  O   O288      1.0  0.69884  0.23001  0.94671  1.0000
  O   O289      1.0  0.09953  0.30285  0.13818  1.0000
  O   O290      1.0  0.69715  0.79668  0.13818  1.0000
  O   O291      1.0  0.20332  0.90047  0.13818  1.0000
  O   O292      1.0  0.30285  0.09953  0.36182  1.0000
  O   O293      1.0  0.79668  0.69715  0.36182  1.0000
  O   O294      1.0  0.90047  0.20332  0.36182  1.0000
  O   O295      1.0  0.76620  0.63618  0.47151  1.0000
  O   O296      1.0  0.36382  0.13001  0.47151  1.0000
  O   O297      1.0  0.86999  0.23380  0.47151  1.0000
  O   O298      1.0  0.96952  0.43286  0.69515  1.0000
  O   O299      1.0  0.46335  0.03048  0.69515  1.0000
  O   O300      1.0  0.56714  0.53665  0.69515  1.0000
  O   O301      1.0  0.43286  0.96952  0.80485  1.0000
  O   O302      1.0  0.03048  0.46335  0.80485  1.0000
  O   O303      1.0  0.53665  0.56714  0.80485  1.0000
  O   O304      1.0  0.63618  0.76620  0.02849  1.0000
  O   O305      1.0  0.13001  0.36382  0.02849  1.0000
  O   O306      1.0  0.23380  0.86999  0.02849  1.0000
  O   O307      1.0  0.90047  0.69715  0.86182  1.0000
  O   O308      1.0  0.30285  0.20332  0.86182  1.0000
  O   O309      1.0  0.79668  0.09953  0.86182  1.0000
  O   O310      1.0  0.69715  0.90047  0.63818  1.0000
  O   O311      1.0  0.20332  0.30285  0.63818  1.0000
  O   O312      1.0  0.09953  0.79668  0.63818  1.0000
  O   O313      1.0  0.23380  0.36382  0.52849  1.0000
  O   O314      1.0  0.63618  0.86999  0.52849  1.0000
  O   O315      1.0  0.13001  0.76620  0.52849  1.0000
  O   O316      1.0  0.03048  0.56714  0.30485  1.0000
  O   O317      1.0  0.53665  0.96952  0.30485  1.0000
  O   O318      1.0  0.43286  0.46335  0.30485  1.0000
  O   O319      1.0  0.56714  0.03048  0.19515  1.0000
  O   O320      1.0  0.96952  0.53665  0.19515  1.0000
  O   O321      1.0  0.46335  0.43286  0.19515  1.0000
  O   O322      1.0  0.36382  0.23380  0.97151  1.0000
  O   O323      1.0  0.86999  0.63618  0.97151  1.0000
  O   O324      1.0  0.76620  0.13001  0.97151  1.0000
  O   O325      1.0  0.03227  0.23506  0.11367  1.0000
  O   O326      1.0  0.76494  0.79721  0.11367  1.0000
  O   O327      1.0  0.20279  0.96773  0.11367  1.0000
  O   O328      1.0  0.23506  0.03227  0.38633  1.0000
  O   O329      1.0  0.79721  0.76494  0.38633  1.0000
  O   O330      1.0  0.96773  0.20279  0.38633  1.0000
  O   O331      1.0  0.69894  0.56839  0.44700  1.0000
  O   O332      1.0  0.43161  0.13054  0.44700  1.0000
  O   O333      1.0  0.86946  0.30106  0.44700  1.0000
  O   O334      1.0  0.90173  0.36560  0.71966  1.0000
  O   O335      1.0  0.46388  0.09827  0.71966  1.0000
  O   O336      1.0  0.63440  0.53612  0.71966  1.0000
  O   O337      1.0  0.36560  0.90173  0.78034  1.0000
  O   O338      1.0  0.09827  0.46388  0.78034  1.0000
  O   O339      1.0  0.53612  0.63440  0.78034  1.0000
  O   O340      1.0  0.56839  0.69894  0.05300  1.0000
  O   O341      1.0  0.13054  0.43161  0.05300  1.0000
  O   O342      1.0  0.30106  0.86946  0.05300  1.0000
  O   O343      1.0  0.96773  0.76494  0.88633  1.0000
  O   O344      1.0  0.23506  0.20279  0.88633  1.0000
  O   O345      1.0  0.79721  0.03227  0.88633  1.0000
  O   O346      1.0  0.76494  0.96773  0.61367  1.0000
  O   O347      1.0  0.20279  0.23506  0.61367  1.0000
  O   O348      1.0  0.03227  0.79721  0.61367  1.0000
  O   O349      1.0  0.30106  0.43161  0.55300  1.0000
  O   O350      1.0  0.56839  0.86946  0.55300  1.0000
  O   O351      1.0  0.13054  0.69894  0.55300  1.0000
  O   O352      1.0  0.09827  0.63440  0.28034  1.0000
  O   O353      1.0  0.53612  0.90173  0.28034  1.0000
  O   O354      1.0  0.36560  0.46388  0.28034  1.0000
  O   O355      1.0  0.63440  0.09827  0.21966  1.0000
  O   O356      1.0  0.90173  0.53612  0.21966  1.0000
  O   O357      1.0  0.46388  0.36560  0.21966  1.0000
  O   O358      1.0  0.43161  0.30106  0.94700  1.0000
  O   O359      1.0  0.86946  0.56839  0.94700  1.0000
  O   O360      1.0  0.69894  0.13054  0.94700  1.0000
  O   O361      1.0  0.19901  0.29402  0.13630  1.0000
  O   O362      1.0  0.70598  0.90499  0.13630  1.0000
  O   O363      1.0  0.09501  0.80099  0.13630  1.0000
  O   O364      1.0  0.29402  0.19901  0.36370  1.0000
  O   O365      1.0  0.90499  0.70598  0.36370  1.0000
  O   O366      1.0  0.80099  0.09501  0.36370  1.0000
  O   O367      1.0  0.86568  0.62735  0.46963  1.0000
  O   O368      1.0  0.37265  0.23832  0.46963  1.0000
  O   O369      1.0  0.76168  0.13432  0.46963  1.0000
  O   O370      1.0  0.96069  0.53234  0.69703  1.0000
  O   O371      1.0  0.57166  0.03931  0.69703  1.0000
  O   O372      1.0  0.46766  0.42834  0.69703  1.0000
  O   O373      1.0  0.53234  0.96069  0.80297  1.0000
  O   O374      1.0  0.03931  0.57166  0.80297  1.0000
  O   O375      1.0  0.42834  0.46766  0.80297  1.0000
  O   O376      1.0  0.62735  0.86568  0.03037  1.0000
  O   O377      1.0  0.23832  0.37265  0.03037  1.0000
  O   O378      1.0  0.13432  0.76168  0.03037  1.0000
  O   O379      1.0  0.80099  0.70598  0.86370  1.0000
  O   O380      1.0  0.29402  0.09501  0.86370  1.0000
  O   O381      1.0  0.90499  0.19901  0.86370  1.0000
  O   O382      1.0  0.70598  0.80099  0.63630  1.0000
  O   O383      1.0  0.09501  0.29402  0.63630  1.0000
  O   O384      1.0  0.19901  0.90499  0.63630  1.0000
  O   O385      1.0  0.13432  0.37265  0.53037  1.0000
  O   O386      1.0  0.62735  0.76168  0.53037  1.0000
  O   O387      1.0  0.23832  0.86568  0.53037  1.0000
  O   O388      1.0  0.03931  0.46766  0.30297  1.0000
  O   O389      1.0  0.42834  0.96069  0.30297  1.0000
  O   O390      1.0  0.53234  0.57166  0.30297  1.0000
  O   O391      1.0  0.46766  0.03931  0.19703  1.0000
  O   O392      1.0  0.96069  0.42834  0.19703  1.0000
  O   O393      1.0  0.57166  0.53234  0.19703  1.0000
  O   O394      1.0  0.37265  0.13432  0.96963  1.0000
  O   O395      1.0  0.76168  0.62735  0.96963  1.0000
  O   O396      1.0  0.86568  0.23832  0.96963  1.0000
  O   O397      1.0  0.26889  0.29670  0.11346  1.0000
  O   O398      1.0  0.70330  0.97219  0.11346  1.0000
  O   O399      1.0  0.02781  0.73111  0.11346  1.0000
  O   O400      1.0  0.29670  0.26889  0.38654  1.0000
  O   O401      1.0  0.97219  0.70330  0.38654  1.0000
  O   O402      1.0  0.73111  0.02781  0.38654  1.0000
  O   O403      1.0  0.93556  0.63003  0.44679  1.0000
  O   O404      1.0  0.36997  0.30552  0.44679  1.0000
  O   O405      1.0  0.69448  0.06444  0.44679  1.0000
  O   O406      1.0  0.96337  0.60222  0.71987  1.0000
  O   O407      1.0  0.63886  0.03663  0.71987  1.0000
  O   O408      1.0  0.39778  0.36114  0.71987  1.0000
  O   O409      1.0  0.60222  0.96337  0.78013  1.0000
  O   O410      1.0  0.03663  0.63886  0.78013  1.0000
  O   O411      1.0  0.36114  0.39778  0.78013  1.0000
  O   O412      1.0  0.63003  0.93556  0.05321  1.0000
  O   O413      1.0  0.30552  0.36997  0.05321  1.0000
  O   O414      1.0  0.06444  0.69448  0.05321  1.0000
  O   O415      1.0  0.73111  0.70330  0.88654  1.0000
  O   O416      1.0  0.29670  0.02781  0.88654  1.0000
  O   O417      1.0  0.97219  0.26889  0.88654  1.0000
  O   O418      1.0  0.70330  0.73111  0.61346  1.0000
  O   O419      1.0  0.02781  0.29670  0.61346  1.0000
  O   O420      1.0  0.26889  0.97219  0.61346  1.0000
  O   O421      1.0  0.06444  0.36997  0.55321  1.0000
  O   O422      1.0  0.63003  0.69448  0.55321  1.0000
  O   O423      1.0  0.30552  0.93556  0.55321  1.0000
  O   O424      1.0  0.03663  0.39778  0.28013  1.0000
  O   O425      1.0  0.36114  0.96337  0.28013  1.0000
  O   O426      1.0  0.60222  0.63886  0.28013  1.0000
  O   O427      1.0  0.39778  0.03663  0.21987  1.0000
  O   O428      1.0  0.96337  0.36114  0.21987  1.0000
  O   O429      1.0  0.63886  0.60222  0.21987  1.0000
  O   O430      1.0  0.36997  0.06444  0.94679  1.0000
  O   O431      1.0  0.69448  0.63003  0.94679  1.0000
  O   O432      1.0  0.93556  0.30552  0.94679  1.0000
  O   O433      1.0  0.37328  0.23710  0.14046  1.0000
  O   O434      1.0  0.76290  0.13618  0.14046  1.0000
  O   O435      1.0  0.86382  0.62672  0.14046  1.0000
  O   O436      1.0  0.23710  0.37328  0.35954  1.0000
  O   O437      1.0  0.13618  0.76290  0.35954  1.0000
  O   O438      1.0  0.62672  0.86382  0.35954  1.0000
  O   O439      1.0  0.03995  0.57043  0.47379  1.0000
  O   O440      1.0  0.42957  0.46951  0.47379  1.0000
  O   O441      1.0  0.53049  0.96005  0.47379  1.0000
  O   O442      1.0  0.90377  0.70661  0.69287  1.0000
  O   O443      1.0  0.80285  0.09623  0.69287  1.0000
  O   O444      1.0  0.29339  0.19715  0.69287  1.0000
  O   O445      1.0  0.70661  0.90377  0.80713  1.0000
  O   O446      1.0  0.09623  0.80285  0.80713  1.0000
  O   O447      1.0  0.19715  0.29339  0.80713  1.0000
  O   O448      1.0  0.57043  0.03995  0.02621  1.0000
  O   O449      1.0  0.46951  0.42957  0.02621  1.0000
  O   O450      1.0  0.96005  0.53049  0.02621  1.0000
  O   O451      1.0  0.62672  0.76290  0.85954  1.0000
  O   O452      1.0  0.23710  0.86382  0.85954  1.0000
  O   O453      1.0  0.13618  0.37328  0.85954  1.0000
  O   O454      1.0  0.76290  0.62672  0.64046  1.0000
  O   O455      1.0  0.86382  0.23710  0.64046  1.0000
  O   O456      1.0  0.37328  0.13618  0.64046  1.0000
  O   O457      1.0  0.96005  0.42957  0.52621  1.0000
  O   O458      1.0  0.57043  0.53049  0.52621  1.0000
  O   O459      1.0  0.46951  0.03995  0.52621  1.0000
  O   O460      1.0  0.09623  0.29339  0.30713  1.0000
  O   O461      1.0  0.19715  0.90377  0.30713  1.0000
  O   O462      1.0  0.70661  0.80285  0.30713  1.0000
  O   O463      1.0  0.29339  0.09623  0.19287  1.0000
  O   O464      1.0  0.90377  0.19715  0.19287  1.0000
  O   O465      1.0  0.80285  0.70661  0.19287  1.0000
  O   O466      1.0  0.42957  0.96005  0.97379  1.0000
  O   O467      1.0  0.53049  0.57043  0.97379  1.0000
  O   O468      1.0  0.03995  0.46951  0.97379  1.0000
  O   O469      1.0  0.37206  0.30332  0.11469  1.0000
  O   O470      1.0  0.69668  0.06874  0.11469  1.0000
  O   O471      1.0  0.93126  0.62794  0.11469  1.0000
  O   O472      1.0  0.30332  0.37206  0.38531  1.0000
  O   O473      1.0  0.06874  0.69668  0.38531  1.0000
  O   O474      1.0  0.62794  0.93126  0.38531  1.0000
  O   O475      1.0  0.03873  0.63665  0.44802  1.0000
  O   O476      1.0  0.36335  0.40207  0.44802  1.0000
  O   O477      1.0  0.59793  0.96127  0.44802  1.0000
  O   O478      1.0  0.96999  0.70539  0.71864  1.0000
  O   O479      1.0  0.73541  0.03001  0.71864  1.0000
  O   O480      1.0  0.29461  0.26459  0.71864  1.0000
  O   O481      1.0  0.70539  0.96999  0.78136  1.0000
  O   O482      1.0  0.03001  0.73541  0.78136  1.0000
  O   O483      1.0  0.26459  0.29461  0.78136  1.0000
  O   O484      1.0  0.63665  0.03873  0.05198  1.0000
  O   O485      1.0  0.40207  0.36335  0.05198  1.0000
  O   O486      1.0  0.96127  0.59793  0.05198  1.0000
  O   O487      1.0  0.62794  0.69668  0.88531  1.0000
  O   O488      1.0  0.30332  0.93126  0.88531  1.0000
  O   O489      1.0  0.06874  0.37206  0.88531  1.0000
  O   O490      1.0  0.69668  0.62794  0.61469  1.0000
  O   O491      1.0  0.93126  0.30332  0.61469  1.0000
  O   O492      1.0  0.37206  0.06874  0.61469  1.0000
  O   O493      1.0  0.96127  0.36335  0.55198  1.0000
  O   O494      1.0  0.63665  0.59793  0.55198  1.0000
  O   O495      1.0  0.40207  0.03873  0.55198  1.0000
  O   O496      1.0  0.03001  0.29461  0.28136  1.0000
  O   O497      1.0  0.26459  0.96999  0.28136  1.0000
  O   O498      1.0  0.70539  0.73541  0.28136  1.0000
  O   O499      1.0  0.29461  0.03001  0.21864  1.0000
  O   O500      1.0  0.96999  0.26459  0.21864  1.0000
  O   O501      1.0  0.73541  0.70539  0.21864  1.0000
  O   O502      1.0  0.36335  0.96127  0.94802  1.0000
  O   O503      1.0  0.59793  0.63665  0.94802  1.0000
  O   O504      1.0  0.03873  0.40207  0.94802  1.0000
  O   O505      1.0  0.96437  0.10237  0.04989  1.0000
  O   O506      1.0  0.89763  0.86200  0.04989  1.0000
  O   O507      1.0  0.13800  0.03563  0.04989  1.0000
  O   O508      1.0  0.10237  0.96437  0.45011  1.0000
  O   O509      1.0  0.86200  0.89763  0.45011  1.0000
  O   O510      1.0  0.03563  0.13800  0.45011  1.0000
  O   O511      1.0  0.63104  0.43570  0.38322  1.0000
  O   O512      1.0  0.56430  0.19533  0.38322  1.0000
  O   O513      1.0  0.80467  0.36896  0.38322  1.0000
  O   O514      1.0  0.76904  0.29770  0.78344  1.0000
  O   O515      1.0  0.52867  0.23096  0.78344  1.0000
  O   O516      1.0  0.70230  0.47133  0.78344  1.0000
  O   O517      1.0  0.29770  0.76904  0.71656  1.0000
  O   O518      1.0  0.23096  0.52867  0.71656  1.0000
  O   O519      1.0  0.47133  0.70230  0.71656  1.0000
  O   O520      1.0  0.43570  0.63104  0.11678  1.0000
  O   O521      1.0  0.19533  0.56430  0.11678  1.0000
  O   O522      1.0  0.36896  0.80467  0.11678  1.0000
  O   O523      1.0  0.03563  0.89763  0.95011  1.0000
  O   O524      1.0  0.10237  0.13800  0.95011  1.0000
  O   O525      1.0  0.86200  0.96437  0.95011  1.0000
  O   O526      1.0  0.89763  0.03563  0.54989  1.0000
  O   O527      1.0  0.13800  0.10237  0.54989  1.0000
  O   O528      1.0  0.96437  0.86200  0.54989  1.0000
  O   O529      1.0  0.36896  0.56430  0.61678  1.0000
  O   O530      1.0  0.43570  0.80467  0.61678  1.0000
  O   O531      1.0  0.19533  0.63104  0.61678  1.0000
  O   O532      1.0  0.23096  0.70230  0.21656  1.0000
  O   O533      1.0  0.47133  0.76904  0.21656  1.0000
  O   O534      1.0  0.29770  0.52867  0.21656  1.0000
  O   O535      1.0  0.70230  0.23096  0.28344  1.0000
  O   O536      1.0  0.76904  0.47133  0.28344  1.0000
  O   O537      1.0  0.52867  0.29770  0.28344  1.0000
  O   O538      1.0  0.56430  0.36896  0.88322  1.0000
  O   O539      1.0  0.80467  0.43570  0.88322  1.0000
  O   O540      1.0  0.63104  0.19533  0.88322  1.0000
  O   O541      1.0  0.96199  0.03198  0.02797  1.0000
  O   O542      1.0  0.96802  0.93001  0.02797  1.0000
  O   O543      1.0  0.06999  0.03801  0.02797  1.0000
  O   O544      1.0  0.03198  0.96199  0.47203  1.0000
  O   O545      1.0  0.93001  0.96802  0.47203  1.0000
  O   O546      1.0  0.03801  0.06999  0.47203  1.0000
  O   O547      1.0  0.62866  0.36531  0.36130  1.0000
  O   O548      1.0  0.63469  0.26334  0.36130  1.0000
  O   O549      1.0  0.73666  0.37134  0.36130  1.0000
  O   O550      1.0  0.69865  0.29532  0.80536  1.0000
  O   O551      1.0  0.59668  0.30135  0.80536  1.0000
  O   O552      1.0  0.70468  0.40332  0.80536  1.0000
  O   O553      1.0  0.29532  0.69865  0.69464  1.0000
  O   O554      1.0  0.30135  0.59668  0.69464  1.0000
  O   O555      1.0  0.40332  0.70468  0.69464  1.0000
  O   O556      1.0  0.36531  0.62866  0.13870  1.0000
  O   O557      1.0  0.26334  0.63469  0.13870  1.0000
  O   O558      1.0  0.37134  0.73666  0.13870  1.0000
  O   O559      1.0  0.03801  0.96802  0.97203  1.0000
  O   O560      1.0  0.03198  0.06999  0.97203  1.0000
  O   O561      1.0  0.93001  0.96199  0.97203  1.0000
  O   O562      1.0  0.96802  0.03801  0.52797  1.0000
  O   O563      1.0  0.06999  0.03198  0.52797  1.0000
  O   O564      1.0  0.96199  0.93001  0.52797  1.0000
  O   O565      1.0  0.37134  0.63469  0.63870  1.0000
  O   O566      1.0  0.36531  0.73666  0.63870  1.0000
  O   O567      1.0  0.26334  0.62866  0.63870  1.0000
  O   O568      1.0  0.30135  0.70468  0.19464  1.0000
  O   O569      1.0  0.40332  0.69865  0.19464  1.0000
  O   O570      1.0  0.29532  0.59668  0.19464  1.0000
  O   O571      1.0  0.70468  0.30135  0.30536  1.0000
  O   O572      1.0  0.69865  0.40332  0.30536  1.0000
  O   O573      1.0  0.59668  0.29532  0.30536  1.0000
  O   O574      1.0  0.63469  0.37134  0.86130  1.0000
  O   O575      1.0  0.73666  0.36531  0.86130  1.0000
  O   O576      1.0  0.62866  0.26334  0.86130  1.0000
  O   O577      1.0  0.23930  0.36148  0.19354  1.0000
  O   O578      1.0  0.63852  0.87782  0.19354  1.0000
  O   O579      1.0  0.12218  0.76070  0.19354  1.0000
  O   O580      1.0  0.36148  0.23930  0.30646  1.0000
  O   O581      1.0  0.87782  0.63852  0.30646  1.0000
  O   O582      1.0  0.76070  0.12218  0.30646  1.0000
  O   O583      1.0  0.90597  0.69481  0.52687  1.0000
  O   O584      1.0  0.30519  0.21115  0.52687  1.0000
  O   O585      1.0  0.78885  0.09403  0.52687  1.0000
  O   O586      1.0  0.02815  0.57263  0.63979  1.0000
  O   O587      1.0  0.54449  0.97185  0.63979  1.0000
  O   O588      1.0  0.42737  0.45551  0.63979  1.0000
  O   O589      1.0  0.57263  0.02815  0.86021  1.0000
  O   O590      1.0  0.97185  0.54449  0.86021  1.0000
  O   O591      1.0  0.45551  0.42737  0.86021  1.0000
  O   O592      1.0  0.69481  0.90597  0.97313  1.0000
  O   O593      1.0  0.21115  0.30519  0.97313  1.0000
  O   O594      1.0  0.09403  0.78885  0.97313  1.0000
  O   O595      1.0  0.76070  0.63852  0.80646  1.0000
  O   O596      1.0  0.36148  0.12218  0.80646  1.0000
  O   O597      1.0  0.87782  0.23930  0.80646  1.0000
  O   O598      1.0  0.63852  0.76070  0.69354  1.0000
  O   O599      1.0  0.12218  0.36148  0.69354  1.0000
  O   O600      1.0  0.23930  0.87782  0.69354  1.0000
  O   O601      1.0  0.09403  0.30519  0.47313  1.0000
  O   O602      1.0  0.69481  0.78885  0.47313  1.0000
  O   O603      1.0  0.21115  0.90597  0.47313  1.0000
  O   O604      1.0  0.97185  0.42737  0.36021  1.0000
  O   O605      1.0  0.45551  0.02815  0.36021  1.0000
  O   O606      1.0  0.57263  0.54449  0.36021  1.0000
  O   O607      1.0  0.42737  0.97185  0.13979  1.0000
  O   O608      1.0  0.02815  0.45551  0.13979  1.0000
  O   O609      1.0  0.54449  0.57263  0.13979  1.0000
  O   O610      1.0  0.30519  0.09403  0.02687  1.0000
  O   O611      1.0  0.78885  0.69481  0.02687  1.0000
  O   O612      1.0  0.90597  0.21115  0.02687  1.0000
  O   O613      1.0  0.30523  0.43056  0.21809  1.0000
  O   O614      1.0  0.56944  0.87467  0.21809  1.0000
  O   O615      1.0  0.12533  0.69477  0.21809  1.0000
  O   O616      1.0  0.43056  0.30523  0.28191  1.0000
  O   O617      1.0  0.87467  0.56944  0.28191  1.0000
  O   O618      1.0  0.69477  0.12533  0.28191  1.0000
  O   O619      1.0  0.97190  0.76389  0.55142  1.0000
  O   O620      1.0  0.23611  0.20800  0.55142  1.0000
  O   O621      1.0  0.79200  0.02810  0.55142  1.0000
  O   O622      1.0  0.09723  0.63856  0.61524  1.0000
  O   O623      1.0  0.54134  0.90277  0.61524  1.0000
  O   O624      1.0  0.36144  0.45866  0.61524  1.0000
  O   O625      1.0  0.63856  0.09723  0.88476  1.0000
  O   O626      1.0  0.90277  0.54134  0.88476  1.0000
  O   O627      1.0  0.45866  0.36144  0.88476  1.0000
  O   O628      1.0  0.76389  0.97190  0.94858  1.0000
  O   O629      1.0  0.20800  0.23611  0.94858  1.0000
  O   O630      1.0  0.02810  0.79200  0.94858  1.0000
  O   O631      1.0  0.69477  0.56944  0.78191  1.0000
  O   O632      1.0  0.43056  0.12533  0.78191  1.0000
  O   O633      1.0  0.87467  0.30523  0.78191  1.0000
  O   O634      1.0  0.56944  0.69477  0.71809  1.0000
  O   O635      1.0  0.12533  0.43056  0.71809  1.0000
  O   O636      1.0  0.30523  0.87467  0.71809  1.0000
  O   O637      1.0  0.02810  0.23611  0.44858  1.0000
  O   O638      1.0  0.76389  0.79200  0.44858  1.0000
  O   O639      1.0  0.20800  0.97190  0.44858  1.0000
  O   O640      1.0  0.90277  0.36144  0.38476  1.0000
  O   O641      1.0  0.45866  0.09723  0.38476  1.0000
  O   O642      1.0  0.63856  0.54134  0.38476  1.0000
  O   O643      1.0  0.36144  0.90277  0.11524  1.0000
  O   O644      1.0  0.09723  0.45866  0.11524  1.0000
  O   O645      1.0  0.54134  0.63856  0.11524  1.0000
  O   O646      1.0  0.23611  0.02810  0.05142  1.0000
  O   O647      1.0  0.79200  0.76389  0.05142  1.0000
  O   O648      1.0  0.97190  0.20800  0.05142  1.0000
  O   O649      1.0  0.26717  0.13750  0.13472  1.0000
  O   O650      1.0  0.86250  0.12967  0.13472  1.0000
  O   O651      1.0  0.87033  0.73283  0.13472  1.0000
  O   O652      1.0  0.13750  0.26717  0.36528  1.0000
  O   O653      1.0  0.12967  0.86250  0.36528  1.0000
  O   O654      1.0  0.73283  0.87033  0.36528  1.0000
  O   O655      1.0  0.93384  0.47083  0.46805  1.0000
  O   O656      1.0  0.52917  0.46300  0.46805  1.0000
  O   O657      1.0  0.53700  0.06616  0.46805  1.0000
  O   O658      1.0  0.80417  0.60050  0.69861  1.0000
  O   O659      1.0  0.79634  0.19583  0.69861  1.0000
  O   O660      1.0  0.39950  0.20366  0.69861  1.0000
  O   O661      1.0  0.60050  0.80417  0.80139  1.0000
  O   O662      1.0  0.19583  0.79634  0.80139  1.0000
  O   O663      1.0  0.20366  0.39950  0.80139  1.0000
  O   O664      1.0  0.47083  0.93384  0.03195  1.0000
  O   O665      1.0  0.46300  0.52917  0.03195  1.0000
  O   O666      1.0  0.06616  0.53700  0.03195  1.0000
  O   O667      1.0  0.73283  0.86250  0.86528  1.0000
  O   O668      1.0  0.13750  0.87033  0.86528  1.0000
  O   O669      1.0  0.12967  0.26717  0.86528  1.0000
  O   O670      1.0  0.86250  0.73283  0.63472  1.0000
  O   O671      1.0  0.87033  0.13750  0.63472  1.0000
  O   O672      1.0  0.26717  0.12967  0.63472  1.0000
  O   O673      1.0  0.06616  0.52917  0.53195  1.0000
  O   O674      1.0  0.47083  0.53700  0.53195  1.0000
  O   O675      1.0  0.46300  0.93384  0.53195  1.0000
  O   O676      1.0  0.19583  0.39950  0.30139  1.0000
  O   O677      1.0  0.20366  0.80417  0.30139  1.0000
  O   O678      1.0  0.60050  0.79634  0.30139  1.0000
  O   O679      1.0  0.39950  0.19583  0.19861  1.0000
  O   O680      1.0  0.80417  0.20366  0.19861  1.0000
  O   O681      1.0  0.79634  0.60050  0.19861  1.0000
  O   O682      1.0  0.52917  0.06616  0.96805  1.0000
  O   O683      1.0  0.53700  0.47083  0.96805  1.0000
  O   O684      1.0  0.93384  0.46300  0.96805  1.0000
  O   O685      1.0  0.20180  0.06822  0.11043  1.0000
  O   O686      1.0  0.93178  0.13358  0.11043  1.0000
  O   O687      1.0  0.86642  0.79820  0.11043  1.0000
  O   O688      1.0  0.06822  0.20180  0.38957  1.0000
  O   O689      1.0  0.13358  0.93178  0.38957  1.0000
  O   O690      1.0  0.79820  0.86642  0.38957  1.0000
  O   O691      1.0  0.86847  0.40155  0.44376  1.0000
  O   O692      1.0  0.59845  0.46691  0.44376  1.0000
  O   O693      1.0  0.53309  0.13153  0.44376  1.0000
  O   O694      1.0  0.73489  0.53513  0.72290  1.0000
  O   O695      1.0  0.80025  0.26511  0.72290  1.0000
  O   O696      1.0  0.46487  0.19975  0.72290  1.0000
  O   O697      1.0  0.53513  0.73489  0.77710  1.0000
  O   O698      1.0  0.26511  0.80025  0.77710  1.0000
  O   O699      1.0  0.19975  0.46487  0.77710  1.0000
  O   O700      1.0  0.40155  0.86847  0.05624  1.0000
  O   O701      1.0  0.46691  0.59845  0.05624  1.0000
  O   O702      1.0  0.13153  0.53309  0.05624  1.0000
  O   O703      1.0  0.79820  0.93178  0.88957  1.0000
  O   O704      1.0  0.06822  0.86642  0.88957  1.0000
  O   O705      1.0  0.13358  0.20180  0.88957  1.0000
  O   O706      1.0  0.93178  0.79820  0.61043  1.0000
  O   O707      1.0  0.86642  0.06822  0.61043  1.0000
  O   O708      1.0  0.20180  0.13358  0.61043  1.0000
  O   O709      1.0  0.13153  0.59845  0.55624  1.0000
  O   O710      1.0  0.40155  0.53309  0.55624  1.0000
  O   O711      1.0  0.46691  0.86847  0.55624  1.0000
  O   O712      1.0  0.26511  0.46487  0.27710  1.0000
  O   O713      1.0  0.19975  0.73489  0.27710  1.0000
  O   O714      1.0  0.53513  0.80025  0.27710  1.0000
  O   O715      1.0  0.46487  0.26511  0.22290  1.0000
  O   O716      1.0  0.73489  0.19975  0.22290  1.0000
  O   O717      1.0  0.80025  0.53513  0.22290  1.0000
  O   O718      1.0  0.59845  0.13153  0.94376  1.0000
  O   O719      1.0  0.53309  0.40155  0.94376  1.0000
  O   O720      1.0  0.86847  0.46691  0.94376  1.0000
  O   O721      1.0  0.06521  0.20032  0.05027  1.0000
  O   O722      1.0  0.79968  0.86489  0.05027  1.0000
  O   O723      1.0  0.13511  0.93479  0.05027  1.0000
  O   O724      1.0  0.20032  0.06521  0.44973  1.0000
  O   O725      1.0  0.86489  0.79968  0.44973  1.0000
  O   O726      1.0  0.93479  0.13511  0.44973  1.0000
  O   O727      1.0  0.73188  0.53365  0.38360  1.0000
  O   O728      1.0  0.46635  0.19822  0.38360  1.0000
  O   O729      1.0  0.80178  0.26812  0.38360  1.0000
  O   O730      1.0  0.86699  0.39854  0.78306  1.0000
  O   O731      1.0  0.53156  0.13301  0.78306  1.0000
  O   O732      1.0  0.60146  0.46844  0.78306  1.0000
  O   O733      1.0  0.39854  0.86699  0.71694  1.0000
  O   O734      1.0  0.13301  0.53156  0.71694  1.0000
  O   O735      1.0  0.46844  0.60146  0.71694  1.0000
  O   O736      1.0  0.53365  0.73188  0.11640  1.0000
  O   O737      1.0  0.19822  0.46635  0.11640  1.0000
  O   O738      1.0  0.26812  0.80178  0.11640  1.0000
  O   O739      1.0  0.93479  0.79968  0.94973  1.0000
  O   O740      1.0  0.20032  0.13511  0.94973  1.0000
  O   O741      1.0  0.86489  0.06521  0.94973  1.0000
  O   O742      1.0  0.79968  0.93479  0.55027  1.0000
  O   O743      1.0  0.13511  0.20032  0.55027  1.0000
  O   O744      1.0  0.06521  0.86489  0.55027  1.0000
  O   O745      1.0  0.26812  0.46635  0.61640  1.0000
  O   O746      1.0  0.53365  0.80178  0.61640  1.0000
  O   O747      1.0  0.19822  0.73188  0.61640  1.0000
  O   O748      1.0  0.13301  0.60146  0.21694  1.0000
  O   O749      1.0  0.46844  0.86699  0.21694  1.0000
  O   O750      1.0  0.39854  0.53156  0.21694  1.0000
  O   O751      1.0  0.60146  0.13301  0.28306  1.0000
  O   O752      1.0  0.86699  0.46844  0.28306  1.0000
  O   O753      1.0  0.53156  0.39854  0.28306  1.0000
  O   O754      1.0  0.46635  0.26812  0.88360  1.0000
  O   O755      1.0  0.80178  0.53365  0.88360  1.0000
  O   O756      1.0  0.73188  0.19822  0.88360  1.0000
  O   O757      1.0  0.13481  0.26401  0.02498  1.0000
  O   O758      1.0  0.73599  0.87080  0.02498  1.0000
  O   O759      1.0  0.12920  0.86519  0.02498  1.0000
  O   O760      1.0  0.26401  0.13481  0.47502  1.0000
  O   O761      1.0  0.87080  0.73599  0.47502  1.0000
  O   O762      1.0  0.86519  0.12920  0.47502  1.0000
  O   O763      1.0  0.80148  0.59734  0.35831  1.0000
  O   O764      1.0  0.40266  0.20413  0.35831  1.0000
  O   O765      1.0  0.79587  0.19852  0.35831  1.0000
  O   O766      1.0  0.93068  0.46814  0.80835  1.0000
  O   O767      1.0  0.53747  0.06932  0.80835  1.0000
  O   O768      1.0  0.53186  0.46253  0.80835  1.0000
  O   O769      1.0  0.46814  0.93068  0.69165  1.0000
  O   O770      1.0  0.06932  0.53747  0.69165  1.0000
  O   O771      1.0  0.46253  0.53186  0.69165  1.0000
  O   O772      1.0  0.59734  0.80148  0.14169  1.0000
  O   O773      1.0  0.20413  0.40266  0.14169  1.0000
  O   O774      1.0  0.19852  0.79587  0.14169  1.0000
  O   O775      1.0  0.86519  0.73599  0.97502  1.0000
  O   O776      1.0  0.26401  0.12920  0.97502  1.0000
  O   O777      1.0  0.87080  0.13481  0.97502  1.0000
  O   O778      1.0  0.73599  0.86519  0.52498  1.0000
  O   O779      1.0  0.12920  0.26401  0.52498  1.0000
  O   O780      1.0  0.13481  0.87080  0.52498  1.0000
  O   O781      1.0  0.19852  0.40266  0.64169  1.0000
  O   O782      1.0  0.59734  0.79587  0.64169  1.0000
  O   O783      1.0  0.20413  0.80148  0.64169  1.0000
  O   O784      1.0  0.06932  0.53186  0.19165  1.0000
  O   O785      1.0  0.46253  0.93068  0.19165  1.0000
  O   O786      1.0  0.46814  0.53747  0.19165  1.0000
  O   O787      1.0  0.53186  0.06932  0.30835  1.0000
  O   O788      1.0  0.93068  0.46253  0.30835  1.0000
  O   O789      1.0  0.53747  0.46814  0.30835  1.0000
  O   O790      1.0  0.40266  0.19852  0.85831  1.0000
  O   O791      1.0  0.79587  0.59734  0.85831  1.0000
  O   O792      1.0  0.80148  0.20413  0.85831  1.0000
  O   O793      1.0  0.30217  0.26680  0.05180  1.0000
  O   O794      1.0  0.73320  0.03537  0.05180  1.0000
  O   O795      1.0  0.96463  0.69783  0.05180  1.0000
  O   O796      1.0  0.26680  0.30217  0.44820  1.0000
  O   O797      1.0  0.03537  0.73320  0.44820  1.0000
  O   O798      1.0  0.69783  0.96463  0.44820  1.0000
  O   O799      1.0  0.96884  0.60013  0.38513  1.0000
  O   O800      1.0  0.39987  0.36870  0.38513  1.0000
  O   O801      1.0  0.63130  0.03116  0.38513  1.0000
  O   O802      1.0  0.93347  0.63550  0.78153  1.0000
  O   O803      1.0  0.70204  0.06653  0.78153  1.0000
  O   O804      1.0  0.36450  0.29796  0.78153  1.0000
  O   O805      1.0  0.63550  0.93347  0.71847  1.0000
  O   O806      1.0  0.06653  0.70204  0.71847  1.0000
  O   O807      1.0  0.29796  0.36450  0.71847  1.0000
  O   O808      1.0  0.60013  0.96884  0.11487  1.0000
  O   O809      1.0  0.36870  0.39987  0.11487  1.0000
  O   O810      1.0  0.03116  0.63130  0.11487  1.0000
  O   O811      1.0  0.69783  0.73320  0.94820  1.0000
  O   O812      1.0  0.26680  0.96463  0.94820  1.0000
  O   O813      1.0  0.03537  0.30217  0.94820  1.0000
  O   O814      1.0  0.73320  0.69783  0.55180  1.0000
  O   O815      1.0  0.96463  0.26680  0.55180  1.0000
  O   O816      1.0  0.30217  0.03537  0.55180  1.0000
  O   O817      1.0  0.03116  0.39987  0.61487  1.0000
  O   O818      1.0  0.60013  0.63130  0.61487  1.0000
  O   O819      1.0  0.36870  0.96884  0.61487  1.0000
  O   O820      1.0  0.06653  0.36450  0.21847  1.0000
  O   O821      1.0  0.29796  0.93347  0.21847  1.0000
  O   O822      1.0  0.63550  0.70204  0.21847  1.0000
  O   O823      1.0  0.36450  0.06653  0.28153  1.0000
  O   O824      1.0  0.93347  0.29796  0.28153  1.0000
  O   O825      1.0  0.70204  0.63550  0.28153  1.0000
  O   O826      1.0  0.39987  0.03116  0.88513  1.0000
  O   O827      1.0  0.63130  0.60013  0.88513  1.0000
  O   O828      1.0  0.96884  0.36870  0.88513  1.0000
  O   O829      1.0  0.29703  0.19515  0.03026  1.0000
  O   O830      1.0  0.80485  0.10188  0.03026  1.0000
  O   O831      1.0  0.89812  0.70297  0.03026  1.0000
  O   O832      1.0  0.19515  0.29703  0.46974  1.0000
  O   O833      1.0  0.10188  0.80485  0.46974  1.0000
  O   O834      1.0  0.70297  0.89812  0.46974  1.0000
  O   O835      1.0  0.96370  0.52848  0.36359  1.0000
  O   O836      1.0  0.47152  0.43521  0.36359  1.0000
  O   O837      1.0  0.56479  0.03630  0.36359  1.0000
  O   O838      1.0  0.86182  0.63036  0.80307  1.0000
  O   O839      1.0  0.76855  0.13818  0.80307  1.0000
  O   O840      1.0  0.36964  0.23145  0.80307  1.0000
  O   O841      1.0  0.63036  0.86182  0.69693  1.0000
  O   O842      1.0  0.13818  0.76855  0.69693  1.0000
  O   O843      1.0  0.23145  0.36964  0.69693  1.0000
  O   O844      1.0  0.52848  0.96370  0.13641  1.0000
  O   O845      1.0  0.43521  0.47152  0.13641  1.0000
  O   O846      1.0  0.03630  0.56479  0.13641  1.0000
  O   O847      1.0  0.70297  0.80485  0.96974  1.0000
  O   O848      1.0  0.19515  0.89812  0.96974  1.0000
  O   O849      1.0  0.10188  0.29703  0.96974  1.0000
  O   O850      1.0  0.80485  0.70297  0.53026  1.0000
  O   O851      1.0  0.89812  0.19515  0.53026  1.0000
  O   O852      1.0  0.29703  0.10188  0.53026  1.0000
  O   O853      1.0  0.03630  0.47152  0.63641  1.0000
  O   O854      1.0  0.52848  0.56479  0.63641  1.0000
  O   O855      1.0  0.43521  0.96370  0.63641  1.0000
  O   O856      1.0  0.13818  0.36964  0.19693  1.0000
  O   O857      1.0  0.23145  0.86182  0.19693  1.0000
  O   O858      1.0  0.63036  0.76855  0.19693  1.0000
  O   O859      1.0  0.36964  0.13818  0.30307  1.0000
  O   O860      1.0  0.86182  0.23145  0.30307  1.0000
  O   O861      1.0  0.76855  0.63036  0.30307  1.0000
  O   O862      1.0  0.47152  0.03630  0.86359  1.0000
  O   O863      1.0  0.56479  0.52848  0.86359  1.0000
  O   O864      1.0  0.96370  0.43521  0.86359  1.0000
  C   C1        1.0  0.08790  0.07219  0.20911  1.0000
  C   C2        1.0  0.92781  0.01571  0.20911  1.0000
  C   C3        1.0  0.98429  0.91210  0.20911  1.0000
  C   C4        1.0  0.07219  0.08790  0.29089  1.0000
  C   C5        1.0  0.01571  0.92781  0.29089  1.0000
  C   C6        1.0  0.91210  0.98429  0.29089  1.0000
  C   C7        1.0  0.75457  0.40552  0.54244  1.0000
  C   C8        1.0  0.59448  0.34904  0.54244  1.0000
  C   C9        1.0  0.65096  0.24543  0.54244  1.0000
  C   C10       1.0  0.73886  0.42123  0.62422  1.0000
  C   C11       1.0  0.68238  0.26114  0.62422  1.0000
  C   C12       1.0  0.57877  0.31762  0.62422  1.0000
  C   C13       1.0  0.42123  0.73886  0.87578  1.0000
  C   C14       1.0  0.26114  0.68238  0.87578  1.0000
  C   C15       1.0  0.31762  0.57877  0.87578  1.0000
  C   C16       1.0  0.40552  0.75457  0.95756  1.0000
  C   C17       1.0  0.34904  0.59448  0.95756  1.0000
  C   C18       1.0  0.24543  0.65096  0.95756  1.0000
  C   C19       1.0  0.91210  0.92781  0.79089  1.0000
  C   C20       1.0  0.07219  0.98429  0.79089  1.0000
  C   C21       1.0  0.01571  0.08790  0.79089  1.0000
  C   C22       1.0  0.92781  0.91210  0.70911  1.0000
  C   C23       1.0  0.98429  0.07219  0.70911  1.0000
  C   C24       1.0  0.08790  0.01571  0.70911  1.0000
  C   C25       1.0  0.24543  0.59448  0.45756  1.0000
  C   C26       1.0  0.40552  0.65096  0.45756  1.0000
  C   C27       1.0  0.34904  0.75457  0.45756  1.0000
  C   C28       1.0  0.26114  0.57877  0.37578  1.0000
  C   C29       1.0  0.31762  0.73886  0.37578  1.0000
  C   C30       1.0  0.42123  0.68238  0.37578  1.0000
  C   C31       1.0  0.57877  0.26114  0.12422  1.0000
  C   C32       1.0  0.73886  0.31762  0.12422  1.0000
  C   C33       1.0  0.68238  0.42123  0.12422  1.0000
  C   C34       1.0  0.59448  0.24543  0.04244  1.0000
  C   C35       1.0  0.65096  0.40552  0.04244  1.0000
  C   C36       1.0  0.75457  0.34904  0.04244  1.0000
  H   H1        1.0  0.06620  0.08690  0.21300  1.0000
  H   H2        1.0  0.91310  0.97930  0.21300  1.0000
  H   H3        1.0  0.02070  0.93380  0.21300  1.0000
  H   H4        1.0  0.08690  0.06620  0.28700  1.0000
  H   H5        1.0  0.97930  0.91310  0.28700  1.0000
  H   H6        1.0  0.93380  0.02070  0.28700  1.0000
  H   H7        1.0  0.73287  0.42023  0.54633  1.0000
  H   H8        1.0  0.57977  0.31263  0.54633  1.0000
  H   H9        1.0  0.68737  0.26713  0.54633  1.0000
  H   H10       1.0  0.75357  0.39953  0.62033  1.0000
  H   H11       1.0  0.64597  0.24643  0.62033  1.0000
  H   H12       1.0  0.60047  0.35403  0.62033  1.0000
  H   H13       1.0  0.39953  0.75357  0.87967  1.0000
  H   H14       1.0  0.24643  0.64597  0.87967  1.0000
  H   H15       1.0  0.35403  0.60047  0.87967  1.0000
  H   H16       1.0  0.42023  0.73287  0.95367  1.0000
  H   H17       1.0  0.31263  0.57977  0.95367  1.0000
  H   H18       1.0  0.26713  0.68737  0.95367  1.0000
  H   H19       1.0  0.93380  0.91310  0.78700  1.0000
  H   H20       1.0  0.08690  0.02070  0.78700  1.0000
  H   H21       1.0  0.97930  0.06620  0.78700  1.0000
  H   H22       1.0  0.91310  0.93380  0.71300  1.0000
  H   H23       1.0  0.02070  0.08690  0.71300  1.0000
  H   H24       1.0  0.06620  0.97930  0.71300  1.0000
  H   H25       1.0  0.26713  0.57977  0.45367  1.0000
  H   H26       1.0  0.42023  0.68737  0.45367  1.0000
  H   H27       1.0  0.31263  0.73287  0.45367  1.0000
  H   H28       1.0  0.24643  0.60047  0.37967  1.0000
  H   H29       1.0  0.35403  0.75357  0.37967  1.0000
  H   H30       1.0  0.39953  0.64597  0.37967  1.0000
  H   H31       1.0  0.60047  0.24643  0.12033  1.0000
  H   H32       1.0  0.75357  0.35403  0.12033  1.0000
  H   H33       1.0  0.64597  0.39953  0.12033  1.0000
  H   H34       1.0  0.57977  0.26713  0.04633  1.0000
  H   H35       1.0  0.68737  0.42023  0.04633  1.0000
  H   H36       1.0  0.73287  0.31263  0.04633  1.0000
  C   C37       1.0  0.15246  0.24089  0.20701  1.0000
  C   C38       1.0  0.75911  0.91157  0.20701  1.0000
  C   C39       1.0  0.08843  0.84754  0.20701  1.0000
  C   C40       1.0  0.24089  0.15246  0.29299  1.0000
  C   C41       1.0  0.91157  0.75911  0.29299  1.0000
  C   C42       1.0  0.84754  0.08843  0.29299  1.0000
  C   C43       1.0  0.81913  0.57422  0.54034  1.0000
  C   C44       1.0  0.42578  0.24490  0.54034  1.0000
  C   C45       1.0  0.75510  0.18087  0.54034  1.0000
  C   C46       1.0  0.90756  0.48579  0.62632  1.0000
  C   C47       1.0  0.57824  0.09244  0.62632  1.0000
  C   C48       1.0  0.51421  0.42176  0.62632  1.0000
  C   C49       1.0  0.48579  0.90756  0.87368  1.0000
  C   C50       1.0  0.09244  0.57824  0.87368  1.0000
  C   C51       1.0  0.42176  0.51421  0.87368  1.0000
  C   C52       1.0  0.57422  0.81913  0.95966  1.0000
  C   C53       1.0  0.24490  0.42578  0.95966  1.0000
  C   C54       1.0  0.18087  0.75510  0.95966  1.0000
  C   C55       1.0  0.84754  0.75911  0.79299  1.0000
  C   C56       1.0  0.24089  0.08843  0.79299  1.0000
  C   C57       1.0  0.91157  0.15246  0.79299  1.0000
  C   C58       1.0  0.75911  0.84754  0.70701  1.0000
  C   C59       1.0  0.08843  0.24089  0.70701  1.0000
  C   C60       1.0  0.15246  0.91157  0.70701  1.0000
  C   C61       1.0  0.18087  0.42578  0.45966  1.0000
  C   C62       1.0  0.57422  0.75510  0.45966  1.0000
  C   C63       1.0  0.24490  0.81913  0.45966  1.0000
  C   C64       1.0  0.09244  0.51421  0.37368  1.0000
  C   C65       1.0  0.42176  0.90756  0.37368  1.0000
  C   C66       1.0  0.48579  0.57824  0.37368  1.0000
  C   C67       1.0  0.51421  0.09244  0.12632  1.0000
  C   C68       1.0  0.90756  0.42176  0.12632  1.0000
  C   C69       1.0  0.57824  0.48579  0.12632  1.0000
  C   C70       1.0  0.42578  0.18087  0.04034  1.0000
  C   C71       1.0  0.75510  0.57422  0.04034  1.0000
  C   C72       1.0  0.81913  0.24490  0.04034  1.0000
  H   H37       1.0  0.18940  0.26010  0.20860  1.0000
  H   H38       1.0  0.73990  0.92930  0.20860  1.0000
  H   H39       1.0  0.07070  0.81060  0.20860  1.0000
  H   H40       1.0  0.26010  0.18940  0.29140  1.0000
  H   H41       1.0  0.92930  0.73990  0.29140  1.0000
  H   H42       1.0  0.81060  0.07070  0.29140  1.0000
  H   H43       1.0  0.85607  0.59343  0.54193  1.0000
  H   H44       1.0  0.40657  0.26263  0.54193  1.0000
  H   H45       1.0  0.73737  0.14393  0.54193  1.0000
  H   H46       1.0  0.92677  0.52273  0.62473  1.0000
  H   H47       1.0  0.59597  0.07323  0.62473  1.0000
  H   H48       1.0  0.47727  0.40403  0.62473  1.0000
  H   H49       1.0  0.52273  0.92677  0.87527  1.0000
  H   H50       1.0  0.07323  0.59597  0.87527  1.0000
  H   H51       1.0  0.40403  0.47727  0.87527  1.0000
  H   H52       1.0  0.59343  0.85607  0.95807  1.0000
  H   H53       1.0  0.26263  0.40657  0.95807  1.0000
  H   H54       1.0  0.14393  0.73737  0.95807  1.0000
  H   H55       1.0  0.81060  0.73990  0.79140  1.0000
  H   H56       1.0  0.26010  0.07070  0.79140  1.0000
  H   H57       1.0  0.92930  0.18940  0.79140  1.0000
  H   H58       1.0  0.73990  0.81060  0.70860  1.0000
  H   H59       1.0  0.07070  0.26010  0.70860  1.0000
  H   H60       1.0  0.18940  0.92930  0.70860  1.0000
  H   H61       1.0  0.14393  0.40657  0.45807  1.0000
  H   H62       1.0  0.59343  0.73737  0.45807  1.0000
  H   H63       1.0  0.26263  0.85607  0.45807  1.0000
  H   H64       1.0  0.07323  0.47727  0.37527  1.0000
  H   H65       1.0  0.40403  0.92677  0.37527  1.0000
  H   H66       1.0  0.52273  0.59597  0.37527  1.0000
  H   H67       1.0  0.47727  0.07323  0.12473  1.0000
  H   H68       1.0  0.92677  0.40403  0.12473  1.0000
  H   H69       1.0  0.59597  0.52273  0.12473  1.0000
  H   H70       1.0  0.40657  0.14393  0.04193  1.0000
  H   H71       1.0  0.73737  0.59343  0.04193  1.0000
  H   H72       1.0  0.85607  0.26263  0.04193  1.0000
  C   C73       1.0  0.25958  0.17999  0.21240  1.0000
  C   C74       1.0  0.82001  0.07959  0.21240  1.0000
  C   C75       1.0  0.92041  0.74042  0.21240  1.0000
  C   C76       1.0  0.17999  0.25958  0.28760  1.0000
  C   C77       1.0  0.07959  0.82001  0.28760  1.0000
  C   C78       1.0  0.74042  0.92041  0.28760  1.0000
  C   C79       1.0  0.92625  0.51332  0.54573  1.0000
  C   C80       1.0  0.48668  0.41292  0.54573  1.0000
  C   C81       1.0  0.58708  0.07375  0.54573  1.0000
  C   C82       1.0  0.84666  0.59291  0.62093  1.0000
  C   C83       1.0  0.74626  0.15334  0.62093  1.0000
  C   C84       1.0  0.40709  0.25374  0.62093  1.0000
  C   C85       1.0  0.59291  0.84666  0.87907  1.0000
  C   C86       1.0  0.15334  0.74626  0.87907  1.0000
  C   C87       1.0  0.25374  0.40709  0.87907  1.0000
  C   C88       1.0  0.51332  0.92625  0.95427  1.0000
  C   C89       1.0  0.41292  0.48668  0.95427  1.0000
  C   C90       1.0  0.07375  0.58708  0.95427  1.0000
  C   C91       1.0  0.74042  0.82001  0.78760  1.0000
  C   C92       1.0  0.17999  0.92041  0.78760  1.0000
  C   C93       1.0  0.07959  0.25958  0.78760  1.0000
  C   C94       1.0  0.82001  0.74042  0.71240  1.0000
  C   C95       1.0  0.92041  0.17999  0.71240  1.0000
  C   C96       1.0  0.25958  0.07959  0.71240  1.0000
  C   C97       1.0  0.07375  0.48668  0.45427  1.0000
  C   C98       1.0  0.51332  0.58708  0.45427  1.0000
  C   C99       1.0  0.41292  0.92625  0.45427  1.0000
  C   C100      1.0  0.15334  0.40709  0.37907  1.0000
  C   C101      1.0  0.25374  0.84666  0.37907  1.0000
  C   C102      1.0  0.59291  0.74626  0.37907  1.0000
  C   C103      1.0  0.40709  0.15334  0.12093  1.0000
  C   C104      1.0  0.84666  0.25374  0.12093  1.0000
  C   C105      1.0  0.74626  0.59291  0.12093  1.0000
  C   C106      1.0  0.48668  0.07375  0.04573  1.0000
  C   C107      1.0  0.58708  0.51332  0.04573  1.0000
  C   C108      1.0  0.92625  0.41292  0.04573  1.0000
  H   H73       1.0  0.25420  0.14980  0.22430  1.0000
  H   H74       1.0  0.85020  0.10440  0.22430  1.0000
  H   H75       1.0  0.89560  0.74580  0.22430  1.0000
  H   H76       1.0  0.14980  0.25420  0.27570  1.0000
  H   H77       1.0  0.10440  0.85020  0.27570  1.0000
  H   H78       1.0  0.74580  0.89560  0.27570  1.0000
  H   H79       1.0  0.92087  0.48313  0.55763  1.0000
  H   H80       1.0  0.51687  0.43773  0.55763  1.0000
  H   H81       1.0  0.56227  0.07913  0.55763  1.0000
  H   H82       1.0  0.81647  0.58753  0.60903  1.0000
  H   H83       1.0  0.77107  0.18353  0.60903  1.0000
  H   H84       1.0  0.41247  0.22893  0.60903  1.0000
  H   H85       1.0  0.58753  0.81647  0.89097  1.0000
  H   H86       1.0  0.18353  0.77107  0.89097  1.0000
  H   H87       1.0  0.22893  0.41247  0.89097  1.0000
  H   H88       1.0  0.48313  0.92087  0.94237  1.0000
  H   H89       1.0  0.43773  0.51687  0.94237  1.0000
  H   H90       1.0  0.07913  0.56227  0.94237  1.0000
  H   H91       1.0  0.74580  0.85020  0.77570  1.0000
  H   H92       1.0  0.14980  0.89560  0.77570  1.0000
  H   H93       1.0  0.10440  0.25420  0.77570  1.0000
  H   H94       1.0  0.85020  0.74580  0.72430  1.0000
  H   H95       1.0  0.89560  0.14980  0.72430  1.0000
  H   H96       1.0  0.25420  0.10440  0.72430  1.0000
  H   H97       1.0  0.07913  0.51687  0.44237  1.0000
  H   H98       1.0  0.48313  0.56227  0.44237  1.0000
  H   H99       1.0  0.43773  0.92087  0.44237  1.0000
  H   H100      1.0  0.18353  0.41247  0.39097  1.0000
  H   H101      1.0  0.22893  0.81647  0.39097  1.0000
  H   H102      1.0  0.58753  0.77107  0.39097  1.0000
  H   H103      1.0  0.41247  0.18353  0.10903  1.0000
  H   H104      1.0  0.81647  0.22893  0.10903  1.0000
  H   H105      1.0  0.77107  0.58753  0.10903  1.0000
  H   H106      1.0  0.51687  0.07913  0.05763  1.0000
  H   H107      1.0  0.56227  0.48313  0.05763  1.0000
  H   H108      1.0  0.92087  0.43773  0.05763  1.0000
  C   C109      1.0  0.01314  0.08821  0.12085  1.0000
  C   C110      1.0  0.91179  0.92493  0.12085  1.0000
  C   C111      1.0  0.07507  0.98686  0.12085  1.0000
  C   C112      1.0  0.08821  0.01314  0.37915  1.0000
  C   C113      1.0  0.92493  0.91179  0.37915  1.0000
  C   C114      1.0  0.98686  0.07507  0.37915  1.0000
  C   C115      1.0  0.67981  0.42154  0.45418  1.0000
  C   C116      1.0  0.57846  0.25826  0.45418  1.0000
  C   C117      1.0  0.74174  0.32019  0.45418  1.0000
  C   C118      1.0  0.75488  0.34647  0.71248  1.0000
  C   C119      1.0  0.59160  0.24512  0.71248  1.0000
  C   C120      1.0  0.65353  0.40840  0.71248  1.0000
  C   C121      1.0  0.34647  0.75488  0.78752  1.0000
  C   C122      1.0  0.24512  0.59160  0.78752  1.0000
  C   C123      1.0  0.40840  0.65353  0.78752  1.0000
  C   C124      1.0  0.42154  0.67981  0.04582  1.0000
  C   C125      1.0  0.25826  0.57846  0.04582  1.0000
  C   C126      1.0  0.32019  0.74174  0.04582  1.0000
  C   C127      1.0  0.98686  0.91179  0.87915  1.0000
  C   C128      1.0  0.08821  0.07507  0.87915  1.0000
  C   C129      1.0  0.92493  0.01314  0.87915  1.0000
  C   C130      1.0  0.91179  0.98686  0.62085  1.0000
  C   C131      1.0  0.07507  0.08821  0.62085  1.0000
  C   C132      1.0  0.01314  0.92493  0.62085  1.0000
  C   C133      1.0  0.32019  0.57846  0.54582  1.0000
  C   C134      1.0  0.42154  0.74174  0.54582  1.0000
  C   C135      1.0  0.25826  0.67981  0.54582  1.0000
  C   C136      1.0  0.24512  0.65353  0.28752  1.0000
  C   C137      1.0  0.40840  0.75488  0.28752  1.0000
  C   C138      1.0  0.34647  0.59160  0.28752  1.0000
  C   C139      1.0  0.65353  0.24512  0.21248  1.0000
  C   C140      1.0  0.75488  0.40840  0.21248  1.0000
  C   C141      1.0  0.59160  0.34647  0.21248  1.0000
  C   C142      1.0  0.57846  0.32019  0.95418  1.0000
  C   C143      1.0  0.74174  0.42154  0.95418  1.0000
  C   C144      1.0  0.67981  0.25826  0.95418  1.0000
  H   H109      1.0  0.97860  0.06490  0.11350  1.0000
  H   H110      1.0  0.93510  0.91370  0.11350  1.0000
  H   H111      1.0  0.08630  0.02140  0.11350  1.0000
  H   H112      1.0  0.06490  0.97860  0.38650  1.0000
  H   H113      1.0  0.91370  0.93510  0.38650  1.0000
  H   H114      1.0  0.02140  0.08630  0.38650  1.0000
  H   H115      1.0  0.64527  0.39823  0.44683  1.0000
  H   H116      1.0  0.60177  0.24703  0.44683  1.0000
  H   H117      1.0  0.75297  0.35473  0.44683  1.0000
  H   H118      1.0  0.73157  0.31193  0.71983  1.0000
  H   H119      1.0  0.58037  0.26843  0.71983  1.0000
  H   H120      1.0  0.68807  0.41963  0.71983  1.0000
  H   H121      1.0  0.31193  0.73157  0.78017  1.0000
  H   H122      1.0  0.26843  0.58037  0.78017  1.0000
  H   H123      1.0  0.41963  0.68807  0.78017  1.0000
  H   H124      1.0  0.39823  0.64527  0.05317  1.0000
  H   H125      1.0  0.24703  0.60177  0.05317  1.0000
  H   H126      1.0  0.35473  0.75297  0.05317  1.0000
  H   H127      1.0  0.02140  0.93510  0.88650  1.0000
  H   H128      1.0  0.06490  0.08630  0.88650  1.0000
  H   H129      1.0  0.91370  0.97860  0.88650  1.0000
  H   H130      1.0  0.93510  0.02140  0.61350  1.0000
  H   H131      1.0  0.08630  0.06490  0.61350  1.0000
  H   H132      1.0  0.97860  0.91370  0.61350  1.0000
  H   H133      1.0  0.35473  0.60177  0.55317  1.0000
  H   H134      1.0  0.39823  0.75297  0.55317  1.0000
  H   H135      1.0  0.24703  0.64527  0.55317  1.0000
  H   H136      1.0  0.26843  0.68807  0.28017  1.0000
  H   H137      1.0  0.41963  0.73157  0.28017  1.0000
  H   H138      1.0  0.31193  0.58037  0.28017  1.0000
  H   H139      1.0  0.68807  0.26843  0.21983  1.0000
  H   H140      1.0  0.73157  0.41963  0.21983  1.0000
  H   H141      1.0  0.58037  0.31193  0.21983  1.0000
  H   H142      1.0  0.60177  0.35473  0.94683  1.0000
  H   H143      1.0  0.75297  0.39823  0.94683  1.0000
  H   H144      1.0  0.64527  0.24703  0.94683  1.0000
  C   C145      1.0  0.07677  0.25712  0.12624  1.0000
  C   C146      1.0  0.74288  0.81965  0.12624  1.0000
  C   C147      1.0  0.18035  0.92323  0.12624  1.0000
  C   C148      1.0  0.25712  0.07677  0.37376  1.0000
  C   C149      1.0  0.81965  0.74288  0.37376  1.0000
  C   C150      1.0  0.92323  0.18035  0.37376  1.0000
  C   C151      1.0  0.74344  0.59045  0.45957  1.0000
  C   C152      1.0  0.40955  0.15298  0.45957  1.0000
  C   C153      1.0  0.84702  0.25656  0.45957  1.0000
  C   C154      1.0  0.92379  0.41010  0.70709  1.0000
  C   C155      1.0  0.48632  0.07621  0.70709  1.0000
  C   C156      1.0  0.58990  0.51368  0.70709  1.0000
  C   C157      1.0  0.41010  0.92379  0.79291  1.0000
  C   C158      1.0  0.07621  0.48632  0.79291  1.0000
  C   C159      1.0  0.51368  0.58990  0.79291  1.0000
  C   C160      1.0  0.59045  0.74344  0.04043  1.0000
  C   C161      1.0  0.15298  0.40955  0.04043  1.0000
  C   C162      1.0  0.25656  0.84702  0.04043  1.0000
  C   C163      1.0  0.92323  0.74288  0.87376  1.0000
  C   C164      1.0  0.25712  0.18035  0.87376  1.0000
  C   C165      1.0  0.81965  0.07677  0.87376  1.0000
  C   C166      1.0  0.74288  0.92323  0.62624  1.0000
  C   C167      1.0  0.18035  0.25712  0.62624  1.0000
  C   C168      1.0  0.07677  0.81965  0.62624  1.0000
  C   C169      1.0  0.25656  0.40955  0.54043  1.0000
  C   C170      1.0  0.59045  0.84702  0.54043  1.0000
  C   C171      1.0  0.15298  0.74344  0.54043  1.0000
  C   C172      1.0  0.07621  0.58990  0.29291  1.0000
  C   C173      1.0  0.51368  0.92379  0.29291  1.0000
  C   C174      1.0  0.41010  0.48632  0.29291  1.0000
  C   C175      1.0  0.58990  0.07621  0.20709  1.0000
  C   C176      1.0  0.92379  0.51368  0.20709  1.0000
  C   C177      1.0  0.48632  0.41010  0.20709  1.0000
  C   C178      1.0  0.40955  0.25656  0.95957  1.0000
  C   C179      1.0  0.84702  0.59045  0.95957  1.0000
  C   C180      1.0  0.74344  0.15298  0.95957  1.0000
  H   H145      1.0  0.09490  0.23820  0.12690  1.0000
  H   H146      1.0  0.76180  0.85670  0.12690  1.0000
  H   H147      1.0  0.14330  0.90510  0.12690  1.0000
  H   H148      1.0  0.23820  0.09490  0.37310  1.0000
  H   H149      1.0  0.85670  0.76180  0.37310  1.0000
  H   H150      1.0  0.90510  0.14330  0.37310  1.0000
  H   H151      1.0  0.76157  0.57153  0.46023  1.0000
  H   H152      1.0  0.42847  0.19003  0.46023  1.0000
  H   H153      1.0  0.80997  0.23843  0.46023  1.0000
  H   H154      1.0  0.90487  0.42823  0.70643  1.0000
  H   H155      1.0  0.52337  0.09513  0.70643  1.0000
  H   H156      1.0  0.57177  0.47663  0.70643  1.0000
  H   H157      1.0  0.42823  0.90487  0.79357  1.0000
  H   H158      1.0  0.09513  0.52337  0.79357  1.0000
  H   H159      1.0  0.47663  0.57177  0.79357  1.0000
  H   H160      1.0  0.57153  0.76157  0.03977  1.0000
  H   H161      1.0  0.19003  0.42847  0.03977  1.0000
  H   H162      1.0  0.23843  0.80997  0.03977  1.0000
  H   H163      1.0  0.90510  0.76180  0.87310  1.0000
  H   H164      1.0  0.23820  0.14330  0.87310  1.0000
  H   H165      1.0  0.85670  0.09490  0.87310  1.0000
  H   H166      1.0  0.76180  0.90510  0.62690  1.0000
  H   H167      1.0  0.14330  0.23820  0.62690  1.0000
  H   H168      1.0  0.09490  0.85670  0.62690  1.0000
  H   H169      1.0  0.23843  0.42847  0.53977  1.0000
  H   H170      1.0  0.57153  0.80997  0.53977  1.0000
  H   H171      1.0  0.19003  0.76157  0.53977  1.0000
  H   H172      1.0  0.09513  0.57177  0.29357  1.0000
  H   H173      1.0  0.47663  0.90487  0.29357  1.0000
  H   H174      1.0  0.42823  0.52337  0.29357  1.0000
  H   H175      1.0  0.57177  0.09513  0.20643  1.0000
  H   H176      1.0  0.90487  0.47663  0.20643  1.0000
  H   H177      1.0  0.52337  0.42823  0.20643  1.0000
  H   H178      1.0  0.42847  0.23843  0.96023  1.0000
  H   H179      1.0  0.80997  0.57153  0.96023  1.0000
  H   H180      1.0  0.76157  0.19003  0.96023  1.0000
  C   C181      1.0  0.24336  0.31813  0.12331  1.0000
  C   C182      1.0  0.68187  0.92523  0.12331  1.0000
  C   C183      1.0  0.07477  0.75664  0.12331  1.0000
  C   C184      1.0  0.31813  0.24336  0.37669  1.0000
  C   C185      1.0  0.92523  0.68187  0.37669  1.0000
  C   C186      1.0  0.75664  0.07477  0.37669  1.0000
  C   C187      1.0  0.91003  0.65146  0.45664  1.0000
  C   C188      1.0  0.34854  0.25856  0.45664  1.0000
  C   C189      1.0  0.74144  0.08997  0.45664  1.0000
  C   C190      1.0  0.98480  0.57669  0.71002  1.0000
  C   C191      1.0  0.59190  0.01520  0.71002  1.0000
  C   C192      1.0  0.42331  0.40810  0.71002  1.0000
  C   C193      1.0  0.57669  0.98480  0.78998  1.0000
  C   C194      1.0  0.01520  0.59190  0.78998  1.0000
  C   C195      1.0  0.40810  0.42331  0.78998  1.0000
  C   C196      1.0  0.65146  0.91003  0.04336  1.0000
  C   C197      1.0  0.25856  0.34854  0.04336  1.0000
  C   C198      1.0  0.08997  0.74144  0.04336  1.0000
  C   C199      1.0  0.75664  0.68187  0.87669  1.0000
  C   C200      1.0  0.31813  0.07477  0.87669  1.0000
  C   C201      1.0  0.92523  0.24336  0.87669  1.0000
  C   C202      1.0  0.68187  0.75664  0.62331  1.0000
  C   C203      1.0  0.07477  0.31813  0.62331  1.0000
  C   C204      1.0  0.24336  0.92523  0.62331  1.0000
  C   C205      1.0  0.08997  0.34854  0.54336  1.0000
  C   C206      1.0  0.65146  0.74144  0.54336  1.0000
  C   C207      1.0  0.25856  0.91003  0.54336  1.0000
  C   C208      1.0  0.01520  0.42331  0.28998  1.0000
  C   C209      1.0  0.40810  0.98480  0.28998  1.0000
  C   C210      1.0  0.57669  0.59190  0.28998  1.0000
  C   C211      1.0  0.42331  0.01520  0.21002  1.0000
  C   C212      1.0  0.98480  0.40810  0.21002  1.0000
  C   C213      1.0  0.59190  0.57669  0.21002  1.0000
  C   C214      1.0  0.34854  0.08997  0.95664  1.0000
  C   C215      1.0  0.74144  0.65146  0.95664  1.0000
  C   C216      1.0  0.91003  0.25856  0.95664  1.0000
  H   H181      1.0  0.25890  0.35480  0.12070  1.0000
  H   H182      1.0  0.64520  0.90410  0.12070  1.0000
  H   H183      1.0  0.09590  0.74110  0.12070  1.0000
  H   H184      1.0  0.35480  0.25890  0.37930  1.0000
  H   H185      1.0  0.90410  0.64520  0.37930  1.0000
  H   H186      1.0  0.74110  0.09590  0.37930  1.0000
  H   H187      1.0  0.92557  0.68813  0.45403  1.0000
  H   H188      1.0  0.31187  0.23743  0.45403  1.0000
  H   H189      1.0  0.76257  0.07443  0.45403  1.0000
  H   H190      1.0  0.02147  0.59223  0.71263  1.0000
  H   H191      1.0  0.57077  0.97853  0.71263  1.0000
  H   H192      1.0  0.40777  0.42923  0.71263  1.0000
  H   H193      1.0  0.59223  0.02147  0.78737  1.0000
  H   H194      1.0  0.97853  0.57077  0.78737  1.0000
  H   H195      1.0  0.42923  0.40777  0.78737  1.0000
  H   H196      1.0  0.68813  0.92557  0.04597  1.0000
  H   H197      1.0  0.23743  0.31187  0.04597  1.0000
  H   H198      1.0  0.07443  0.76257  0.04597  1.0000
  H   H199      1.0  0.74110  0.64520  0.87930  1.0000
  H   H200      1.0  0.35480  0.09590  0.87930  1.0000
  H   H201      1.0  0.90410  0.25890  0.87930  1.0000
  H   H202      1.0  0.64520  0.74110  0.62070  1.0000
  H   H203      1.0  0.09590  0.35480  0.62070  1.0000
  H   H204      1.0  0.25890  0.90410  0.62070  1.0000
  H   H205      1.0  0.07443  0.31187  0.54597  1.0000
  H   H206      1.0  0.68813  0.76257  0.54597  1.0000
  H   H207      1.0  0.23743  0.92557  0.54597  1.0000
  H   H208      1.0  0.97853  0.40777  0.28737  1.0000
  H   H209      1.0  0.42923  0.02147  0.28737  1.0000
  H   H210      1.0  0.59223  0.57077  0.28737  1.0000
  H   H211      1.0  0.40777  0.97853  0.21263  1.0000
  H   H212      1.0  0.02147  0.42923  0.21263  1.0000
  H   H213      1.0  0.57077  0.59223  0.21263  1.0000
  H   H214      1.0  0.31187  0.07443  0.95403  1.0000
  H   H215      1.0  0.76257  0.68813  0.95403  1.0000
  H   H216      1.0  0.92557  0.23743  0.95403  1.0000
  C   C217      1.0  0.35103  0.25723  0.12475  1.0000
  C   C218      1.0  0.74277  0.09380  0.12475  1.0000
  C   C219      1.0  0.90620  0.64897  0.12475  1.0000
  C   C220      1.0  0.25723  0.35103  0.37525  1.0000
  C   C221      1.0  0.09380  0.74277  0.37525  1.0000
  C   C222      1.0  0.64897  0.90620  0.37525  1.0000
  C   C223      1.0  0.01770  0.59056  0.45808  1.0000
  C   C224      1.0  0.40944  0.42713  0.45808  1.0000
  C   C225      1.0  0.57287  0.98230  0.45808  1.0000
  C   C226      1.0  0.92390  0.68436  0.70858  1.0000
  C   C227      1.0  0.76047  0.07610  0.70858  1.0000
  C   C228      1.0  0.31564  0.23953  0.70858  1.0000
  C   C229      1.0  0.68436  0.92390  0.79142  1.0000
  C   C230      1.0  0.07610  0.76047  0.79142  1.0000
  C   C231      1.0  0.23953  0.31564  0.79142  1.0000
  C   C232      1.0  0.59056  0.01770  0.04192  1.0000
  C   C233      1.0  0.42713  0.40944  0.04192  1.0000
  C   C234      1.0  0.98230  0.57287  0.04192  1.0000
  C   C235      1.0  0.64897  0.74277  0.87525  1.0000
  C   C236      1.0  0.25723  0.90620  0.87525  1.0000
  C   C237      1.0  0.09380  0.35103  0.87525  1.0000
  C   C238      1.0  0.74277  0.64897  0.62475  1.0000
  C   C239      1.0  0.90620  0.25723  0.62475  1.0000
  C   C240      1.0  0.35103  0.09380  0.62475  1.0000
  C   C241      1.0  0.98230  0.40944  0.54192  1.0000
  C   C242      1.0  0.59056  0.57287  0.54192  1.0000
  C   C243      1.0  0.42713  0.01770  0.54192  1.0000
  C   C244      1.0  0.07610  0.31564  0.29142  1.0000
  C   C245      1.0  0.23953  0.92390  0.29142  1.0000
  C   C246      1.0  0.68436  0.76047  0.29142  1.0000
  C   C247      1.0  0.31564  0.07610  0.20858  1.0000
  C   C248      1.0  0.92390  0.23953  0.20858  1.0000
  C   C249      1.0  0.76047  0.68436  0.20858  1.0000
  C   C250      1.0  0.40944  0.98230  0.95808  1.0000
  C   C251      1.0  0.57287  0.59056  0.95808  1.0000
  C   C252      1.0  0.01770  0.42713  0.95808  1.0000
  H   H217      1.0  0.31490  0.23550  0.12010  1.0000
  H   H218      1.0  0.76450  0.07940  0.12010  1.0000
  H   H219      1.0  0.92060  0.68510  0.12010  1.0000
  H   H220      1.0  0.23550  0.31490  0.37990  1.0000
  H   H221      1.0  0.07940  0.76450  0.37990  1.0000
  H   H222      1.0  0.68510  0.92060  0.37990  1.0000
  H   H223      1.0  0.98157  0.56883  0.45343  1.0000
  H   H224      1.0  0.43117  0.41273  0.45343  1.0000
  H   H225      1.0  0.58727  0.01843  0.45343  1.0000
  H   H226      1.0  0.90217  0.64823  0.71323  1.0000
  H   H227      1.0  0.74607  0.09783  0.71323  1.0000
  H   H228      1.0  0.35177  0.25393  0.71323  1.0000
  H   H229      1.0  0.64823  0.90217  0.78677  1.0000
  H   H230      1.0  0.09783  0.74607  0.78677  1.0000
  H   H231      1.0  0.25393  0.35177  0.78677  1.0000
  H   H232      1.0  0.56883  0.98157  0.04657  1.0000
  H   H233      1.0  0.41273  0.43117  0.04657  1.0000
  H   H234      1.0  0.01843  0.58727  0.04657  1.0000
  H   H235      1.0  0.68510  0.76450  0.87990  1.0000
  H   H236      1.0  0.23550  0.92060  0.87990  1.0000
  H   H237      1.0  0.07940  0.31490  0.87990  1.0000
  H   H238      1.0  0.76450  0.68510  0.62010  1.0000
  H   H239      1.0  0.92060  0.23550  0.62010  1.0000
  H   H240      1.0  0.31490  0.07940  0.62010  1.0000
  H   H241      1.0  0.01843  0.43117  0.54657  1.0000
  H   H242      1.0  0.56883  0.58727  0.54657  1.0000
  H   H243      1.0  0.41273  0.98157  0.54657  1.0000
  H   H244      1.0  0.09783  0.35177  0.28677  1.0000
  H   H245      1.0  0.25393  0.90217  0.28677  1.0000
  H   H246      1.0  0.64823  0.74607  0.28677  1.0000
  H   H247      1.0  0.35177  0.09783  0.21323  1.0000
  H   H248      1.0  0.90217  0.25393  0.21323  1.0000
  H   H249      1.0  0.74607  0.64823  0.21323  1.0000
  H   H250      1.0  0.43117  0.01843  0.95343  1.0000
  H   H251      1.0  0.58727  0.56883  0.95343  1.0000
  H   H252      1.0  0.98157  0.41273  0.95343  1.0000
  C   C253      1.0  0.98566  0.07637  0.04090  1.0000
  C   C254      1.0  0.92363  0.90929  0.04090  1.0000
  C   C255      1.0  0.09071  0.01434  0.04090  1.0000
  C   C256      1.0  0.07637  0.98566  0.45910  1.0000
  C   C257      1.0  0.90929  0.92363  0.45910  1.0000
  C   C258      1.0  0.01434  0.09071  0.45910  1.0000
  C   C259      1.0  0.65233  0.40970  0.37423  1.0000
  C   C260      1.0  0.59030  0.24262  0.37423  1.0000
  C   C261      1.0  0.75738  0.34767  0.37423  1.0000
  C   C262      1.0  0.74304  0.31899  0.79243  1.0000
  C   C263      1.0  0.57596  0.25696  0.79243  1.0000
  C   C264      1.0  0.68101  0.42404  0.79243  1.0000
  C   C265      1.0  0.31899  0.74304  0.70757  1.0000
  C   C266      1.0  0.25696  0.57596  0.70757  1.0000
  C   C267      1.0  0.42404  0.68101  0.70757  1.0000
  C   C268      1.0  0.40970  0.65233  0.12577  1.0000
  C   C269      1.0  0.24262  0.59030  0.12577  1.0000
  C   C270      1.0  0.34767  0.75738  0.12577  1.0000
  C   C271      1.0  0.01434  0.92363  0.95910  1.0000
  C   C272      1.0  0.07637  0.09071  0.95910  1.0000
  C   C273      1.0  0.90929  0.98566  0.95910  1.0000
  C   C274      1.0  0.92363  0.01434  0.54090  1.0000
  C   C275      1.0  0.09071  0.07637  0.54090  1.0000
  C   C276      1.0  0.98566  0.90929  0.54090  1.0000
  C   C277      1.0  0.34767  0.59030  0.62577  1.0000
  C   C278      1.0  0.40970  0.75738  0.62577  1.0000
  C   C279      1.0  0.24262  0.65233  0.62577  1.0000
  C   C280      1.0  0.25696  0.68101  0.20757  1.0000
  C   C281      1.0  0.42404  0.74304  0.20757  1.0000
  C   C282      1.0  0.31899  0.57596  0.20757  1.0000
  C   C283      1.0  0.68101  0.25696  0.29243  1.0000
  C   C284      1.0  0.74304  0.42404  0.29243  1.0000
  C   C285      1.0  0.57596  0.31899  0.29243  1.0000
  C   C286      1.0  0.59030  0.34767  0.87423  1.0000
  C   C287      1.0  0.75738  0.40970  0.87423  1.0000
  C   C288      1.0  0.65233  0.24262  0.87423  1.0000
  H   H253      1.0  0.02220  0.09170  0.04420  1.0000
  H   H254      1.0  0.90830  0.93050  0.04420  1.0000
  H   H255      1.0  0.06950  0.97780  0.04420  1.0000
  H   H256      1.0  0.09170  0.02220  0.45580  1.0000
  H   H257      1.0  0.93050  0.90830  0.45580  1.0000
  H   H258      1.0  0.97780  0.06950  0.45580  1.0000
  H   H259      1.0  0.68887  0.42503  0.37753  1.0000
  H   H260      1.0  0.57497  0.26383  0.37753  1.0000
  H   H261      1.0  0.73617  0.31113  0.37753  1.0000
  H   H262      1.0  0.75837  0.35553  0.78913  1.0000
  H   H263      1.0  0.59717  0.24163  0.78913  1.0000
  H   H264      1.0  0.64447  0.40283  0.78913  1.0000
  H   H265      1.0  0.35553  0.75837  0.71087  1.0000
  H   H266      1.0  0.24163  0.59717  0.71087  1.0000
  H   H267      1.0  0.40283  0.64447  0.71087  1.0000
  H   H268      1.0  0.42503  0.68887  0.12247  1.0000
  H   H269      1.0  0.26383  0.57497  0.12247  1.0000
  H   H270      1.0  0.31113  0.73617  0.12247  1.0000
  H   H271      1.0  0.97780  0.90830  0.95580  1.0000
  H   H272      1.0  0.09170  0.06950  0.95580  1.0000
  H   H273      1.0  0.93050  0.02220  0.95580  1.0000
  H   H274      1.0  0.90830  0.97780  0.54420  1.0000
  H   H275      1.0  0.06950  0.09170  0.54420  1.0000
  H   H276      1.0  0.02220  0.93050  0.54420  1.0000
  H   H277      1.0  0.31113  0.57497  0.62247  1.0000
  H   H278      1.0  0.42503  0.73617  0.62247  1.0000
  H   H279      1.0  0.26383  0.68887  0.62247  1.0000
  H   H280      1.0  0.24163  0.64447  0.21087  1.0000
  H   H281      1.0  0.40283  0.75837  0.21087  1.0000
  H   H282      1.0  0.35553  0.59717  0.21087  1.0000
  H   H283      1.0  0.64447  0.24163  0.28913  1.0000
  H   H284      1.0  0.75837  0.40283  0.28913  1.0000
  H   H285      1.0  0.59717  0.35553  0.28913  1.0000
  H   H286      1.0  0.57497  0.31113  0.87753  1.0000
  H   H287      1.0  0.73617  0.42503  0.87753  1.0000
  H   H288      1.0  0.68887  0.26383  0.87753  1.0000
  C   C289      1.0  0.25809  0.40367  0.20916  1.0000
  C   C290      1.0  0.59633  0.85442  0.20916  1.0000
  C   C291      1.0  0.14558  0.74191  0.20916  1.0000
  C   C292      1.0  0.40367  0.25809  0.29084  1.0000
  C   C293      1.0  0.85442  0.59633  0.29084  1.0000
  C   C294      1.0  0.74191  0.14558  0.29084  1.0000
  C   C295      1.0  0.92476  0.73700  0.54249  1.0000
  C   C296      1.0  0.26300  0.18775  0.54249  1.0000
  C   C297      1.0  0.81225  0.07524  0.54249  1.0000
  C   C298      1.0  0.07034  0.59142  0.62417  1.0000
  C   C299      1.0  0.52109  0.92966  0.62417  1.0000
  C   C300      1.0  0.40858  0.47891  0.62417  1.0000
  C   C301      1.0  0.59142  0.07034  0.87583  1.0000
  C   C302      1.0  0.92966  0.52109  0.87583  1.0000
  C   C303      1.0  0.47891  0.40858  0.87583  1.0000
  C   C304      1.0  0.73700  0.92476  0.95751  1.0000
  C   C305      1.0  0.18775  0.26300  0.95751  1.0000
  C   C306      1.0  0.07524  0.81225  0.95751  1.0000
  C   C307      1.0  0.74191  0.59633  0.79084  1.0000
  C   C308      1.0  0.40367  0.14558  0.79084  1.0000
  C   C309      1.0  0.85442  0.25809  0.79084  1.0000
  C   C310      1.0  0.59633  0.74191  0.70916  1.0000
  C   C311      1.0  0.14558  0.40367  0.70916  1.0000
  C   C312      1.0  0.25809  0.85442  0.70916  1.0000
  C   C313      1.0  0.07524  0.26300  0.45751  1.0000
  C   C314      1.0  0.73700  0.81225  0.45751  1.0000
  C   C315      1.0  0.18775  0.92476  0.45751  1.0000
  C   C316      1.0  0.92966  0.40858  0.37583  1.0000
  C   C317      1.0  0.47891  0.07034  0.37583  1.0000
  C   C318      1.0  0.59142  0.52109  0.37583  1.0000
  C   C319      1.0  0.40858  0.92966  0.12417  1.0000
  C   C320      1.0  0.07034  0.47891  0.12417  1.0000
  C   C321      1.0  0.52109  0.59142  0.12417  1.0000
  C   C322      1.0  0.26300  0.07524  0.04249  1.0000
  C   C323      1.0  0.81225  0.73700  0.04249  1.0000
  C   C324      1.0  0.92476  0.18775  0.04249  1.0000
  H   H289      1.0  0.23530  0.41650  0.21470  1.0000
  H   H290      1.0  0.58350  0.81880  0.21470  1.0000
  H   H291      1.0  0.18120  0.76470  0.21470  1.0000
  H   H292      1.0  0.41650  0.23530  0.28530  1.0000
  H   H293      1.0  0.81880  0.58350  0.28530  1.0000
  H   H294      1.0  0.76470  0.18120  0.28530  1.0000
  H   H295      1.0  0.90197  0.74983  0.54803  1.0000
  H   H296      1.0  0.25017  0.15213  0.54803  1.0000
  H   H297      1.0  0.84787  0.09803  0.54803  1.0000
  H   H298      1.0  0.08317  0.56863  0.61863  1.0000
  H   H299      1.0  0.48547  0.91683  0.61863  1.0000
  H   H300      1.0  0.43137  0.51453  0.61863  1.0000
  H   H301      1.0  0.56863  0.08317  0.88137  1.0000
  H   H302      1.0  0.91683  0.48547  0.88137  1.0000
  H   H303      1.0  0.51453  0.43137  0.88137  1.0000
  H   H304      1.0  0.74983  0.90197  0.95197  1.0000
  H   H305      1.0  0.15213  0.25017  0.95197  1.0000
  H   H306      1.0  0.09803  0.84787  0.95197  1.0000
  H   H307      1.0  0.76470  0.58350  0.78530  1.0000
  H   H308      1.0  0.41650  0.18120  0.78530  1.0000
  H   H309      1.0  0.81880  0.23530  0.78530  1.0000
  H   H310      1.0  0.58350  0.76470  0.71470  1.0000
  H   H311      1.0  0.18120  0.41650  0.71470  1.0000
  H   H312      1.0  0.23530  0.81880  0.71470  1.0000
  H   H313      1.0  0.09803  0.25017  0.45197  1.0000
  H   H314      1.0  0.74983  0.84787  0.45197  1.0000
  H   H315      1.0  0.15213  0.90197  0.45197  1.0000
  H   H316      1.0  0.91683  0.43137  0.38137  1.0000
  H   H317      1.0  0.51453  0.08317  0.38137  1.0000
  H   H318      1.0  0.56863  0.48547  0.38137  1.0000
  H   H319      1.0  0.43137  0.91683  0.11863  1.0000
  H   H320      1.0  0.08317  0.51453  0.11863  1.0000
  H   H321      1.0  0.48547  0.56863  0.11863  1.0000
  H   H322      1.0  0.25017  0.09803  0.04803  1.0000
  H   H323      1.0  0.84787  0.74983  0.04803  1.0000
  H   H324      1.0  0.90197  0.15213  0.04803  1.0000
  C   C325      1.0  0.24706  0.09279  0.12170  1.0000
  C   C326      1.0  0.90721  0.15427  0.12170  1.0000
  C   C327      1.0  0.84573  0.75294  0.12170  1.0000
  C   C328      1.0  0.09279  0.24706  0.37830  1.0000
  C   C329      1.0  0.15427  0.90721  0.37830  1.0000
  C   C330      1.0  0.75294  0.84573  0.37830  1.0000
  C   C331      1.0  0.91373  0.42612  0.45503  1.0000
  C   C332      1.0  0.57388  0.48760  0.45503  1.0000
  C   C333      1.0  0.51240  0.08627  0.45503  1.0000
  C   C334      1.0  0.75946  0.58039  0.71163  1.0000
  C   C335      1.0  0.82094  0.24054  0.71163  1.0000
  C   C336      1.0  0.41961  0.17906  0.71163  1.0000
  C   C337      1.0  0.58039  0.75946  0.78837  1.0000
  C   C338      1.0  0.24054  0.82094  0.78837  1.0000
  C   C339      1.0  0.17906  0.41961  0.78837  1.0000
  C   C340      1.0  0.42612  0.91373  0.04497  1.0000
  C   C341      1.0  0.48760  0.57388  0.04497  1.0000
  C   C342      1.0  0.08627  0.51240  0.04497  1.0000
  C   C343      1.0  0.75294  0.90721  0.87830  1.0000
  C   C344      1.0  0.09279  0.84573  0.87830  1.0000
  C   C345      1.0  0.15427  0.24706  0.87830  1.0000
  C   C346      1.0  0.90721  0.75294  0.62170  1.0000
  C   C347      1.0  0.84573  0.09279  0.62170  1.0000
  C   C348      1.0  0.24706  0.15427  0.62170  1.0000
  C   C349      1.0  0.08627  0.57388  0.54497  1.0000
  C   C350      1.0  0.42612  0.51240  0.54497  1.0000
  C   C351      1.0  0.48760  0.91373  0.54497  1.0000
  C   C352      1.0  0.24054  0.41961  0.28837  1.0000
  C   C353      1.0  0.17906  0.75946  0.28837  1.0000
  C   C354      1.0  0.58039  0.82094  0.28837  1.0000
  C   C355      1.0  0.41961  0.24054  0.21163  1.0000
  C   C356      1.0  0.75946  0.17906  0.21163  1.0000
  C   C357      1.0  0.82094  0.58039  0.21163  1.0000
  C   C358      1.0  0.57388  0.08627  0.95503  1.0000
  C   C359      1.0  0.51240  0.42612  0.95503  1.0000
  C   C360      1.0  0.91373  0.48760  0.95503  1.0000
  H   H325      1.0  0.26790  0.07670  0.12040  1.0000
  H   H326      1.0  0.92330  0.19120  0.12040  1.0000
  H   H327      1.0  0.80880  0.73210  0.12040  1.0000
  H   H328      1.0  0.07670  0.26790  0.37960  1.0000
  H   H329      1.0  0.19120  0.92330  0.37960  1.0000
  H   H330      1.0  0.73210  0.80880  0.37960  1.0000
  H   H331      1.0  0.93457  0.41003  0.45373  1.0000
  H   H332      1.0  0.58997  0.52453  0.45373  1.0000
  H   H333      1.0  0.47547  0.06543  0.45373  1.0000
  H   H334      1.0  0.74337  0.60123  0.71293  1.0000
  H   H335      1.0  0.85787  0.25663  0.71293  1.0000
  H   H336      1.0  0.39877  0.14213  0.71293  1.0000
  H   H337      1.0  0.60123  0.74337  0.78707  1.0000
  H   H338      1.0  0.25663  0.85787  0.78707  1.0000
  H   H339      1.0  0.14213  0.39877  0.78707  1.0000
  H   H340      1.0  0.41003  0.93457  0.04627  1.0000
  H   H341      1.0  0.52453  0.58997  0.04627  1.0000
  H   H342      1.0  0.06543  0.47547  0.04627  1.0000
  H   H343      1.0  0.73210  0.92330  0.87960  1.0000
  H   H344      1.0  0.07670  0.80880  0.87960  1.0000
  H   H345      1.0  0.19120  0.26790  0.87960  1.0000
  H   H346      1.0  0.92330  0.73210  0.62040  1.0000
  H   H347      1.0  0.80880  0.07670  0.62040  1.0000
  H   H348      1.0  0.26790  0.19120  0.62040  1.0000
  H   H349      1.0  0.06543  0.58997  0.54627  1.0000
  H   H350      1.0  0.41003  0.47547  0.54627  1.0000
  H   H351      1.0  0.52453  0.93457  0.54627  1.0000
  H   H352      1.0  0.25663  0.39877  0.28707  1.0000
  H   H353      1.0  0.14213  0.74337  0.28707  1.0000
  H   H354      1.0  0.60123  0.85787  0.28707  1.0000
  H   H355      1.0  0.39877  0.25663  0.21293  1.0000
  H   H356      1.0  0.74337  0.14213  0.21293  1.0000
  H   H357      1.0  0.85787  0.60123  0.21293  1.0000
  H   H358      1.0  0.58997  0.06543  0.95373  1.0000
  H   H359      1.0  0.47547  0.41003  0.95373  1.0000
  H   H360      1.0  0.93457  0.52453  0.95373  1.0000
  C   C361      1.0  0.09863  0.24767  0.04609  1.0000
  C   C362      1.0  0.75233  0.85096  0.04609  1.0000
  C   C363      1.0  0.14904  0.90137  0.04609  1.0000
  C   C364      1.0  0.24767  0.09863  0.45391  1.0000
  C   C365      1.0  0.85096  0.75233  0.45391  1.0000
  C   C366      1.0  0.90137  0.14904  0.45391  1.0000
  C   C367      1.0  0.76530  0.58100  0.37942  1.0000
  C   C368      1.0  0.41900  0.18429  0.37942  1.0000
  C   C369      1.0  0.81571  0.23470  0.37942  1.0000
  C   C370      1.0  0.91434  0.43196  0.78724  1.0000
  C   C371      1.0  0.51763  0.08566  0.78724  1.0000
  C   C372      1.0  0.56804  0.48237  0.78724  1.0000
  C   C373      1.0  0.43196  0.91434  0.71276  1.0000
  C   C374      1.0  0.08566  0.51763  0.71276  1.0000
  C   C375      1.0  0.48237  0.56804  0.71276  1.0000
  C   C376      1.0  0.58100  0.76530  0.12058  1.0000
  C   C377      1.0  0.18429  0.41900  0.12058  1.0000
  C   C378      1.0  0.23470  0.81571  0.12058  1.0000
  C   C379      1.0  0.90137  0.75233  0.95391  1.0000
  C   C380      1.0  0.24767  0.14904  0.95391  1.0000
  C   C381      1.0  0.85096  0.09863  0.95391  1.0000
  C   C382      1.0  0.75233  0.90137  0.54609  1.0000
  C   C383      1.0  0.14904  0.24767  0.54609  1.0000
  C   C384      1.0  0.09863  0.85096  0.54609  1.0000
  C   C385      1.0  0.23470  0.41900  0.62058  1.0000
  C   C386      1.0  0.58100  0.81571  0.62058  1.0000
  C   C387      1.0  0.18429  0.76530  0.62058  1.0000
  C   C388      1.0  0.08566  0.56804  0.21276  1.0000
  C   C389      1.0  0.48237  0.91434  0.21276  1.0000
  C   C390      1.0  0.43196  0.51763  0.21276  1.0000
  C   C391      1.0  0.56804  0.08566  0.28724  1.0000
  C   C392      1.0  0.91434  0.48237  0.28724  1.0000
  C   C393      1.0  0.51763  0.43196  0.28724  1.0000
  C   C394      1.0  0.41900  0.23470  0.87942  1.0000
  C   C395      1.0  0.81571  0.58100  0.87942  1.0000
  C   C396      1.0  0.76530  0.18429  0.87942  1.0000
  H   H361      1.0  0.09620  0.27260  0.05990  1.0000
  H   H362      1.0  0.72740  0.82360  0.05990  1.0000
  H   H363      1.0  0.17640  0.90380  0.05990  1.0000
  H   H364      1.0  0.27260  0.09620  0.44010  1.0000
  H   H365      1.0  0.82360  0.72740  0.44010  1.0000
  H   H366      1.0  0.90380  0.17640  0.44010  1.0000
  H   H367      1.0  0.76287  0.60593  0.39323  1.0000
  H   H368      1.0  0.39407  0.15693  0.39323  1.0000
  H   H369      1.0  0.84307  0.23713  0.39323  1.0000
  H   H370      1.0  0.93927  0.42953  0.77343  1.0000
  H   H371      1.0  0.49027  0.06073  0.77343  1.0000
  H   H372      1.0  0.57047  0.50973  0.77343  1.0000
  H   H373      1.0  0.42953  0.93927  0.72657  1.0000
  H   H374      1.0  0.06073  0.49027  0.72657  1.0000
  H   H375      1.0  0.50973  0.57047  0.72657  1.0000
  H   H376      1.0  0.60593  0.76287  0.10677  1.0000
  H   H377      1.0  0.15693  0.39407  0.10677  1.0000
  H   H378      1.0  0.23713  0.84307  0.10677  1.0000
  H   H379      1.0  0.90380  0.72740  0.94010  1.0000
  H   H380      1.0  0.27260  0.17640  0.94010  1.0000
  H   H381      1.0  0.82360  0.09620  0.94010  1.0000
  H   H382      1.0  0.72740  0.90380  0.55990  1.0000
  H   H383      1.0  0.17640  0.27260  0.55990  1.0000
  H   H384      1.0  0.09620  0.82360  0.55990  1.0000
  H   H385      1.0  0.23713  0.39407  0.60677  1.0000
  H   H386      1.0  0.60593  0.84307  0.60677  1.0000
  H   H387      1.0  0.15693  0.76287  0.60677  1.0000
  H   H388      1.0  0.06073  0.57047  0.22657  1.0000
  H   H389      1.0  0.50973  0.93927  0.22657  1.0000
  H   H390      1.0  0.42953  0.49027  0.22657  1.0000
  H   H391      1.0  0.57047  0.06073  0.27343  1.0000
  H   H392      1.0  0.93927  0.50973  0.27343  1.0000
  H   H393      1.0  0.49027  0.42953  0.27343  1.0000
  H   H394      1.0  0.39407  0.23713  0.89323  1.0000
  H   H395      1.0  0.84307  0.60593  0.89323  1.0000
  H   H396      1.0  0.76287  0.15693  0.89323  1.0000
  C   C397      1.0  0.32089  0.23793  0.04561  1.0000
  C   C398      1.0  0.76207  0.08296  0.04561  1.0000
  C   C399      1.0  0.91704  0.67911  0.04561  1.0000
  C   C400      1.0  0.23793  0.32089  0.45439  1.0000
  C   C401      1.0  0.08296  0.76207  0.45439  1.0000
  C   C402      1.0  0.67911  0.91704  0.45439  1.0000
  C   C403      1.0  0.98756  0.57126  0.37894  1.0000
  C   C404      1.0  0.42874  0.41629  0.37894  1.0000
  C   C405      1.0  0.58371  0.01244  0.37894  1.0000
  C   C406      1.0  0.90460  0.65422  0.78772  1.0000
  C   C407      1.0  0.74963  0.09540  0.78772  1.0000
  C   C408      1.0  0.34578  0.25037  0.78772  1.0000
  C   C409      1.0  0.65422  0.90460  0.71228  1.0000
  C   C410      1.0  0.09540  0.74963  0.71228  1.0000
  C   C411      1.0  0.25037  0.34578  0.71228  1.0000
  C   C412      1.0  0.57126  0.98756  0.12106  1.0000
  C   C413      1.0  0.41629  0.42874  0.12106  1.0000
  C   C414      1.0  0.01244  0.58371  0.12106  1.0000
  C   C415      1.0  0.67911  0.76207  0.95439  1.0000
  C   C416      1.0  0.23793  0.91704  0.95439  1.0000
  C   C417      1.0  0.08296  0.32089  0.95439  1.0000
  C   C418      1.0  0.76207  0.67911  0.54561  1.0000
  C   C419      1.0  0.91704  0.23793  0.54561  1.0000
  C   C420      1.0  0.32089  0.08296  0.54561  1.0000
  C   C421      1.0  0.01244  0.42874  0.62106  1.0000
  C   C422      1.0  0.57126  0.58371  0.62106  1.0000
  C   C423      1.0  0.41629  0.98756  0.62106  1.0000
  C   C424      1.0  0.09540  0.34578  0.21228  1.0000
  C   C425      1.0  0.25037  0.90460  0.21228  1.0000
  C   C426      1.0  0.65422  0.74963  0.21228  1.0000
  C   C427      1.0  0.34578  0.09540  0.28772  1.0000
  C   C428      1.0  0.90460  0.25037  0.28772  1.0000
  C   C429      1.0  0.74963  0.65422  0.28772  1.0000
  C   C430      1.0  0.42874  0.01244  0.87894  1.0000
  C   C431      1.0  0.58371  0.57126  0.87894  1.0000
  C   C432      1.0  0.98756  0.41629  0.87894  1.0000
  H   H397      1.0  0.35540  0.24910  0.05300  1.0000
  H   H398      1.0  0.75090  0.10630  0.05300  1.0000
  H   H399      1.0  0.89370  0.64460  0.05300  1.0000
  H   H400      1.0  0.24910  0.35540  0.44700  1.0000
  H   H401      1.0  0.10630  0.75090  0.44700  1.0000
  H   H402      1.0  0.64460  0.89370  0.44700  1.0000
  H   H403      1.0  0.02207  0.58243  0.38633  1.0000
  H   H404      1.0  0.41757  0.43963  0.38633  1.0000
  H   H405      1.0  0.56037  0.97793  0.38633  1.0000
  H   H406      1.0  0.91577  0.68873  0.78033  1.0000
  H   H407      1.0  0.77297  0.08423  0.78033  1.0000
  H   H408      1.0  0.31127  0.22703  0.78033  1.0000
  H   H409      1.0  0.68873  0.91577  0.71967  1.0000
  H   H410      1.0  0.08423  0.77297  0.71967  1.0000
  H   H411      1.0  0.22703  0.31127  0.71967  1.0000
  H   H412      1.0  0.58243  0.02207  0.11367  1.0000
  H   H413      1.0  0.43963  0.41757  0.11367  1.0000
  H   H414      1.0  0.97793  0.56037  0.11367  1.0000
  H   H415      1.0  0.64460  0.75090  0.94700  1.0000
  H   H416      1.0  0.24910  0.89370  0.94700  1.0000
  H   H417      1.0  0.10630  0.35540  0.94700  1.0000
  H   H418      1.0  0.75090  0.64460  0.55300  1.0000
  H   H419      1.0  0.89370  0.24910  0.55300  1.0000
  H   H420      1.0  0.35540  0.10630  0.55300  1.0000
  H   H421      1.0  0.97793  0.41757  0.61367  1.0000
  H   H422      1.0  0.58243  0.56037  0.61367  1.0000
  H   H423      1.0  0.43963  0.02207  0.61367  1.0000
  H   H424      1.0  0.08423  0.31127  0.21967  1.0000
  H   H425      1.0  0.22703  0.91577  0.21967  1.0000
  H   H426      1.0  0.68873  0.77297  0.21967  1.0000
  H   H427      1.0  0.31127  0.08423  0.28033  1.0000
  H   H428      1.0  0.91577  0.22703  0.28033  1.0000
  H   H429      1.0  0.77297  0.68873  0.28033  1.0000
  H   H430      1.0  0.41757  0.97793  0.88633  1.0000
  H   H431      1.0  0.56037  0.58243  0.88633  1.0000
  H   H432      1.0  0.02207  0.43963  0.88633  1.0000
