data_image0
_chemical_formula_structural       Zn18O108C108O36H36O36H36O36H36Zn66O288C252O36H36O36H36O36H36O36H36O36H36O36H36O36H36Zn54O72C72O36H72Zn6
_chemical_formula_sum              "Zn144 O864 C432 H432"
_cell_length_a       29.5811
_cell_length_b       29.5811
_cell_length_c       39.5115
_cell_angle_alpha    90
_cell_angle_beta     90
_cell_angle_gamma    120

_space_group_name_H-M_alt    "P 1"
_space_group_IT_number       1

loop_
  _space_group_symop_operation_xyz
  'x, y, z'

loop_
  _atom_site_type_symbol
  _atom_site_label
  _atom_site_symmetry_multiplicity
  _atom_site_fract_x
  _atom_site_fract_y
  _atom_site_fract_z
  _atom_site_occupancy
  Zn  Zn1       1.0  0.16366  0.16366  0.25000  1.0000
  Zn  Zn2       1.0  0.83634  0.00000  0.25000  1.0000
  Zn  Zn3       1.0  0.00000  0.83634  0.25000  1.0000
  Zn  Zn4       1.0  0.83033  0.49699  0.58333  1.0000
  Zn  Zn5       1.0  0.50301  0.33333  0.58333  1.0000
  Zn  Zn6       1.0  0.66667  0.16967  0.58333  1.0000
  Zn  Zn7       1.0  0.49699  0.83033  0.91667  1.0000
  Zn  Zn8       1.0  0.16967  0.66667  0.91667  1.0000
  Zn  Zn9       1.0  0.33333  0.50301  0.91667  1.0000
  Zn  Zn10      1.0  0.83634  0.83634  0.75000  1.0000
  Zn  Zn11      1.0  0.16366  0.00000  0.75000  1.0000
  Zn  Zn12      1.0  0.00000  0.16366  0.75000  1.0000
  Zn  Zn13      1.0  0.16967  0.50301  0.41667  1.0000
  Zn  Zn14      1.0  0.49699  0.66667  0.41667  1.0000
  Zn  Zn15      1.0  0.33333  0.83033  0.41667  1.0000
  Zn  Zn16      1.0  0.50301  0.16967  0.08333  1.0000
  Zn  Zn17      1.0  0.83033  0.33333  0.08333  1.0000
  Zn  Zn18      1.0  0.66667  0.49699  0.08333  1.0000
  O   O1        1.0  0.13334  0.09633  0.22030  1.0000
  O   O2        1.0  0.90367  0.03701  0.22030  1.0000
  O   O3        1.0  0.96299  0.86666  0.22030  1.0000
  O   O4        1.0  0.09633  0.13334  0.27970  1.0000
  O   O5        1.0  0.03701  0.90367  0.27970  1.0000
  O   O6        1.0  0.86666  0.96299  0.27970  1.0000
  O   O7        1.0  0.80001  0.42966  0.55363  1.0000
  O   O8        1.0  0.57034  0.37034  0.55363  1.0000
  O   O9        1.0  0.62966  0.19999  0.55363  1.0000
  O   O10       1.0  0.76300  0.46667  0.61303  1.0000
  O   O11       1.0  0.70368  0.23700  0.61303  1.0000
  O   O12       1.0  0.53333  0.29632  0.61303  1.0000
  O   O13       1.0  0.46667  0.76300  0.88697  1.0000
  O   O14       1.0  0.23700  0.70368  0.88697  1.0000
  O   O15       1.0  0.29632  0.53333  0.88697  1.0000
  O   O16       1.0  0.42966  0.80001  0.94637  1.0000
  O   O17       1.0  0.37034  0.57034  0.94637  1.0000
  O   O18       1.0  0.19999  0.62966  0.94637  1.0000
  O   O19       1.0  0.86666  0.90367  0.77970  1.0000
  O   O20       1.0  0.09633  0.96299  0.77970  1.0000
  O   O21       1.0  0.03701  0.13334  0.77970  1.0000
  O   O22       1.0  0.90367  0.86666  0.72030  1.0000
  O   O23       1.0  0.96299  0.09633  0.72030  1.0000
  O   O24       1.0  0.13334  0.03701  0.72030  1.0000
  O   O25       1.0  0.19999  0.57034  0.44637  1.0000
  O   O26       1.0  0.42966  0.62966  0.44637  1.0000
  O   O27       1.0  0.37034  0.80001  0.44637  1.0000
  O   O28       1.0  0.23700  0.53333  0.38697  1.0000
  O   O29       1.0  0.29632  0.76300  0.38697  1.0000
  O   O30       1.0  0.46667  0.70368  0.38697  1.0000
  O   O31       1.0  0.53333  0.23700  0.11303  1.0000
  O   O32       1.0  0.76300  0.29632  0.11303  1.0000
  O   O33       1.0  0.70368  0.46667  0.11303  1.0000
  O   O34       1.0  0.57034  0.19999  0.05363  1.0000
  O   O35       1.0  0.62966  0.42966  0.05363  1.0000
  O   O36       1.0  0.80001  0.37034  0.05363  1.0000
  O   O37       1.0  0.12911  0.19475  0.21815  1.0000
  O   O38       1.0  0.80525  0.93436  0.21815  1.0000
  O   O39       1.0  0.06564  0.87089  0.21815  1.0000
  O   O40       1.0  0.19475  0.12911  0.28185  1.0000
  O   O41       1.0  0.93436  0.80525  0.28185  1.0000
  O   O42       1.0  0.87089  0.06564  0.28185  1.0000
  O   O43       1.0  0.79578  0.52808  0.55148  1.0000
  O   O44       1.0  0.47192  0.26769  0.55148  1.0000
  O   O45       1.0  0.73231  0.20422  0.55148  1.0000
  O   O46       1.0  0.86142  0.46244  0.61518  1.0000
  O   O47       1.0  0.60103  0.13858  0.61518  1.0000
  O   O48       1.0  0.53756  0.39897  0.61518  1.0000
  O   O49       1.0  0.46244  0.86142  0.88482  1.0000
  O   O50       1.0  0.13858  0.60103  0.88482  1.0000
  O   O51       1.0  0.39897  0.53756  0.88482  1.0000
  O   O52       1.0  0.52808  0.79578  0.94852  1.0000
  O   O53       1.0  0.26769  0.47192  0.94852  1.0000
  O   O54       1.0  0.20422  0.73231  0.94852  1.0000
  O   O55       1.0  0.87089  0.80525  0.78185  1.0000
  O   O56       1.0  0.19475  0.06564  0.78185  1.0000
  O   O57       1.0  0.93436  0.12911  0.78185  1.0000
  O   O58       1.0  0.80525  0.87089  0.71815  1.0000
  O   O59       1.0  0.06564  0.19475  0.71815  1.0000
  O   O60       1.0  0.12911  0.93436  0.71815  1.0000
  O   O61       1.0  0.20422  0.47192  0.44852  1.0000
  O   O62       1.0  0.52808  0.73231  0.44852  1.0000
  O   O63       1.0  0.26769  0.79578  0.44852  1.0000
  O   O64       1.0  0.13858  0.53756  0.38482  1.0000
  O   O65       1.0  0.39897  0.86142  0.38482  1.0000
  O   O66       1.0  0.46244  0.60103  0.38482  1.0000
  O   O67       1.0  0.53756  0.13858  0.11518  1.0000
  O   O68       1.0  0.86142  0.39897  0.11518  1.0000
  O   O69       1.0  0.60103  0.46244  0.11518  1.0000
  O   O70       1.0  0.47192  0.20422  0.05148  1.0000
  O   O71       1.0  0.73231  0.52808  0.05148  1.0000
  O   O72       1.0  0.79578  0.26769  0.05148  1.0000
  O   O73       1.0  0.22839  0.19659  0.21788  1.0000
  O   O74       1.0  0.80341  0.03180  0.21788  1.0000
  O   O75       1.0  0.96820  0.77161  0.21788  1.0000
  O   O76       1.0  0.19659  0.22839  0.28212  1.0000
  O   O77       1.0  0.03180  0.80341  0.28212  1.0000
  O   O78       1.0  0.77161  0.96820  0.28212  1.0000
  O   O79       1.0  0.89506  0.52992  0.55121  1.0000
  O   O80       1.0  0.47008  0.36513  0.55121  1.0000
  O   O81       1.0  0.63487  0.10494  0.55121  1.0000
  O   O82       1.0  0.86326  0.56172  0.61545  1.0000
  O   O83       1.0  0.69847  0.13674  0.61545  1.0000
  O   O84       1.0  0.43828  0.30153  0.61545  1.0000
  O   O85       1.0  0.56172  0.86326  0.88455  1.0000
  O   O86       1.0  0.13674  0.69847  0.88455  1.0000
  O   O87       1.0  0.30153  0.43828  0.88455  1.0000
  O   O88       1.0  0.52992  0.89506  0.94879  1.0000
  O   O89       1.0  0.36513  0.47008  0.94879  1.0000
  O   O90       1.0  0.10494  0.63487  0.94879  1.0000
  O   O91       1.0  0.77161  0.80341  0.78212  1.0000
  O   O92       1.0  0.19659  0.96820  0.78212  1.0000
  O   O93       1.0  0.03180  0.22839  0.78212  1.0000
  O   O94       1.0  0.80341  0.77161  0.71788  1.0000
  O   O95       1.0  0.96820  0.19659  0.71788  1.0000
  O   O96       1.0  0.22839  0.03180  0.71788  1.0000
  O   O97       1.0  0.10494  0.47008  0.44879  1.0000
  O   O98       1.0  0.52992  0.63487  0.44879  1.0000
  O   O99       1.0  0.36513  0.89506  0.44879  1.0000
  O   O100      1.0  0.13674  0.43828  0.38455  1.0000
  O   O101      1.0  0.30153  0.86326  0.38455  1.0000
  O   O102      1.0  0.56172  0.69847  0.38455  1.0000
  O   O103      1.0  0.43828  0.13674  0.11545  1.0000
  O   O104      1.0  0.86326  0.30153  0.11545  1.0000
  O   O105      1.0  0.69847  0.56172  0.11545  1.0000
  O   O106      1.0  0.47008  0.10494  0.05121  1.0000
  O   O107      1.0  0.63487  0.52992  0.05121  1.0000
  O   O108      1.0  0.89506  0.36513  0.05121  1.0000
  C   C1        1.0  0.08788  0.07216  0.20925  1.0000
  C   C2        1.0  0.92784  0.01572  0.20925  1.0000
  C   C3        1.0  0.98428  0.91212  0.20925  1.0000
  C   C4        1.0  0.07216  0.08788  0.29075  1.0000
  C   C5        1.0  0.01572  0.92784  0.29075  1.0000
  C   C6        1.0  0.91212  0.98428  0.29075  1.0000
  C   C7        1.0  0.75455  0.40549  0.54258  1.0000
  C   C8        1.0  0.59451  0.34905  0.54258  1.0000
  C   C9        1.0  0.65095  0.24545  0.54258  1.0000
  C   C10       1.0  0.73883  0.42121  0.62408  1.0000
  C   C11       1.0  0.68239  0.26117  0.62408  1.0000
  C   C12       1.0  0.57879  0.31761  0.62408  1.0000
  C   C13       1.0  0.42121  0.73883  0.87592  1.0000
  C   C14       1.0  0.26117  0.68239  0.87592  1.0000
  C   C15       1.0  0.31761  0.57879  0.87592  1.0000
  C   C16       1.0  0.40549  0.75455  0.95742  1.0000
  C   C17       1.0  0.34905  0.59451  0.95742  1.0000
  C   C18       1.0  0.24545  0.65095  0.95742  1.0000
  C   C19       1.0  0.91212  0.92784  0.79075  1.0000
  C   C20       1.0  0.07216  0.98428  0.79075  1.0000
  C   C21       1.0  0.01572  0.08788  0.79075  1.0000
  C   C22       1.0  0.92784  0.91212  0.70925  1.0000
  C   C23       1.0  0.98428  0.07216  0.70925  1.0000
  C   C24       1.0  0.08788  0.01572  0.70925  1.0000
  C   C25       1.0  0.24545  0.59451  0.45742  1.0000
  C   C26       1.0  0.40549  0.65095  0.45742  1.0000
  C   C27       1.0  0.34905  0.75455  0.45742  1.0000
  C   C28       1.0  0.26117  0.57879  0.37592  1.0000
  C   C29       1.0  0.31761  0.73883  0.37592  1.0000
  C   C30       1.0  0.42121  0.68239  0.37592  1.0000
  C   C31       1.0  0.57879  0.26117  0.12408  1.0000
  C   C32       1.0  0.73883  0.31761  0.12408  1.0000
  C   C33       1.0  0.68239  0.42121  0.12408  1.0000
  C   C34       1.0  0.59451  0.24545  0.04258  1.0000
  C   C35       1.0  0.65095  0.40549  0.04258  1.0000
  C   C36       1.0  0.75455  0.34905  0.04258  1.0000
  C   C37       1.0  0.15227  0.24077  0.20698  1.0000
  C   C38       1.0  0.75923  0.91150  0.20698  1.0000
  C   C39       1.0  0.08850  0.84773  0.20698  1.0000
  C   C40       1.0  0.24077  0.15227  0.29302  1.0000
  C   C41       1.0  0.91150  0.75923  0.29302  1.0000
  C   C42       1.0  0.84773  0.08850  0.29302  1.0000
  C   C43       1.0  0.81894  0.57410  0.54031  1.0000
  C   C44       1.0  0.42590  0.24483  0.54031  1.0000
  C   C45       1.0  0.75517  0.18106  0.54031  1.0000
  C   C46       1.0  0.90744  0.48560  0.62635  1.0000
  C   C47       1.0  0.57817  0.09256  0.62635  1.0000
  C   C48       1.0  0.51440  0.42183  0.62635  1.0000
  C   C49       1.0  0.48560  0.90744  0.87365  1.0000
  C   C50       1.0  0.09256  0.57817  0.87365  1.0000
  C   C51       1.0  0.42183  0.51440  0.87365  1.0000
  C   C52       1.0  0.57410  0.81894  0.95969  1.0000
  C   C53       1.0  0.24483  0.42590  0.95969  1.0000
  C   C54       1.0  0.18106  0.75517  0.95969  1.0000
  C   C55       1.0  0.84773  0.75923  0.79302  1.0000
  C   C56       1.0  0.24077  0.08850  0.79302  1.0000
  C   C57       1.0  0.91150  0.15227  0.79302  1.0000
  C   C58       1.0  0.75923  0.84773  0.70698  1.0000
  C   C59       1.0  0.08850  0.24077  0.70698  1.0000
  C   C60       1.0  0.15227  0.91150  0.70698  1.0000
  C   C61       1.0  0.18106  0.42590  0.45969  1.0000
  C   C62       1.0  0.57410  0.75517  0.45969  1.0000
  C   C63       1.0  0.24483  0.81894  0.45969  1.0000
  C   C64       1.0  0.09256  0.51440  0.37365  1.0000
  C   C65       1.0  0.42183  0.90744  0.37365  1.0000
  C   C66       1.0  0.48560  0.57817  0.37365  1.0000
  C   C67       1.0  0.51440  0.09256  0.12635  1.0000
  C   C68       1.0  0.90744  0.42183  0.12635  1.0000
  C   C69       1.0  0.57817  0.48560  0.12635  1.0000
  C   C70       1.0  0.42590  0.18106  0.04031  1.0000
  C   C71       1.0  0.75517  0.57410  0.04031  1.0000
  C   C72       1.0  0.81894  0.24483  0.04031  1.0000
  C   C73       1.0  0.25954  0.17990  0.21248  1.0000
  C   C74       1.0  0.82010  0.07964  0.21248  1.0000
  C   C75       1.0  0.92036  0.74046  0.21248  1.0000
  C   C76       1.0  0.17990  0.25954  0.28752  1.0000
  C   C77       1.0  0.07964  0.82010  0.28752  1.0000
  C   C78       1.0  0.74046  0.92036  0.28752  1.0000
  C   C79       1.0  0.92621  0.51323  0.54581  1.0000
  C   C80       1.0  0.48677  0.41297  0.54581  1.0000
  C   C81       1.0  0.58703  0.07379  0.54581  1.0000
  C   C82       1.0  0.84657  0.59287  0.62085  1.0000
  C   C83       1.0  0.74631  0.15343  0.62085  1.0000
  C   C84       1.0  0.40713  0.25369  0.62085  1.0000
  C   C85       1.0  0.59287  0.84657  0.87915  1.0000
  C   C86       1.0  0.15343  0.74631  0.87915  1.0000
  C   C87       1.0  0.25369  0.40713  0.87915  1.0000
  C   C88       1.0  0.51323  0.92621  0.95419  1.0000
  C   C89       1.0  0.41297  0.48677  0.95419  1.0000
  C   C90       1.0  0.07379  0.58703  0.95419  1.0000
  C   C91       1.0  0.74046  0.82010  0.78752  1.0000
  C   C92       1.0  0.17990  0.92036  0.78752  1.0000
  C   C93       1.0  0.07964  0.25954  0.78752  1.0000
  C   C94       1.0  0.82010  0.74046  0.71248  1.0000
  C   C95       1.0  0.92036  0.17990  0.71248  1.0000
  C   C96       1.0  0.25954  0.07964  0.71248  1.0000
  C   C97       1.0  0.07379  0.48677  0.45419  1.0000
  C   C98       1.0  0.51323  0.58703  0.45419  1.0000
  C   C99       1.0  0.41297  0.92621  0.45419  1.0000
  C   C100      1.0  0.15343  0.40713  0.37915  1.0000
  C   C101      1.0  0.25369  0.84657  0.37915  1.0000
  C   C102      1.0  0.59287  0.74631  0.37915  1.0000
  C   C103      1.0  0.40713  0.15343  0.12085  1.0000
  C   C104      1.0  0.84657  0.25369  0.12085  1.0000
  C   C105      1.0  0.74631  0.59287  0.12085  1.0000
  C   C106      1.0  0.48677  0.07379  0.04581  1.0000
  C   C107      1.0  0.58703  0.51323  0.04581  1.0000
  C   C108      1.0  0.92621  0.41297  0.04581  1.0000
  O   O109      1.0  0.06836  0.02958  0.19351  1.0000
  O   O110      1.0  0.97042  0.03878  0.19351  1.0000
  O   O111      1.0  0.96122  0.93164  0.19351  1.0000
  O   O112      1.0  0.02958  0.06836  0.30649  1.0000
  O   O113      1.0  0.03878  0.97042  0.30649  1.0000
  O   O114      1.0  0.93164  0.96122  0.30649  1.0000
  O   O115      1.0  0.73503  0.36291  0.52684  1.0000
  O   O116      1.0  0.63709  0.37211  0.52684  1.0000
  O   O117      1.0  0.62789  0.26497  0.52684  1.0000
  O   O118      1.0  0.69625  0.40169  0.63982  1.0000
  O   O119      1.0  0.70545  0.30375  0.63982  1.0000
  O   O120      1.0  0.59831  0.29455  0.63982  1.0000
  O   O121      1.0  0.40169  0.69625  0.86018  1.0000
  O   O122      1.0  0.30375  0.70545  0.86018  1.0000
  O   O123      1.0  0.29455  0.59831  0.86018  1.0000
  O   O124      1.0  0.36291  0.73503  0.97316  1.0000
  O   O125      1.0  0.37211  0.63709  0.97316  1.0000
  O   O126      1.0  0.26497  0.62789  0.97316  1.0000
  O   O127      1.0  0.93164  0.97042  0.80649  1.0000
  O   O128      1.0  0.02958  0.96122  0.80649  1.0000
  O   O129      1.0  0.03878  0.06836  0.80649  1.0000
  O   O130      1.0  0.97042  0.93164  0.69351  1.0000
  O   O131      1.0  0.96122  0.02958  0.69351  1.0000
  O   O132      1.0  0.06836  0.03878  0.69351  1.0000
  O   O133      1.0  0.26497  0.63709  0.47316  1.0000
  O   O134      1.0  0.36291  0.62789  0.47316  1.0000
  O   O135      1.0  0.37211  0.73503  0.47316  1.0000
  O   O136      1.0  0.30375  0.59831  0.36018  1.0000
  O   O137      1.0  0.29455  0.69625  0.36018  1.0000
  O   O138      1.0  0.40169  0.70545  0.36018  1.0000
  O   O139      1.0  0.59831  0.30375  0.13982  1.0000
  O   O140      1.0  0.69625  0.29455  0.13982  1.0000
  O   O141      1.0  0.70545  0.40169  0.13982  1.0000
  O   O142      1.0  0.63709  0.26497  0.02684  1.0000
  O   O143      1.0  0.62789  0.36291  0.02684  1.0000
  O   O144      1.0  0.73503  0.37211  0.02684  1.0000
  H   H1        1.0  0.06630  0.08700  0.21300  1.0000
  H   H2        1.0  0.91300  0.97930  0.21300  1.0000
  H   H3        1.0  0.02070  0.93370  0.21300  1.0000
  H   H4        1.0  0.08700  0.06630  0.28700  1.0000
  H   H5        1.0  0.97930  0.91300  0.28700  1.0000
  H   H6        1.0  0.93370  0.02070  0.28700  1.0000
  H   H7        1.0  0.73297  0.42033  0.54633  1.0000
  H   H8        1.0  0.57967  0.31263  0.54633  1.0000
  H   H9        1.0  0.68737  0.26703  0.54633  1.0000
  H   H10       1.0  0.75367  0.39963  0.62033  1.0000
  H   H11       1.0  0.64597  0.24633  0.62033  1.0000
  H   H12       1.0  0.60037  0.35403  0.62033  1.0000
  H   H13       1.0  0.39963  0.75367  0.87967  1.0000
  H   H14       1.0  0.24633  0.64597  0.87967  1.0000
  H   H15       1.0  0.35403  0.60037  0.87967  1.0000
  H   H16       1.0  0.42033  0.73297  0.95367  1.0000
  H   H17       1.0  0.31263  0.57967  0.95367  1.0000
  H   H18       1.0  0.26703  0.68737  0.95367  1.0000
  H   H19       1.0  0.93370  0.91300  0.78700  1.0000
  H   H20       1.0  0.08700  0.02070  0.78700  1.0000
  H   H21       1.0  0.97930  0.06630  0.78700  1.0000
  H   H22       1.0  0.91300  0.93370  0.71300  1.0000
  H   H23       1.0  0.02070  0.08700  0.71300  1.0000
  H   H24       1.0  0.06630  0.97930  0.71300  1.0000
  H   H25       1.0  0.26703  0.57967  0.45367  1.0000
  H   H26       1.0  0.42033  0.68737  0.45367  1.0000
  H   H27       1.0  0.31263  0.73297  0.45367  1.0000
  H   H28       1.0  0.24633  0.60037  0.37967  1.0000
  H   H29       1.0  0.35403  0.75367  0.37967  1.0000
  H   H30       1.0  0.39963  0.64597  0.37967  1.0000
  H   H31       1.0  0.60037  0.24633  0.12033  1.0000
  H   H32       1.0  0.75367  0.35403  0.12033  1.0000
  H   H33       1.0  0.64597  0.39963  0.12033  1.0000
  H   H34       1.0  0.57967  0.26703  0.04633  1.0000
  H   H35       1.0  0.68737  0.42033  0.04633  1.0000
  H   H36       1.0  0.73297  0.31263  0.04633  1.0000
  O   O145      1.0  0.12984  0.26287  0.19402  1.0000
  O   O146      1.0  0.73713  0.86697  0.19402  1.0000
  O   O147      1.0  0.13303  0.87016  0.19402  1.0000
  O   O148      1.0  0.26287  0.12984  0.30598  1.0000
  O   O149      1.0  0.86697  0.73713  0.30598  1.0000
  O   O150      1.0  0.87016  0.13303  0.30598  1.0000
  O   O151      1.0  0.79651  0.59620  0.52735  1.0000
  O   O152      1.0  0.40380  0.20030  0.52735  1.0000
  O   O153      1.0  0.79970  0.20349  0.52735  1.0000
  O   O154      1.0  0.92954  0.46317  0.63931  1.0000
  O   O155      1.0  0.53364  0.07046  0.63931  1.0000
  O   O156      1.0  0.53683  0.46636  0.63931  1.0000
  O   O157      1.0  0.46317  0.92954  0.86069  1.0000
  O   O158      1.0  0.07046  0.53364  0.86069  1.0000
  O   O159      1.0  0.46636  0.53683  0.86069  1.0000
  O   O160      1.0  0.59620  0.79651  0.97265  1.0000
  O   O161      1.0  0.20030  0.40380  0.97265  1.0000
  O   O162      1.0  0.20349  0.79970  0.97265  1.0000
  O   O163      1.0  0.87016  0.73713  0.80598  1.0000
  O   O164      1.0  0.26287  0.13303  0.80598  1.0000
  O   O165      1.0  0.86697  0.12984  0.80598  1.0000
  O   O166      1.0  0.73713  0.87016  0.69402  1.0000
  O   O167      1.0  0.13303  0.26287  0.69402  1.0000
  O   O168      1.0  0.12984  0.86697  0.69402  1.0000
  O   O169      1.0  0.20349  0.40380  0.47265  1.0000
  O   O170      1.0  0.59620  0.79970  0.47265  1.0000
  O   O171      1.0  0.20030  0.79651  0.47265  1.0000
  O   O172      1.0  0.07046  0.53683  0.36069  1.0000
  O   O173      1.0  0.46636  0.92954  0.36069  1.0000
  O   O174      1.0  0.46317  0.53364  0.36069  1.0000
  O   O175      1.0  0.53683  0.07046  0.13931  1.0000
  O   O176      1.0  0.92954  0.46636  0.13931  1.0000
  O   O177      1.0  0.53364  0.46317  0.13931  1.0000
  O   O178      1.0  0.40380  0.20349  0.02735  1.0000
  O   O179      1.0  0.79970  0.59620  0.02735  1.0000
  O   O180      1.0  0.79651  0.20030  0.02735  1.0000
  H   H37       1.0  0.18930  0.26000  0.20850  1.0000
  H   H38       1.0  0.74000  0.92930  0.20850  1.0000
  H   H39       1.0  0.07070  0.81070  0.20850  1.0000
  H   H40       1.0  0.26000  0.18930  0.29150  1.0000
  H   H41       1.0  0.92930  0.74000  0.29150  1.0000
  H   H42       1.0  0.81070  0.07070  0.29150  1.0000
  H   H43       1.0  0.85597  0.59333  0.54183  1.0000
  H   H44       1.0  0.40667  0.26263  0.54183  1.0000
  H   H45       1.0  0.73737  0.14403  0.54183  1.0000
  H   H46       1.0  0.92667  0.52263  0.62483  1.0000
  H   H47       1.0  0.59597  0.07333  0.62483  1.0000
  H   H48       1.0  0.47737  0.40403  0.62483  1.0000
  H   H49       1.0  0.52263  0.92667  0.87517  1.0000
  H   H50       1.0  0.07333  0.59597  0.87517  1.0000
  H   H51       1.0  0.40403  0.47737  0.87517  1.0000
  H   H52       1.0  0.59333  0.85597  0.95817  1.0000
  H   H53       1.0  0.26263  0.40667  0.95817  1.0000
  H   H54       1.0  0.14403  0.73737  0.95817  1.0000
  H   H55       1.0  0.81070  0.74000  0.79150  1.0000
  H   H56       1.0  0.26000  0.07070  0.79150  1.0000
  H   H57       1.0  0.92930  0.18930  0.79150  1.0000
  H   H58       1.0  0.74000  0.81070  0.70850  1.0000
  H   H59       1.0  0.07070  0.26000  0.70850  1.0000
  H   H60       1.0  0.18930  0.92930  0.70850  1.0000
  H   H61       1.0  0.14403  0.40667  0.45817  1.0000
  H   H62       1.0  0.59333  0.73737  0.45817  1.0000
  H   H63       1.0  0.26263  0.85597  0.45817  1.0000
  H   H64       1.0  0.07333  0.47737  0.37517  1.0000
  H   H65       1.0  0.40403  0.92667  0.37517  1.0000
  H   H66       1.0  0.52263  0.59597  0.37517  1.0000
  H   H67       1.0  0.47737  0.07333  0.12483  1.0000
  H   H68       1.0  0.92667  0.40403  0.12483  1.0000
  H   H69       1.0  0.59597  0.52263  0.12483  1.0000
  H   H70       1.0  0.40667  0.14403  0.04183  1.0000
  H   H71       1.0  0.73737  0.59333  0.04183  1.0000
  H   H72       1.0  0.85597  0.26263  0.04183  1.0000
  O   O181      1.0  0.29693  0.20075  0.19230  1.0000
  O   O182      1.0  0.79925  0.09618  0.19230  1.0000
  O   O183      1.0  0.90382  0.70307  0.19230  1.0000
  O   O184      1.0  0.20075  0.29693  0.30770  1.0000
  O   O185      1.0  0.09618  0.79925  0.30770  1.0000
  O   O186      1.0  0.70307  0.90382  0.30770  1.0000
  O   O187      1.0  0.96360  0.53408  0.52563  1.0000
  O   O188      1.0  0.46592  0.42951  0.52563  1.0000
  O   O189      1.0  0.57049  0.03640  0.52563  1.0000
  O   O190      1.0  0.86742  0.63026  0.64103  1.0000
  O   O191      1.0  0.76285  0.13258  0.64103  1.0000
  O   O192      1.0  0.36974  0.23715  0.64103  1.0000
  O   O193      1.0  0.63026  0.86742  0.85897  1.0000
  O   O194      1.0  0.13258  0.76285  0.85897  1.0000
  O   O195      1.0  0.23715  0.36974  0.85897  1.0000
  O   O196      1.0  0.53408  0.96360  0.97437  1.0000
  O   O197      1.0  0.42951  0.46592  0.97437  1.0000
  O   O198      1.0  0.03640  0.57049  0.97437  1.0000
  O   O199      1.0  0.70307  0.79925  0.80770  1.0000
  O   O200      1.0  0.20075  0.90382  0.80770  1.0000
  O   O201      1.0  0.09618  0.29693  0.80770  1.0000
  O   O202      1.0  0.79925  0.70307  0.69230  1.0000
  O   O203      1.0  0.90382  0.20075  0.69230  1.0000
  O   O204      1.0  0.29693  0.09618  0.69230  1.0000
  O   O205      1.0  0.03640  0.46592  0.47437  1.0000
  O   O206      1.0  0.53408  0.57049  0.47437  1.0000
  O   O207      1.0  0.42951  0.96360  0.47437  1.0000
  O   O208      1.0  0.13258  0.36974  0.35897  1.0000
  O   O209      1.0  0.23715  0.86742  0.35897  1.0000
  O   O210      1.0  0.63026  0.76285  0.35897  1.0000
  O   O211      1.0  0.36974  0.13258  0.14103  1.0000
  O   O212      1.0  0.86742  0.23715  0.14103  1.0000
  O   O213      1.0  0.76285  0.63026  0.14103  1.0000
  O   O214      1.0  0.46592  0.03640  0.02563  1.0000
  O   O215      1.0  0.57049  0.53408  0.02563  1.0000
  O   O216      1.0  0.96360  0.42951  0.02563  1.0000
  H   H73       1.0  0.25420  0.14980  0.22440  1.0000
  H   H74       1.0  0.85020  0.10440  0.22440  1.0000
  H   H75       1.0  0.89560  0.74580  0.22440  1.0000
  H   H76       1.0  0.14980  0.25420  0.27560  1.0000
  H   H77       1.0  0.10440  0.85020  0.27560  1.0000
  H   H78       1.0  0.74580  0.89560  0.27560  1.0000
  H   H79       1.0  0.92087  0.48313  0.55773  1.0000
  H   H80       1.0  0.51687  0.43773  0.55773  1.0000
  H   H81       1.0  0.56227  0.07913  0.55773  1.0000
  H   H82       1.0  0.81647  0.58753  0.60893  1.0000
  H   H83       1.0  0.77107  0.18353  0.60893  1.0000
  H   H84       1.0  0.41247  0.22893  0.60893  1.0000
  H   H85       1.0  0.58753  0.81647  0.89107  1.0000
  H   H86       1.0  0.18353  0.77107  0.89107  1.0000
  H   H87       1.0  0.22893  0.41247  0.89107  1.0000
  H   H88       1.0  0.48313  0.92087  0.94227  1.0000
  H   H89       1.0  0.43773  0.51687  0.94227  1.0000
  H   H90       1.0  0.07913  0.56227  0.94227  1.0000
  H   H91       1.0  0.74580  0.85020  0.77560  1.0000
  H   H92       1.0  0.14980  0.89560  0.77560  1.0000
  H   H93       1.0  0.10440  0.25420  0.77560  1.0000
  H   H94       1.0  0.85020  0.74580  0.72440  1.0000
  H   H95       1.0  0.89560  0.14980  0.72440  1.0000
  H   H96       1.0  0.25420  0.10440  0.72440  1.0000
  H   H97       1.0  0.07913  0.51687  0.44227  1.0000
  H   H98       1.0  0.48313  0.56227  0.44227  1.0000
  H   H99       1.0  0.43773  0.92087  0.44227  1.0000
  H   H100      1.0  0.18353  0.41247  0.39107  1.0000
  H   H101      1.0  0.22893  0.81647  0.39107  1.0000
  H   H102      1.0  0.58753  0.77107  0.39107  1.0000
  H   H103      1.0  0.41247  0.18353  0.10893  1.0000
  H   H104      1.0  0.81647  0.22893  0.10893  1.0000
  H   H105      1.0  0.77107  0.58753  0.10893  1.0000
  H   H106      1.0  0.51687  0.07913  0.05773  1.0000
  H   H107      1.0  0.56227  0.48313  0.05773  1.0000
  H   H108      1.0  0.92087  0.43773  0.05773  1.0000
  Zn  Zn19      1.0  0.00000  0.00000  0.16406  1.0000
  Zn  Zn20      1.0  0.00000  0.00000  0.33594  1.0000
  Zn  Zn21      1.0  0.66667  0.33333  0.49740  1.0000
  Zn  Zn22      1.0  0.66667  0.33333  0.66927  1.0000
  Zn  Zn23      1.0  0.33333  0.66667  0.83073  1.0000
  Zn  Zn24      1.0  0.33333  0.66667  0.00260  1.0000
  Zn  Zn25      1.0  0.00000  0.00000  0.83594  1.0000
  Zn  Zn26      1.0  0.00000  0.00000  0.66406  1.0000
  Zn  Zn27      1.0  0.33333  0.66667  0.50260  1.0000
  Zn  Zn28      1.0  0.33333  0.66667  0.33073  1.0000
  Zn  Zn29      1.0  0.66667  0.33333  0.16927  1.0000
  Zn  Zn30      1.0  0.66667  0.33333  0.99740  1.0000
  Zn  Zn31      1.0  0.16894  0.33088  0.16646  1.0000
  Zn  Zn32      1.0  0.66912  0.83806  0.16646  1.0000
  Zn  Zn33      1.0  0.16194  0.83106  0.16646  1.0000
  Zn  Zn34      1.0  0.33088  0.16894  0.33354  1.0000
  Zn  Zn35      1.0  0.83806  0.66912  0.33354  1.0000
  Zn  Zn36      1.0  0.83106  0.16194  0.33354  1.0000
  Zn  Zn37      1.0  0.83560  0.66421  0.49979  1.0000
  Zn  Zn38      1.0  0.33579  0.17139  0.49979  1.0000
  Zn  Zn39      1.0  0.82861  0.16440  0.49979  1.0000
  Zn  Zn40      1.0  0.99755  0.50227  0.66688  1.0000
  Zn  Zn41      1.0  0.50472  0.00245  0.66688  1.0000
  Zn  Zn42      1.0  0.49773  0.49528  0.66688  1.0000
  Zn  Zn43      1.0  0.50227  0.99755  0.83312  1.0000
  Zn  Zn44      1.0  0.00245  0.50472  0.83312  1.0000
  Zn  Zn45      1.0  0.49528  0.49773  0.83312  1.0000
  Zn  Zn46      1.0  0.66421  0.83560  0.00021  1.0000
  Zn  Zn47      1.0  0.17139  0.33579  0.00021  1.0000
  Zn  Zn48      1.0  0.16440  0.82861  0.00021  1.0000
  Zn  Zn49      1.0  0.83106  0.66912  0.83354  1.0000
  Zn  Zn50      1.0  0.33088  0.16194  0.83354  1.0000
  Zn  Zn51      1.0  0.83806  0.16894  0.83354  1.0000
  Zn  Zn52      1.0  0.66912  0.83106  0.66646  1.0000
  Zn  Zn53      1.0  0.16194  0.33088  0.66646  1.0000
  Zn  Zn54      1.0  0.16894  0.83806  0.66646  1.0000
  Zn  Zn55      1.0  0.16440  0.33579  0.50021  1.0000
  Zn  Zn56      1.0  0.66421  0.82861  0.50021  1.0000
  Zn  Zn57      1.0  0.17139  0.83560  0.50021  1.0000
  Zn  Zn58      1.0  0.00245  0.49773  0.33312  1.0000
  Zn  Zn59      1.0  0.49528  0.99755  0.33312  1.0000
  Zn  Zn60      1.0  0.50227  0.50472  0.33312  1.0000
  Zn  Zn61      1.0  0.49773  0.00245  0.16688  1.0000
  Zn  Zn62      1.0  0.99755  0.49528  0.16688  1.0000
  Zn  Zn63      1.0  0.50472  0.50227  0.16688  1.0000
  Zn  Zn64      1.0  0.33579  0.16440  0.99979  1.0000
  Zn  Zn65      1.0  0.82861  0.66421  0.99979  1.0000
  Zn  Zn66      1.0  0.83560  0.17139  0.99979  1.0000
  Zn  Zn67      1.0  0.33330  0.16670  0.16670  1.0000
  Zn  Zn68      1.0  0.83330  0.16660  0.16670  1.0000
  Zn  Zn69      1.0  0.83340  0.66670  0.16670  1.0000
  Zn  Zn70      1.0  0.16670  0.33330  0.33330  1.0000
  Zn  Zn71      1.0  0.16660  0.83330  0.33330  1.0000
  Zn  Zn72      1.0  0.66670  0.83340  0.33330  1.0000
  Zn  Zn73      1.0  0.99997  0.50003  0.50003  1.0000
  Zn  Zn74      1.0  0.49997  0.49993  0.50003  1.0000
  Zn  Zn75      1.0  0.50007  0.00003  0.50003  1.0000
  Zn  Zn76      1.0  0.83337  0.66663  0.66663  1.0000
  Zn  Zn77      1.0  0.83327  0.16663  0.66663  1.0000
  Zn  Zn78      1.0  0.33337  0.16673  0.66663  1.0000
  Zn  Zn79      1.0  0.66663  0.83337  0.83337  1.0000
  Zn  Zn80      1.0  0.16663  0.83327  0.83337  1.0000
  Zn  Zn81      1.0  0.16673  0.33337  0.83337  1.0000
  Zn  Zn82      1.0  0.50003  0.99997  0.99997  1.0000
  Zn  Zn83      1.0  0.49993  0.49997  0.99997  1.0000
  Zn  Zn84      1.0  0.00003  0.50007  0.99997  1.0000
  O   O217      1.0  0.03576  0.06944  0.13716  1.0000
  O   O218      1.0  0.93056  0.96632  0.13716  1.0000
  O   O219      1.0  0.03368  0.96424  0.13716  1.0000
  O   O220      1.0  0.06944  0.03576  0.36284  1.0000
  O   O221      1.0  0.96632  0.93056  0.36284  1.0000
  O   O222      1.0  0.96424  0.03368  0.36284  1.0000
  O   O223      1.0  0.70243  0.40277  0.47049  1.0000
  O   O224      1.0  0.59723  0.29965  0.47049  1.0000
  O   O225      1.0  0.70035  0.29757  0.47049  1.0000
  O   O226      1.0  0.73611  0.36909  0.69617  1.0000
  O   O227      1.0  0.63299  0.26389  0.69617  1.0000
  O   O228      1.0  0.63091  0.36701  0.69617  1.0000
  O   O229      1.0  0.36909  0.73611  0.80383  1.0000
  O   O230      1.0  0.26389  0.63299  0.80383  1.0000
  O   O231      1.0  0.36701  0.63091  0.80383  1.0000
  O   O232      1.0  0.40277  0.70243  0.02951  1.0000
  O   O233      1.0  0.29965  0.59723  0.02951  1.0000
  O   O234      1.0  0.29757  0.70035  0.02951  1.0000
  O   O235      1.0  0.96424  0.93056  0.86284  1.0000
  O   O236      1.0  0.06944  0.03368  0.86284  1.0000
  O   O237      1.0  0.96632  0.03576  0.86284  1.0000
  O   O238      1.0  0.93056  0.96424  0.63716  1.0000
  O   O239      1.0  0.03368  0.06944  0.63716  1.0000
  O   O240      1.0  0.03576  0.96632  0.63716  1.0000
  O   O241      1.0  0.29757  0.59723  0.52951  1.0000
  O   O242      1.0  0.40277  0.70035  0.52951  1.0000
  O   O243      1.0  0.29965  0.70243  0.52951  1.0000
  O   O244      1.0  0.26389  0.63091  0.30383  1.0000
  O   O245      1.0  0.36701  0.73611  0.30383  1.0000
  O   O246      1.0  0.36909  0.63299  0.30383  1.0000
  O   O247      1.0  0.63091  0.26389  0.19617  1.0000
  O   O248      1.0  0.73611  0.36701  0.19617  1.0000
  O   O249      1.0  0.63299  0.36909  0.19617  1.0000
  O   O250      1.0  0.59723  0.29757  0.97049  1.0000
  O   O251      1.0  0.70035  0.40277  0.97049  1.0000
  O   O252      1.0  0.70243  0.29965  0.97049  1.0000
  O   O253      1.0  0.09966  0.30308  0.13809  1.0000
  O   O254      1.0  0.69692  0.79658  0.13809  1.0000
  O   O255      1.0  0.20342  0.90034  0.13809  1.0000
  O   O256      1.0  0.30308  0.09966  0.36191  1.0000
  O   O257      1.0  0.79658  0.69692  0.36191  1.0000
  O   O258      1.0  0.90034  0.20342  0.36191  1.0000
  O   O259      1.0  0.76633  0.63641  0.47142  1.0000
  O   O260      1.0  0.36359  0.12991  0.47142  1.0000
  O   O261      1.0  0.87009  0.23367  0.47142  1.0000
  O   O262      1.0  0.96975  0.43299  0.69524  1.0000
  O   O263      1.0  0.46325  0.03025  0.69524  1.0000
  O   O264      1.0  0.56701  0.53675  0.69524  1.0000
  O   O265      1.0  0.43299  0.96975  0.80476  1.0000
  O   O266      1.0  0.03025  0.46325  0.80476  1.0000
  O   O267      1.0  0.53675  0.56701  0.80476  1.0000
  O   O268      1.0  0.63641  0.76633  0.02858  1.0000
  O   O269      1.0  0.12991  0.36359  0.02858  1.0000
  O   O270      1.0  0.23367  0.87009  0.02858  1.0000
  O   O271      1.0  0.90034  0.69692  0.86191  1.0000
  O   O272      1.0  0.30308  0.20342  0.86191  1.0000
  O   O273      1.0  0.79658  0.09966  0.86191  1.0000
  O   O274      1.0  0.69692  0.90034  0.63809  1.0000
  O   O275      1.0  0.20342  0.30308  0.63809  1.0000
  O   O276      1.0  0.09966  0.79658  0.63809  1.0000
  O   O277      1.0  0.23367  0.36359  0.52858  1.0000
  O   O278      1.0  0.63641  0.87009  0.52858  1.0000
  O   O279      1.0  0.12991  0.76633  0.52858  1.0000
  O   O280      1.0  0.03025  0.56701  0.30476  1.0000
  O   O281      1.0  0.53675  0.96975  0.30476  1.0000
  O   O282      1.0  0.43299  0.46325  0.30476  1.0000
  O   O283      1.0  0.56701  0.03025  0.19524  1.0000
  O   O284      1.0  0.96975  0.53675  0.19524  1.0000
  O   O285      1.0  0.46325  0.43299  0.19524  1.0000
  O   O286      1.0  0.36359  0.23367  0.97142  1.0000
  O   O287      1.0  0.87009  0.63641  0.97142  1.0000
  O   O288      1.0  0.76633  0.12991  0.97142  1.0000
  O   O289      1.0  0.19882  0.29381  0.13629  1.0000
  O   O290      1.0  0.70619  0.90501  0.13629  1.0000
  O   O291      1.0  0.09499  0.80118  0.13629  1.0000
  O   O292      1.0  0.29381  0.19882  0.36371  1.0000
  O   O293      1.0  0.90501  0.70619  0.36371  1.0000
  O   O294      1.0  0.80118  0.09499  0.36371  1.0000
  O   O295      1.0  0.86549  0.62714  0.46962  1.0000
  O   O296      1.0  0.37286  0.23834  0.46962  1.0000
  O   O297      1.0  0.76166  0.13451  0.46962  1.0000
  O   O298      1.0  0.96048  0.53215  0.69704  1.0000
  O   O299      1.0  0.57168  0.03952  0.69704  1.0000
  O   O300      1.0  0.46785  0.42832  0.69704  1.0000
  O   O301      1.0  0.53215  0.96048  0.80296  1.0000
  O   O302      1.0  0.03952  0.57168  0.80296  1.0000
  O   O303      1.0  0.42832  0.46785  0.80296  1.0000
  O   O304      1.0  0.62714  0.86549  0.03038  1.0000
  O   O305      1.0  0.23834  0.37286  0.03038  1.0000
  O   O306      1.0  0.13451  0.76166  0.03038  1.0000
  O   O307      1.0  0.80118  0.70619  0.86371  1.0000
  O   O308      1.0  0.29381  0.09499  0.86371  1.0000
  O   O309      1.0  0.90501  0.19882  0.86371  1.0000
  O   O310      1.0  0.70619  0.80118  0.63629  1.0000
  O   O311      1.0  0.09499  0.29381  0.63629  1.0000
  O   O312      1.0  0.19882  0.90501  0.63629  1.0000
  O   O313      1.0  0.13451  0.37286  0.53038  1.0000
  O   O314      1.0  0.62714  0.76166  0.53038  1.0000
  O   O315      1.0  0.23834  0.86549  0.53038  1.0000
  O   O316      1.0  0.03952  0.46785  0.30296  1.0000
  O   O317      1.0  0.42832  0.96048  0.30296  1.0000
  O   O318      1.0  0.53215  0.57168  0.30296  1.0000
  O   O319      1.0  0.46785  0.03952  0.19704  1.0000
  O   O320      1.0  0.96048  0.42832  0.19704  1.0000
  O   O321      1.0  0.57168  0.53215  0.19704  1.0000
  O   O322      1.0  0.37286  0.13451  0.96962  1.0000
  O   O323      1.0  0.76166  0.62714  0.96962  1.0000
  O   O324      1.0  0.86549  0.23834  0.96962  1.0000
  O   O325      1.0  0.23926  0.36121  0.19357  1.0000
  O   O326      1.0  0.63879  0.87805  0.19357  1.0000
  O   O327      1.0  0.12195  0.76074  0.19357  1.0000
  O   O328      1.0  0.36121  0.23926  0.30643  1.0000
  O   O329      1.0  0.87805  0.63879  0.30643  1.0000
  O   O330      1.0  0.76074  0.12195  0.30643  1.0000
  O   O331      1.0  0.90593  0.69454  0.52690  1.0000
  O   O332      1.0  0.30546  0.21138  0.52690  1.0000
  O   O333      1.0  0.78862  0.09407  0.52690  1.0000
  O   O334      1.0  0.02788  0.57259  0.63976  1.0000
  O   O335      1.0  0.54472  0.97212  0.63976  1.0000
  O   O336      1.0  0.42741  0.45528  0.63976  1.0000
  O   O337      1.0  0.57259  0.02788  0.86024  1.0000
  O   O338      1.0  0.97212  0.54472  0.86024  1.0000
  O   O339      1.0  0.45528  0.42741  0.86024  1.0000
  O   O340      1.0  0.69454  0.90593  0.97310  1.0000
  O   O341      1.0  0.21138  0.30546  0.97310  1.0000
  O   O342      1.0  0.09407  0.78862  0.97310  1.0000
  O   O343      1.0  0.76074  0.63879  0.80643  1.0000
  O   O344      1.0  0.36121  0.12195  0.80643  1.0000
  O   O345      1.0  0.87805  0.23926  0.80643  1.0000
  O   O346      1.0  0.63879  0.76074  0.69357  1.0000
  O   O347      1.0  0.12195  0.36121  0.69357  1.0000
  O   O348      1.0  0.23926  0.87805  0.69357  1.0000
  O   O349      1.0  0.09407  0.30546  0.47310  1.0000
  O   O350      1.0  0.69454  0.78862  0.47310  1.0000
  O   O351      1.0  0.21138  0.90593  0.47310  1.0000
  O   O352      1.0  0.97212  0.42741  0.36024  1.0000
  O   O353      1.0  0.45528  0.02788  0.36024  1.0000
  O   O354      1.0  0.57259  0.54472  0.36024  1.0000
  O   O355      1.0  0.42741  0.97212  0.13976  1.0000
  O   O356      1.0  0.02788  0.45528  0.13976  1.0000
  O   O357      1.0  0.54472  0.57259  0.13976  1.0000
  O   O358      1.0  0.30546  0.09407  0.02690  1.0000
  O   O359      1.0  0.78862  0.69454  0.02690  1.0000
  O   O360      1.0  0.90593  0.21138  0.02690  1.0000
  O   O361      1.0  0.13827  0.36962  0.19696  1.0000
  O   O362      1.0  0.63038  0.76865  0.19696  1.0000
  O   O363      1.0  0.23135  0.86173  0.19696  1.0000
  O   O364      1.0  0.36962  0.13827  0.30304  1.0000
  O   O365      1.0  0.76865  0.63038  0.30304  1.0000
  O   O366      1.0  0.86173  0.23135  0.30304  1.0000
  O   O367      1.0  0.80494  0.70295  0.53029  1.0000
  O   O368      1.0  0.29705  0.10198  0.53029  1.0000
  O   O369      1.0  0.89802  0.19506  0.53029  1.0000
  O   O370      1.0  0.03629  0.47160  0.63637  1.0000
  O   O371      1.0  0.43532  0.96371  0.63637  1.0000
  O   O372      1.0  0.52840  0.56468  0.63637  1.0000
  O   O373      1.0  0.47160  0.03629  0.86363  1.0000
  O   O374      1.0  0.96371  0.43532  0.86363  1.0000
  O   O375      1.0  0.56468  0.52840  0.86363  1.0000
  O   O376      1.0  0.70295  0.80494  0.96971  1.0000
  O   O377      1.0  0.10198  0.29705  0.96971  1.0000
  O   O378      1.0  0.19506  0.89802  0.96971  1.0000
  O   O379      1.0  0.86173  0.63038  0.80304  1.0000
  O   O380      1.0  0.36962  0.23135  0.80304  1.0000
  O   O381      1.0  0.76865  0.13827  0.80304  1.0000
  O   O382      1.0  0.63038  0.86173  0.69696  1.0000
  O   O383      1.0  0.23135  0.36962  0.69696  1.0000
  O   O384      1.0  0.13827  0.76865  0.69696  1.0000
  O   O385      1.0  0.19506  0.29705  0.46971  1.0000
  O   O386      1.0  0.70295  0.89802  0.46971  1.0000
  O   O387      1.0  0.10198  0.80494  0.46971  1.0000
  O   O388      1.0  0.96371  0.52840  0.36363  1.0000
  O   O389      1.0  0.56468  0.03629  0.36363  1.0000
  O   O390      1.0  0.47160  0.43532  0.36363  1.0000
  O   O391      1.0  0.52840  0.96371  0.13637  1.0000
  O   O392      1.0  0.03629  0.56468  0.13637  1.0000
  O   O393      1.0  0.43532  0.47160  0.13637  1.0000
  O   O394      1.0  0.29705  0.19506  0.03029  1.0000
  O   O395      1.0  0.89802  0.70295  0.03029  1.0000
  O   O396      1.0  0.80494  0.10198  0.03029  1.0000
  O   O397      1.0  0.20434  0.40272  0.14179  1.0000
  O   O398      1.0  0.59728  0.80162  0.14179  1.0000
  O   O399      1.0  0.19838  0.79566  0.14179  1.0000
  O   O400      1.0  0.40272  0.20434  0.35821  1.0000
  O   O401      1.0  0.80162  0.59728  0.35821  1.0000
  O   O402      1.0  0.79566  0.19838  0.35821  1.0000
  O   O403      1.0  0.87101  0.73605  0.47512  1.0000
  O   O404      1.0  0.26395  0.13495  0.47512  1.0000
  O   O405      1.0  0.86505  0.12899  0.47512  1.0000
  O   O406      1.0  0.06939  0.53767  0.69154  1.0000
  O   O407      1.0  0.46829  0.93061  0.69154  1.0000
  O   O408      1.0  0.46233  0.53171  0.69154  1.0000
  O   O409      1.0  0.53767  0.06939  0.80846  1.0000
  O   O410      1.0  0.93061  0.46829  0.80846  1.0000
  O   O411      1.0  0.53171  0.46233  0.80846  1.0000
  O   O412      1.0  0.73605  0.87101  0.02488  1.0000
  O   O413      1.0  0.13495  0.26395  0.02488  1.0000
  O   O414      1.0  0.12899  0.86505  0.02488  1.0000
  O   O415      1.0  0.79566  0.59728  0.85821  1.0000
  O   O416      1.0  0.40272  0.19838  0.85821  1.0000
  O   O417      1.0  0.80162  0.20434  0.85821  1.0000
  O   O418      1.0  0.59728  0.79566  0.64179  1.0000
  O   O419      1.0  0.19838  0.40272  0.64179  1.0000
  O   O420      1.0  0.20434  0.80162  0.64179  1.0000
  O   O421      1.0  0.12899  0.26395  0.52488  1.0000
  O   O422      1.0  0.73605  0.86505  0.52488  1.0000
  O   O423      1.0  0.13495  0.87101  0.52488  1.0000
  O   O424      1.0  0.93061  0.46233  0.30846  1.0000
  O   O425      1.0  0.53171  0.06939  0.30846  1.0000
  O   O426      1.0  0.53767  0.46829  0.30846  1.0000
  O   O427      1.0  0.46233  0.93061  0.19154  1.0000
  O   O428      1.0  0.06939  0.53171  0.19154  1.0000
  O   O429      1.0  0.46829  0.53767  0.19154  1.0000
  O   O430      1.0  0.26395  0.12899  0.97512  1.0000
  O   O431      1.0  0.86505  0.73605  0.97512  1.0000
  O   O432      1.0  0.87101  0.13495  0.97512  1.0000
  O   O433      1.0  0.37343  0.23706  0.14047  1.0000
  O   O434      1.0  0.76294  0.13637  0.14047  1.0000
  O   O435      1.0  0.86363  0.62657  0.14047  1.0000
  O   O436      1.0  0.23706  0.37343  0.35953  1.0000
  O   O437      1.0  0.13637  0.76294  0.35953  1.0000
  O   O438      1.0  0.62657  0.86363  0.35953  1.0000
  O   O439      1.0  0.04010  0.57039  0.47380  1.0000
  O   O440      1.0  0.42961  0.46970  0.47380  1.0000
  O   O441      1.0  0.53030  0.95990  0.47380  1.0000
  O   O442      1.0  0.90373  0.70676  0.69286  1.0000
  O   O443      1.0  0.80304  0.09627  0.69286  1.0000
  O   O444      1.0  0.29324  0.19696  0.69286  1.0000
  O   O445      1.0  0.70676  0.90373  0.80714  1.0000
  O   O446      1.0  0.09627  0.80304  0.80714  1.0000
  O   O447      1.0  0.19696  0.29324  0.80714  1.0000
  O   O448      1.0  0.57039  0.04010  0.02620  1.0000
  O   O449      1.0  0.46970  0.42961  0.02620  1.0000
  O   O450      1.0  0.95990  0.53030  0.02620  1.0000
  O   O451      1.0  0.62657  0.76294  0.85953  1.0000
  O   O452      1.0  0.23706  0.86363  0.85953  1.0000
  O   O453      1.0  0.13637  0.37343  0.85953  1.0000
  O   O454      1.0  0.76294  0.62657  0.64047  1.0000
  O   O455      1.0  0.86363  0.23706  0.64047  1.0000
  O   O456      1.0  0.37343  0.13637  0.64047  1.0000
  O   O457      1.0  0.95990  0.42961  0.52620  1.0000
  O   O458      1.0  0.57039  0.53030  0.52620  1.0000
  O   O459      1.0  0.46970  0.04010  0.52620  1.0000
  O   O460      1.0  0.09627  0.29324  0.30714  1.0000
  O   O461      1.0  0.19696  0.90373  0.30714  1.0000
  O   O462      1.0  0.70676  0.80304  0.30714  1.0000
  O   O463      1.0  0.29324  0.09627  0.19286  1.0000
  O   O464      1.0  0.90373  0.19696  0.19286  1.0000
  O   O465      1.0  0.80304  0.70676  0.19286  1.0000
  O   O466      1.0  0.42961  0.95990  0.97380  1.0000
  O   O467      1.0  0.53030  0.57039  0.97380  1.0000
  O   O468      1.0  0.04010  0.46970  0.97380  1.0000
  O   O469      1.0  0.26738  0.13766  0.13461  1.0000
  O   O470      1.0  0.86234  0.12972  0.13461  1.0000
  O   O471      1.0  0.87028  0.73262  0.13461  1.0000
  O   O472      1.0  0.13766  0.26738  0.36539  1.0000
  O   O473      1.0  0.12972  0.86234  0.36539  1.0000
  O   O474      1.0  0.73262  0.87028  0.36539  1.0000
  O   O475      1.0  0.93405  0.47099  0.46794  1.0000
  O   O476      1.0  0.52901  0.46305  0.46794  1.0000
  O   O477      1.0  0.53695  0.06595  0.46794  1.0000
  O   O478      1.0  0.80433  0.60071  0.69872  1.0000
  O   O479      1.0  0.79639  0.19567  0.69872  1.0000
  O   O480      1.0  0.39929  0.20361  0.69872  1.0000
  O   O481      1.0  0.60071  0.80433  0.80128  1.0000
  O   O482      1.0  0.19567  0.79639  0.80128  1.0000
  O   O483      1.0  0.20361  0.39929  0.80128  1.0000
  O   O484      1.0  0.47099  0.93405  0.03206  1.0000
  O   O485      1.0  0.46305  0.52901  0.03206  1.0000
  O   O486      1.0  0.06595  0.53695  0.03206  1.0000
  O   O487      1.0  0.73262  0.86234  0.86539  1.0000
  O   O488      1.0  0.13766  0.87028  0.86539  1.0000
  O   O489      1.0  0.12972  0.26738  0.86539  1.0000
  O   O490      1.0  0.86234  0.73262  0.63461  1.0000
  O   O491      1.0  0.87028  0.13766  0.63461  1.0000
  O   O492      1.0  0.26738  0.12972  0.63461  1.0000
  O   O493      1.0  0.06595  0.52901  0.53206  1.0000
  O   O494      1.0  0.47099  0.53695  0.53206  1.0000
  O   O495      1.0  0.46305  0.93405  0.53206  1.0000
  O   O496      1.0  0.19567  0.39929  0.30128  1.0000
  O   O497      1.0  0.20361  0.80433  0.30128  1.0000
  O   O498      1.0  0.60071  0.79639  0.30128  1.0000
  O   O499      1.0  0.39929  0.19567  0.19872  1.0000
  O   O500      1.0  0.80433  0.20361  0.19872  1.0000
  O   O501      1.0  0.79639  0.60071  0.19872  1.0000
  O   O502      1.0  0.52901  0.06595  0.96794  1.0000
  O   O503      1.0  0.53695  0.47099  0.96794  1.0000
  O   O504      1.0  0.93405  0.46305  0.96794  1.0000
  C   C109      1.0  0.01310  0.08817  0.12079  1.0000
  C   C110      1.0  0.91183  0.92493  0.12079  1.0000
  C   C111      1.0  0.07507  0.98690  0.12079  1.0000
  C   C112      1.0  0.08817  0.01310  0.37921  1.0000
  C   C113      1.0  0.92493  0.91183  0.37921  1.0000
  C   C114      1.0  0.98690  0.07507  0.37921  1.0000
  C   C115      1.0  0.67977  0.42150  0.45412  1.0000
  C   C116      1.0  0.57850  0.25826  0.45412  1.0000
  C   C117      1.0  0.74174  0.32023  0.45412  1.0000
  C   C118      1.0  0.75484  0.34643  0.71254  1.0000
  C   C119      1.0  0.59160  0.24516  0.71254  1.0000
  C   C120      1.0  0.65357  0.40840  0.71254  1.0000
  C   C121      1.0  0.34643  0.75484  0.78746  1.0000
  C   C122      1.0  0.24516  0.59160  0.78746  1.0000
  C   C123      1.0  0.40840  0.65357  0.78746  1.0000
  C   C124      1.0  0.42150  0.67977  0.04588  1.0000
  C   C125      1.0  0.25826  0.57850  0.04588  1.0000
  C   C126      1.0  0.32023  0.74174  0.04588  1.0000
  C   C127      1.0  0.98690  0.91183  0.87921  1.0000
  C   C128      1.0  0.08817  0.07507  0.87921  1.0000
  C   C129      1.0  0.92493  0.01310  0.87921  1.0000
  C   C130      1.0  0.91183  0.98690  0.62079  1.0000
  C   C131      1.0  0.07507  0.08817  0.62079  1.0000
  C   C132      1.0  0.01310  0.92493  0.62079  1.0000
  C   C133      1.0  0.32023  0.57850  0.54588  1.0000
  C   C134      1.0  0.42150  0.74174  0.54588  1.0000
  C   C135      1.0  0.25826  0.67977  0.54588  1.0000
  C   C136      1.0  0.24516  0.65357  0.28746  1.0000
  C   C137      1.0  0.40840  0.75484  0.28746  1.0000
  C   C138      1.0  0.34643  0.59160  0.28746  1.0000
  C   C139      1.0  0.65357  0.24516  0.21254  1.0000
  C   C140      1.0  0.75484  0.40840  0.21254  1.0000
  C   C141      1.0  0.59160  0.34643  0.21254  1.0000
  C   C142      1.0  0.57850  0.32023  0.95412  1.0000
  C   C143      1.0  0.74174  0.42150  0.95412  1.0000
  C   C144      1.0  0.67977  0.25826  0.95412  1.0000
  C   C145      1.0  0.07685  0.25719  0.12621  1.0000
  C   C146      1.0  0.74281  0.81966  0.12621  1.0000
  C   C147      1.0  0.18034  0.92315  0.12621  1.0000
  C   C148      1.0  0.25719  0.07685  0.37379  1.0000
  C   C149      1.0  0.81966  0.74281  0.37379  1.0000
  C   C150      1.0  0.92315  0.18034  0.37379  1.0000
  C   C151      1.0  0.74352  0.59052  0.45954  1.0000
  C   C152      1.0  0.40948  0.15299  0.45954  1.0000
  C   C153      1.0  0.84701  0.25648  0.45954  1.0000
  C   C154      1.0  0.92386  0.41018  0.70712  1.0000
  C   C155      1.0  0.48633  0.07614  0.70712  1.0000
  C   C156      1.0  0.58982  0.51367  0.70712  1.0000
  C   C157      1.0  0.41018  0.92386  0.79288  1.0000
  C   C158      1.0  0.07614  0.48633  0.79288  1.0000
  C   C159      1.0  0.51367  0.58982  0.79288  1.0000
  C   C160      1.0  0.59052  0.74352  0.04046  1.0000
  C   C161      1.0  0.15299  0.40948  0.04046  1.0000
  C   C162      1.0  0.25648  0.84701  0.04046  1.0000
  C   C163      1.0  0.92315  0.74281  0.87379  1.0000
  C   C164      1.0  0.25719  0.18034  0.87379  1.0000
  C   C165      1.0  0.81966  0.07685  0.87379  1.0000
  C   C166      1.0  0.74281  0.92315  0.62621  1.0000
  C   C167      1.0  0.18034  0.25719  0.62621  1.0000
  C   C168      1.0  0.07685  0.81966  0.62621  1.0000
  C   C169      1.0  0.25648  0.40948  0.54046  1.0000
  C   C170      1.0  0.59052  0.84701  0.54046  1.0000
  C   C171      1.0  0.15299  0.74352  0.54046  1.0000
  C   C172      1.0  0.07614  0.58982  0.29288  1.0000
  C   C173      1.0  0.51367  0.92386  0.29288  1.0000
  C   C174      1.0  0.41018  0.48633  0.29288  1.0000
  C   C175      1.0  0.58982  0.07614  0.20712  1.0000
  C   C176      1.0  0.92386  0.51367  0.20712  1.0000
  C   C177      1.0  0.48633  0.41018  0.20712  1.0000
  C   C178      1.0  0.40948  0.25648  0.95954  1.0000
  C   C179      1.0  0.84701  0.59052  0.95954  1.0000
  C   C180      1.0  0.74352  0.15299  0.95954  1.0000
  C   C181      1.0  0.24332  0.31801  0.12333  1.0000
  C   C182      1.0  0.68199  0.92531  0.12333  1.0000
  C   C183      1.0  0.07469  0.75668  0.12333  1.0000
  C   C184      1.0  0.31801  0.24332  0.37667  1.0000
  C   C185      1.0  0.92531  0.68199  0.37667  1.0000
  C   C186      1.0  0.75668  0.07469  0.37667  1.0000
  C   C187      1.0  0.90999  0.65134  0.45666  1.0000
  C   C188      1.0  0.34866  0.25864  0.45666  1.0000
  C   C189      1.0  0.74136  0.09001  0.45666  1.0000
  C   C190      1.0  0.98468  0.57665  0.71000  1.0000
  C   C191      1.0  0.59198  0.01532  0.71000  1.0000
  C   C192      1.0  0.42335  0.40802  0.71000  1.0000
  C   C193      1.0  0.57665  0.98468  0.79000  1.0000
  C   C194      1.0  0.01532  0.59198  0.79000  1.0000
  C   C195      1.0  0.40802  0.42335  0.79000  1.0000
  C   C196      1.0  0.65134  0.90999  0.04334  1.0000
  C   C197      1.0  0.25864  0.34866  0.04334  1.0000
  C   C198      1.0  0.09001  0.74136  0.04334  1.0000
  C   C199      1.0  0.75668  0.68199  0.87667  1.0000
  C   C200      1.0  0.31801  0.07469  0.87667  1.0000
  C   C201      1.0  0.92531  0.24332  0.87667  1.0000
  C   C202      1.0  0.68199  0.75668  0.62333  1.0000
  C   C203      1.0  0.07469  0.31801  0.62333  1.0000
  C   C204      1.0  0.24332  0.92531  0.62333  1.0000
  C   C205      1.0  0.09001  0.34866  0.54334  1.0000
  C   C206      1.0  0.65134  0.74136  0.54334  1.0000
  C   C207      1.0  0.25864  0.90999  0.54334  1.0000
  C   C208      1.0  0.01532  0.42335  0.29000  1.0000
  C   C209      1.0  0.40802  0.98468  0.29000  1.0000
  C   C210      1.0  0.57665  0.59198  0.29000  1.0000
  C   C211      1.0  0.42335  0.01532  0.21000  1.0000
  C   C212      1.0  0.98468  0.40802  0.21000  1.0000
  C   C213      1.0  0.59198  0.57665  0.21000  1.0000
  C   C214      1.0  0.34866  0.09001  0.95666  1.0000
  C   C215      1.0  0.74136  0.65134  0.95666  1.0000
  C   C216      1.0  0.90999  0.25864  0.95666  1.0000
  C   C217      1.0  0.25799  0.40349  0.20924  1.0000
  C   C218      1.0  0.59651  0.85450  0.20924  1.0000
  C   C219      1.0  0.14550  0.74201  0.20924  1.0000
  C   C220      1.0  0.40349  0.25799  0.29076  1.0000
  C   C221      1.0  0.85450  0.59651  0.29076  1.0000
  C   C222      1.0  0.74201  0.14550  0.29076  1.0000
  C   C223      1.0  0.92466  0.73682  0.54257  1.0000
  C   C224      1.0  0.26318  0.18783  0.54257  1.0000
  C   C225      1.0  0.81217  0.07534  0.54257  1.0000
  C   C226      1.0  0.07016  0.59132  0.62409  1.0000
  C   C227      1.0  0.52117  0.92984  0.62409  1.0000
  C   C228      1.0  0.40868  0.47883  0.62409  1.0000
  C   C229      1.0  0.59132  0.07016  0.87591  1.0000
  C   C230      1.0  0.92984  0.52117  0.87591  1.0000
  C   C231      1.0  0.47883  0.40868  0.87591  1.0000
  C   C232      1.0  0.73682  0.92466  0.95743  1.0000
  C   C233      1.0  0.18783  0.26318  0.95743  1.0000
  C   C234      1.0  0.07534  0.81217  0.95743  1.0000
  C   C235      1.0  0.74201  0.59651  0.79076  1.0000
  C   C236      1.0  0.40349  0.14550  0.79076  1.0000
  C   C237      1.0  0.85450  0.25799  0.79076  1.0000
  C   C238      1.0  0.59651  0.74201  0.70924  1.0000
  C   C239      1.0  0.14550  0.40349  0.70924  1.0000
  C   C240      1.0  0.25799  0.85450  0.70924  1.0000
  C   C241      1.0  0.07534  0.26318  0.45743  1.0000
  C   C242      1.0  0.73682  0.81217  0.45743  1.0000
  C   C243      1.0  0.18783  0.92466  0.45743  1.0000
  C   C244      1.0  0.92984  0.40868  0.37591  1.0000
  C   C245      1.0  0.47883  0.07016  0.37591  1.0000
  C   C246      1.0  0.59132  0.52117  0.37591  1.0000
  C   C247      1.0  0.40868  0.92984  0.12409  1.0000
  C   C248      1.0  0.07016  0.47883  0.12409  1.0000
  C   C249      1.0  0.52117  0.59132  0.12409  1.0000
  C   C250      1.0  0.26318  0.07534  0.04257  1.0000
  C   C251      1.0  0.81217  0.73682  0.04257  1.0000
  C   C252      1.0  0.92466  0.18783  0.04257  1.0000
  C   C253      1.0  0.09532  0.34565  0.21234  1.0000
  C   C254      1.0  0.65435  0.74967  0.21234  1.0000
  C   C255      1.0  0.25033  0.90468  0.21234  1.0000
  C   C256      1.0  0.34565  0.09532  0.28766  1.0000
  C   C257      1.0  0.74967  0.65435  0.28766  1.0000
  C   C258      1.0  0.90468  0.25033  0.28766  1.0000
  C   C259      1.0  0.76199  0.67898  0.54567  1.0000
  C   C260      1.0  0.32102  0.08300  0.54567  1.0000
  C   C261      1.0  0.91700  0.23801  0.54567  1.0000
  C   C262      1.0  0.01232  0.42865  0.62099  1.0000
  C   C263      1.0  0.41634  0.98768  0.62099  1.0000
  C   C264      1.0  0.57135  0.58366  0.62099  1.0000
  C   C265      1.0  0.42865  0.01232  0.87901  1.0000
  C   C266      1.0  0.98768  0.41634  0.87901  1.0000
  C   C267      1.0  0.58366  0.57135  0.87901  1.0000
  C   C268      1.0  0.67898  0.76199  0.95433  1.0000
  C   C269      1.0  0.08300  0.32102  0.95433  1.0000
  C   C270      1.0  0.23801  0.91700  0.95433  1.0000
  C   C271      1.0  0.90468  0.65435  0.78766  1.0000
  C   C272      1.0  0.34565  0.25033  0.78766  1.0000
  C   C273      1.0  0.74967  0.09532  0.78766  1.0000
  C   C274      1.0  0.65435  0.90468  0.71234  1.0000
  C   C275      1.0  0.25033  0.34565  0.71234  1.0000
  C   C276      1.0  0.09532  0.74967  0.71234  1.0000
  C   C277      1.0  0.23801  0.32102  0.45433  1.0000
  C   C278      1.0  0.67898  0.91700  0.45433  1.0000
  C   C279      1.0  0.08300  0.76199  0.45433  1.0000
  C   C280      1.0  0.98768  0.57135  0.37901  1.0000
  C   C281      1.0  0.58366  0.01232  0.37901  1.0000
  C   C282      1.0  0.42865  0.41634  0.37901  1.0000
  C   C283      1.0  0.57135  0.98768  0.12099  1.0000
  C   C284      1.0  0.01232  0.58366  0.12099  1.0000
  C   C285      1.0  0.41634  0.42865  0.12099  1.0000
  C   C286      1.0  0.32102  0.23801  0.04567  1.0000
  C   C287      1.0  0.91700  0.67898  0.04567  1.0000
  C   C288      1.0  0.76199  0.08300  0.04567  1.0000
  C   C289      1.0  0.35098  0.25710  0.12456  1.0000
  C   C290      1.0  0.74290  0.09388  0.12456  1.0000
  C   C291      1.0  0.90612  0.64902  0.12456  1.0000
  C   C292      1.0  0.25710  0.35098  0.37544  1.0000
  C   C293      1.0  0.09388  0.74290  0.37544  1.0000
  C   C294      1.0  0.64902  0.90612  0.37544  1.0000
  C   C295      1.0  0.01765  0.59043  0.45789  1.0000
  C   C296      1.0  0.40957  0.42721  0.45789  1.0000
  C   C297      1.0  0.57279  0.98235  0.45789  1.0000
  C   C298      1.0  0.92377  0.68431  0.70877  1.0000
  C   C299      1.0  0.76055  0.07623  0.70877  1.0000
  C   C300      1.0  0.31569  0.23945  0.70877  1.0000
  C   C301      1.0  0.68431  0.92377  0.79123  1.0000
  C   C302      1.0  0.07623  0.76055  0.79123  1.0000
  C   C303      1.0  0.23945  0.31569  0.79123  1.0000
  C   C304      1.0  0.59043  0.01765  0.04211  1.0000
  C   C305      1.0  0.42721  0.40957  0.04211  1.0000
  C   C306      1.0  0.98235  0.57279  0.04211  1.0000
  C   C307      1.0  0.64902  0.74290  0.87544  1.0000
  C   C308      1.0  0.25710  0.90612  0.87544  1.0000
  C   C309      1.0  0.09388  0.35098  0.87544  1.0000
  C   C310      1.0  0.74290  0.64902  0.62456  1.0000
  C   C311      1.0  0.90612  0.25710  0.62456  1.0000
  C   C312      1.0  0.35098  0.09388  0.62456  1.0000
  C   C313      1.0  0.98235  0.40957  0.54211  1.0000
  C   C314      1.0  0.59043  0.57279  0.54211  1.0000
  C   C315      1.0  0.42721  0.01765  0.54211  1.0000
  C   C316      1.0  0.07623  0.31569  0.29123  1.0000
  C   C317      1.0  0.23945  0.92377  0.29123  1.0000
  C   C318      1.0  0.68431  0.76055  0.29123  1.0000
  C   C319      1.0  0.31569  0.07623  0.20877  1.0000
  C   C320      1.0  0.92377  0.23945  0.20877  1.0000
  C   C321      1.0  0.76055  0.68431  0.20877  1.0000
  C   C322      1.0  0.40957  0.98235  0.95789  1.0000
  C   C323      1.0  0.57279  0.59043  0.95789  1.0000
  C   C324      1.0  0.01765  0.42721  0.95789  1.0000
  C   C325      1.0  0.24702  0.09269  0.12175  1.0000
  C   C326      1.0  0.90731  0.15433  0.12175  1.0000
  C   C327      1.0  0.84567  0.75298  0.12175  1.0000
  C   C328      1.0  0.09269  0.24702  0.37825  1.0000
  C   C329      1.0  0.15433  0.90731  0.37825  1.0000
  C   C330      1.0  0.75298  0.84567  0.37825  1.0000
  C   C331      1.0  0.91369  0.42602  0.45508  1.0000
  C   C332      1.0  0.57398  0.48766  0.45508  1.0000
  C   C333      1.0  0.51234  0.08631  0.45508  1.0000
  C   C334      1.0  0.75936  0.58035  0.71158  1.0000
  C   C335      1.0  0.82100  0.24064  0.71158  1.0000
  C   C336      1.0  0.41965  0.17900  0.71158  1.0000
  C   C337      1.0  0.58035  0.75936  0.78842  1.0000
  C   C338      1.0  0.24064  0.82100  0.78842  1.0000
  C   C339      1.0  0.17900  0.41965  0.78842  1.0000
  C   C340      1.0  0.42602  0.91369  0.04492  1.0000
  C   C341      1.0  0.48766  0.57398  0.04492  1.0000
  C   C342      1.0  0.08631  0.51234  0.04492  1.0000
  C   C343      1.0  0.75298  0.90731  0.87825  1.0000
  C   C344      1.0  0.09269  0.84567  0.87825  1.0000
  C   C345      1.0  0.15433  0.24702  0.87825  1.0000
  C   C346      1.0  0.90731  0.75298  0.62175  1.0000
  C   C347      1.0  0.84567  0.09269  0.62175  1.0000
  C   C348      1.0  0.24702  0.15433  0.62175  1.0000
  C   C349      1.0  0.08631  0.57398  0.54492  1.0000
  C   C350      1.0  0.42602  0.51234  0.54492  1.0000
  C   C351      1.0  0.48766  0.91369  0.54492  1.0000
  C   C352      1.0  0.24064  0.41965  0.28842  1.0000
  C   C353      1.0  0.17900  0.75936  0.28842  1.0000
  C   C354      1.0  0.58035  0.82100  0.28842  1.0000
  C   C355      1.0  0.41965  0.24064  0.21158  1.0000
  C   C356      1.0  0.75936  0.17900  0.21158  1.0000
  C   C357      1.0  0.82100  0.58035  0.21158  1.0000
  C   C358      1.0  0.57398  0.08631  0.95508  1.0000
  C   C359      1.0  0.51234  0.42602  0.95508  1.0000
  C   C360      1.0  0.91369  0.48766  0.95508  1.0000
  O   O505      1.0  0.03229  0.13567  0.11346  1.0000
  O   O506      1.0  0.86433  0.89662  0.11346  1.0000
  O   O507      1.0  0.10338  0.96771  0.11346  1.0000
  O   O508      1.0  0.13567  0.03229  0.38654  1.0000
  O   O509      1.0  0.89662  0.86433  0.38654  1.0000
  O   O510      1.0  0.96771  0.10338  0.38654  1.0000
  O   O511      1.0  0.69896  0.46900  0.44679  1.0000
  O   O512      1.0  0.53100  0.22995  0.44679  1.0000
  O   O513      1.0  0.77005  0.30104  0.44679  1.0000
  O   O514      1.0  0.80234  0.36562  0.71987  1.0000
  O   O515      1.0  0.56329  0.19766  0.71987  1.0000
  O   O516      1.0  0.63438  0.43671  0.71987  1.0000
  O   O517      1.0  0.36562  0.80234  0.78013  1.0000
  O   O518      1.0  0.19766  0.56329  0.78013  1.0000
  O   O519      1.0  0.43671  0.63438  0.78013  1.0000
  O   O520      1.0  0.46900  0.69896  0.05321  1.0000
  O   O521      1.0  0.22995  0.53100  0.05321  1.0000
  O   O522      1.0  0.30104  0.77005  0.05321  1.0000
  O   O523      1.0  0.96771  0.86433  0.88654  1.0000
  O   O524      1.0  0.13567  0.10338  0.88654  1.0000
  O   O525      1.0  0.89662  0.03229  0.88654  1.0000
  O   O526      1.0  0.86433  0.96771  0.61346  1.0000
  O   O527      1.0  0.10338  0.13567  0.61346  1.0000
  O   O528      1.0  0.03229  0.89662  0.61346  1.0000
  O   O529      1.0  0.30104  0.53100  0.55321  1.0000
  O   O530      1.0  0.46900  0.77005  0.55321  1.0000
  O   O531      1.0  0.22995  0.69896  0.55321  1.0000
  O   O532      1.0  0.19766  0.63438  0.28013  1.0000
  O   O533      1.0  0.43671  0.80234  0.28013  1.0000
  O   O534      1.0  0.36562  0.56329  0.28013  1.0000
  O   O535      1.0  0.63438  0.19766  0.21987  1.0000
  O   O536      1.0  0.80234  0.43671  0.21987  1.0000
  O   O537      1.0  0.56329  0.36562  0.21987  1.0000
  O   O538      1.0  0.53100  0.30104  0.94679  1.0000
  O   O539      1.0  0.77005  0.46900  0.94679  1.0000
  O   O540      1.0  0.69896  0.22995  0.94679  1.0000
  H   H109      1.0  0.97860  0.06480  0.11320  1.0000
  H   H110      1.0  0.93520  0.91380  0.11320  1.0000
  H   H111      1.0  0.08620  0.02140  0.11320  1.0000
  H   H112      1.0  0.06480  0.97860  0.38680  1.0000
  H   H113      1.0  0.91380  0.93520  0.38680  1.0000
  H   H114      1.0  0.02140  0.08620  0.38680  1.0000
  H   H115      1.0  0.64527  0.39813  0.44653  1.0000
  H   H116      1.0  0.60187  0.24713  0.44653  1.0000
  H   H117      1.0  0.75287  0.35473  0.44653  1.0000
  H   H118      1.0  0.73147  0.31193  0.72013  1.0000
  H   H119      1.0  0.58047  0.26853  0.72013  1.0000
  H   H120      1.0  0.68807  0.41953  0.72013  1.0000
  H   H121      1.0  0.31193  0.73147  0.77987  1.0000
  H   H122      1.0  0.26853  0.58047  0.77987  1.0000
  H   H123      1.0  0.41953  0.68807  0.77987  1.0000
  H   H124      1.0  0.39813  0.64527  0.05347  1.0000
  H   H125      1.0  0.24713  0.60187  0.05347  1.0000
  H   H126      1.0  0.35473  0.75287  0.05347  1.0000
  H   H127      1.0  0.02140  0.93520  0.88680  1.0000
  H   H128      1.0  0.06480  0.08620  0.88680  1.0000
  H   H129      1.0  0.91380  0.97860  0.88680  1.0000
  H   H130      1.0  0.93520  0.02140  0.61320  1.0000
  H   H131      1.0  0.08620  0.06480  0.61320  1.0000
  H   H132      1.0  0.97860  0.91380  0.61320  1.0000
  H   H133      1.0  0.35473  0.60187  0.55347  1.0000
  H   H134      1.0  0.39813  0.75287  0.55347  1.0000
  H   H135      1.0  0.24713  0.64527  0.55347  1.0000
  H   H136      1.0  0.26853  0.68807  0.27987  1.0000
  H   H137      1.0  0.41953  0.73147  0.27987  1.0000
  H   H138      1.0  0.31193  0.58047  0.27987  1.0000
  H   H139      1.0  0.68807  0.26853  0.22013  1.0000
  H   H140      1.0  0.73147  0.41953  0.22013  1.0000
  H   H141      1.0  0.58047  0.31193  0.22013  1.0000
  H   H142      1.0  0.60187  0.35473  0.94653  1.0000
  H   H143      1.0  0.75287  0.39813  0.94653  1.0000
  H   H144      1.0  0.64527  0.24713  0.94653  1.0000
  O   O541      1.0  0.03221  0.23515  0.11361  1.0000
  O   O542      1.0  0.76485  0.79706  0.11361  1.0000
  O   O543      1.0  0.20294  0.96779  0.11361  1.0000
  O   O544      1.0  0.23515  0.03221  0.38639  1.0000
  O   O545      1.0  0.79706  0.76485  0.38639  1.0000
  O   O546      1.0  0.96779  0.20294  0.38639  1.0000
  O   O547      1.0  0.69888  0.56848  0.44694  1.0000
  O   O548      1.0  0.43152  0.13039  0.44694  1.0000
  O   O549      1.0  0.86961  0.30112  0.44694  1.0000
  O   O550      1.0  0.90182  0.36554  0.71972  1.0000
  O   O551      1.0  0.46373  0.09818  0.71972  1.0000
  O   O552      1.0  0.63446  0.53627  0.71972  1.0000
  O   O553      1.0  0.36554  0.90182  0.78028  1.0000
  O   O554      1.0  0.09818  0.46373  0.78028  1.0000
  O   O555      1.0  0.53627  0.63446  0.78028  1.0000
  O   O556      1.0  0.56848  0.69888  0.05306  1.0000
  O   O557      1.0  0.13039  0.43152  0.05306  1.0000
  O   O558      1.0  0.30112  0.86961  0.05306  1.0000
  O   O559      1.0  0.96779  0.76485  0.88639  1.0000
  O   O560      1.0  0.23515  0.20294  0.88639  1.0000
  O   O561      1.0  0.79706  0.03221  0.88639  1.0000
  O   O562      1.0  0.76485  0.96779  0.61361  1.0000
  O   O563      1.0  0.20294  0.23515  0.61361  1.0000
  O   O564      1.0  0.03221  0.79706  0.61361  1.0000
  O   O565      1.0  0.30112  0.43152  0.55306  1.0000
  O   O566      1.0  0.56848  0.86961  0.55306  1.0000
  O   O567      1.0  0.13039  0.69888  0.55306  1.0000
  O   O568      1.0  0.09818  0.63446  0.28028  1.0000
  O   O569      1.0  0.53627  0.90182  0.28028  1.0000
  O   O570      1.0  0.36554  0.46373  0.28028  1.0000
  O   O571      1.0  0.63446  0.09818  0.21972  1.0000
  O   O572      1.0  0.90182  0.53627  0.21972  1.0000
  O   O573      1.0  0.46373  0.36554  0.21972  1.0000
  O   O574      1.0  0.43152  0.30112  0.94694  1.0000
  O   O575      1.0  0.86961  0.56848  0.94694  1.0000
  O   O576      1.0  0.69888  0.13039  0.94694  1.0000
  H   H145      1.0  0.09500  0.23820  0.12690  1.0000
  H   H146      1.0  0.76180  0.85680  0.12690  1.0000
  H   H147      1.0  0.14320  0.90500  0.12690  1.0000
  H   H148      1.0  0.23820  0.09500  0.37310  1.0000
  H   H149      1.0  0.85680  0.76180  0.37310  1.0000
  H   H150      1.0  0.90500  0.14320  0.37310  1.0000
  H   H151      1.0  0.76167  0.57153  0.46023  1.0000
  H   H152      1.0  0.42847  0.19013  0.46023  1.0000
  H   H153      1.0  0.80987  0.23833  0.46023  1.0000
  H   H154      1.0  0.90487  0.42833  0.70643  1.0000
  H   H155      1.0  0.52347  0.09513  0.70643  1.0000
  H   H156      1.0  0.57167  0.47653  0.70643  1.0000
  H   H157      1.0  0.42833  0.90487  0.79357  1.0000
  H   H158      1.0  0.09513  0.52347  0.79357  1.0000
  H   H159      1.0  0.47653  0.57167  0.79357  1.0000
  H   H160      1.0  0.57153  0.76167  0.03977  1.0000
  H   H161      1.0  0.19013  0.42847  0.03977  1.0000
  H   H162      1.0  0.23833  0.80987  0.03977  1.0000
  H   H163      1.0  0.90500  0.76180  0.87310  1.0000
  H   H164      1.0  0.23820  0.14320  0.87310  1.0000
  H   H165      1.0  0.85680  0.09500  0.87310  1.0000
  H   H166      1.0  0.76180  0.90500  0.62690  1.0000
  H   H167      1.0  0.14320  0.23820  0.62690  1.0000
  H   H168      1.0  0.09500  0.85680  0.62690  1.0000
  H   H169      1.0  0.23833  0.42847  0.53977  1.0000
  H   H170      1.0  0.57153  0.80987  0.53977  1.0000
  H   H171      1.0  0.19013  0.76167  0.53977  1.0000
  H   H172      1.0  0.09513  0.57167  0.29357  1.0000
  H   H173      1.0  0.47653  0.90487  0.29357  1.0000
  H   H174      1.0  0.42833  0.52347  0.29357  1.0000
  H   H175      1.0  0.57167  0.09513  0.20643  1.0000
  H   H176      1.0  0.90487  0.47653  0.20643  1.0000
  H   H177      1.0  0.52347  0.42833  0.20643  1.0000
  H   H178      1.0  0.42847  0.23833  0.96023  1.0000
  H   H179      1.0  0.80987  0.57153  0.96023  1.0000
  H   H180      1.0  0.76167  0.19013  0.96023  1.0000
  O   O577      1.0  0.26873  0.29644  0.11340  1.0000
  O   O578      1.0  0.70356  0.97229  0.11340  1.0000
  O   O579      1.0  0.02771  0.73127  0.11340  1.0000
  O   O580      1.0  0.29644  0.26873  0.38660  1.0000
  O   O581      1.0  0.97229  0.70356  0.38660  1.0000
  O   O582      1.0  0.73127  0.02771  0.38660  1.0000
  O   O583      1.0  0.93540  0.62977  0.44673  1.0000
  O   O584      1.0  0.37023  0.30562  0.44673  1.0000
  O   O585      1.0  0.69438  0.06460  0.44673  1.0000
  O   O586      1.0  0.96311  0.60206  0.71993  1.0000
  O   O587      1.0  0.63896  0.03689  0.71993  1.0000
  O   O588      1.0  0.39794  0.36104  0.71993  1.0000
  O   O589      1.0  0.60206  0.96311  0.78007  1.0000
  O   O590      1.0  0.03689  0.63896  0.78007  1.0000
  O   O591      1.0  0.36104  0.39794  0.78007  1.0000
  O   O592      1.0  0.62977  0.93540  0.05327  1.0000
  O   O593      1.0  0.30562  0.37023  0.05327  1.0000
  O   O594      1.0  0.06460  0.69438  0.05327  1.0000
  O   O595      1.0  0.73127  0.70356  0.88660  1.0000
  O   O596      1.0  0.29644  0.02771  0.88660  1.0000
  O   O597      1.0  0.97229  0.26873  0.88660  1.0000
  O   O598      1.0  0.70356  0.73127  0.61340  1.0000
  O   O599      1.0  0.02771  0.29644  0.61340  1.0000
  O   O600      1.0  0.26873  0.97229  0.61340  1.0000
  O   O601      1.0  0.06460  0.37023  0.55327  1.0000
  O   O602      1.0  0.62977  0.69438  0.55327  1.0000
  O   O603      1.0  0.30562  0.93540  0.55327  1.0000
  O   O604      1.0  0.03689  0.39794  0.28007  1.0000
  O   O605      1.0  0.36104  0.96311  0.28007  1.0000
  O   O606      1.0  0.60206  0.63896  0.28007  1.0000
  O   O607      1.0  0.39794  0.03689  0.21993  1.0000
  O   O608      1.0  0.96311  0.36104  0.21993  1.0000
  O   O609      1.0  0.63896  0.60206  0.21993  1.0000
  O   O610      1.0  0.37023  0.06460  0.94673  1.0000
  O   O611      1.0  0.69438  0.62977  0.94673  1.0000
  O   O612      1.0  0.93540  0.30562  0.94673  1.0000
  H   H181      1.0  0.25900  0.35470  0.12080  1.0000
  H   H182      1.0  0.64530  0.90430  0.12080  1.0000
  H   H183      1.0  0.09570  0.74100  0.12080  1.0000
  H   H184      1.0  0.35470  0.25900  0.37920  1.0000
  H   H185      1.0  0.90430  0.64530  0.37920  1.0000
  H   H186      1.0  0.74100  0.09570  0.37920  1.0000
  H   H187      1.0  0.92567  0.68803  0.45413  1.0000
  H   H188      1.0  0.31197  0.23763  0.45413  1.0000
  H   H189      1.0  0.76237  0.07433  0.45413  1.0000
  H   H190      1.0  0.02137  0.59233  0.71253  1.0000
  H   H191      1.0  0.57097  0.97863  0.71253  1.0000
  H   H192      1.0  0.40767  0.42903  0.71253  1.0000
  H   H193      1.0  0.59233  0.02137  0.78747  1.0000
  H   H194      1.0  0.97863  0.57097  0.78747  1.0000
  H   H195      1.0  0.42903  0.40767  0.78747  1.0000
  H   H196      1.0  0.68803  0.92567  0.04587  1.0000
  H   H197      1.0  0.23763  0.31197  0.04587  1.0000
  H   H198      1.0  0.07433  0.76237  0.04587  1.0000
  H   H199      1.0  0.74100  0.64530  0.87920  1.0000
  H   H200      1.0  0.35470  0.09570  0.87920  1.0000
  H   H201      1.0  0.90430  0.25900  0.87920  1.0000
  H   H202      1.0  0.64530  0.74100  0.62080  1.0000
  H   H203      1.0  0.09570  0.35470  0.62080  1.0000
  H   H204      1.0  0.25900  0.90430  0.62080  1.0000
  H   H205      1.0  0.07433  0.31197  0.54587  1.0000
  H   H206      1.0  0.68803  0.76237  0.54587  1.0000
  H   H207      1.0  0.23763  0.92567  0.54587  1.0000
  H   H208      1.0  0.97863  0.40767  0.28747  1.0000
  H   H209      1.0  0.42903  0.02137  0.28747  1.0000
  H   H210      1.0  0.59233  0.57097  0.28747  1.0000
  H   H211      1.0  0.40767  0.97863  0.21253  1.0000
  H   H212      1.0  0.02137  0.42903  0.21253  1.0000
  H   H213      1.0  0.57097  0.59233  0.21253  1.0000
  H   H214      1.0  0.31197  0.07433  0.95413  1.0000
  H   H215      1.0  0.76237  0.68803  0.95413  1.0000
  H   H216      1.0  0.92567  0.23763  0.95413  1.0000
  O   O613      1.0  0.30529  0.43046  0.21806  1.0000
  O   O614      1.0  0.56954  0.87483  0.21806  1.0000
  O   O615      1.0  0.12517  0.69471  0.21806  1.0000
  O   O616      1.0  0.43046  0.30529  0.28194  1.0000
  O   O617      1.0  0.87483  0.56954  0.28194  1.0000
  O   O618      1.0  0.69471  0.12517  0.28194  1.0000
  O   O619      1.0  0.97196  0.76379  0.55139  1.0000
  O   O620      1.0  0.23621  0.20816  0.55139  1.0000
  O   O621      1.0  0.79184  0.02804  0.55139  1.0000
  O   O622      1.0  0.09713  0.63862  0.61527  1.0000
  O   O623      1.0  0.54150  0.90287  0.61527  1.0000
  O   O624      1.0  0.36138  0.45850  0.61527  1.0000
  O   O625      1.0  0.63862  0.09713  0.88473  1.0000
  O   O626      1.0  0.90287  0.54150  0.88473  1.0000
  O   O627      1.0  0.45850  0.36138  0.88473  1.0000
  O   O628      1.0  0.76379  0.97196  0.94861  1.0000
  O   O629      1.0  0.20816  0.23621  0.94861  1.0000
  O   O630      1.0  0.02804  0.79184  0.94861  1.0000
  O   O631      1.0  0.69471  0.56954  0.78194  1.0000
  O   O632      1.0  0.43046  0.12517  0.78194  1.0000
  O   O633      1.0  0.87483  0.30529  0.78194  1.0000
  O   O634      1.0  0.56954  0.69471  0.71806  1.0000
  O   O635      1.0  0.12517  0.43046  0.71806  1.0000
  O   O636      1.0  0.30529  0.87483  0.71806  1.0000
  O   O637      1.0  0.02804  0.23621  0.44861  1.0000
  O   O638      1.0  0.76379  0.79184  0.44861  1.0000
  O   O639      1.0  0.20816  0.97196  0.44861  1.0000
  O   O640      1.0  0.90287  0.36138  0.38473  1.0000
  O   O641      1.0  0.45850  0.09713  0.38473  1.0000
  O   O642      1.0  0.63862  0.54150  0.38473  1.0000
  O   O643      1.0  0.36138  0.90287  0.11527  1.0000
  O   O644      1.0  0.09713  0.45850  0.11527  1.0000
  O   O645      1.0  0.54150  0.63862  0.11527  1.0000
  O   O646      1.0  0.23621  0.02804  0.05139  1.0000
  O   O647      1.0  0.79184  0.76379  0.05139  1.0000
  O   O648      1.0  0.97196  0.20816  0.05139  1.0000
  H   H217      1.0  0.23520  0.41620  0.21490  1.0000
  H   H218      1.0  0.58380  0.81900  0.21490  1.0000
  H   H219      1.0  0.18100  0.76480  0.21490  1.0000
  H   H220      1.0  0.41620  0.23520  0.28510  1.0000
  H   H221      1.0  0.81900  0.58380  0.28510  1.0000
  H   H222      1.0  0.76480  0.18100  0.28510  1.0000
  H   H223      1.0  0.90187  0.74953  0.54823  1.0000
  H   H224      1.0  0.25047  0.15233  0.54823  1.0000
  H   H225      1.0  0.84767  0.09813  0.54823  1.0000
  H   H226      1.0  0.08287  0.56853  0.61843  1.0000
  H   H227      1.0  0.48567  0.91713  0.61843  1.0000
  H   H228      1.0  0.43147  0.51433  0.61843  1.0000
  H   H229      1.0  0.56853  0.08287  0.88157  1.0000
  H   H230      1.0  0.91713  0.48567  0.88157  1.0000
  H   H231      1.0  0.51433  0.43147  0.88157  1.0000
  H   H232      1.0  0.74953  0.90187  0.95177  1.0000
  H   H233      1.0  0.15233  0.25047  0.95177  1.0000
  H   H234      1.0  0.09813  0.84767  0.95177  1.0000
  H   H235      1.0  0.76480  0.58380  0.78510  1.0000
  H   H236      1.0  0.41620  0.18100  0.78510  1.0000
  H   H237      1.0  0.81900  0.23520  0.78510  1.0000
  H   H238      1.0  0.58380  0.76480  0.71490  1.0000
  H   H239      1.0  0.18100  0.41620  0.71490  1.0000
  H   H240      1.0  0.23520  0.81900  0.71490  1.0000
  H   H241      1.0  0.09813  0.25047  0.45177  1.0000
  H   H242      1.0  0.74953  0.84767  0.45177  1.0000
  H   H243      1.0  0.15233  0.90187  0.45177  1.0000
  H   H244      1.0  0.91713  0.43147  0.38157  1.0000
  H   H245      1.0  0.51433  0.08287  0.38157  1.0000
  H   H246      1.0  0.56853  0.48567  0.38157  1.0000
  H   H247      1.0  0.43147  0.91713  0.11843  1.0000
  H   H248      1.0  0.08287  0.51433  0.11843  1.0000
  H   H249      1.0  0.48567  0.56853  0.11843  1.0000
  H   H250      1.0  0.25047  0.09813  0.04823  1.0000
  H   H251      1.0  0.84767  0.74953  0.04823  1.0000
  H   H252      1.0  0.90187  0.15233  0.04823  1.0000
  O   O649      1.0  0.06651  0.36457  0.21840  1.0000
  O   O650      1.0  0.63543  0.70194  0.21840  1.0000
  O   O651      1.0  0.29806  0.93349  0.21840  1.0000
  O   O652      1.0  0.36457  0.06651  0.28160  1.0000
  O   O653      1.0  0.70194  0.63543  0.28160  1.0000
  O   O654      1.0  0.93349  0.29806  0.28160  1.0000
  O   O655      1.0  0.73318  0.69790  0.55173  1.0000
  O   O656      1.0  0.30210  0.03527  0.55173  1.0000
  O   O657      1.0  0.96473  0.26682  0.55173  1.0000
  O   O658      1.0  0.03124  0.39984  0.61493  1.0000
  O   O659      1.0  0.36861  0.96876  0.61493  1.0000
  O   O660      1.0  0.60016  0.63139  0.61493  1.0000
  O   O661      1.0  0.39984  0.03124  0.88507  1.0000
  O   O662      1.0  0.96876  0.36861  0.88507  1.0000
  O   O663      1.0  0.63139  0.60016  0.88507  1.0000
  O   O664      1.0  0.69790  0.73318  0.94827  1.0000
  O   O665      1.0  0.03527  0.30210  0.94827  1.0000
  O   O666      1.0  0.26682  0.96473  0.94827  1.0000
  O   O667      1.0  0.93349  0.63543  0.78160  1.0000
  O   O668      1.0  0.36457  0.29806  0.78160  1.0000
  O   O669      1.0  0.70194  0.06651  0.78160  1.0000
  O   O670      1.0  0.63543  0.93349  0.71840  1.0000
  O   O671      1.0  0.29806  0.36457  0.71840  1.0000
  O   O672      1.0  0.06651  0.70194  0.71840  1.0000
  O   O673      1.0  0.26682  0.30210  0.44827  1.0000
  O   O674      1.0  0.69790  0.96473  0.44827  1.0000
  O   O675      1.0  0.03527  0.73318  0.44827  1.0000
  O   O676      1.0  0.96876  0.60016  0.38507  1.0000
  O   O677      1.0  0.63139  0.03124  0.38507  1.0000
  O   O678      1.0  0.39984  0.36861  0.38507  1.0000
  O   O679      1.0  0.60016  0.96876  0.11493  1.0000
  O   O680      1.0  0.03124  0.63139  0.11493  1.0000
  O   O681      1.0  0.36861  0.39984  0.11493  1.0000
  O   O682      1.0  0.30210  0.26682  0.05173  1.0000
  O   O683      1.0  0.96473  0.69790  0.05173  1.0000
  O   O684      1.0  0.73318  0.03527  0.05173  1.0000
  H   H253      1.0  0.08400  0.31110  0.21990  1.0000
  H   H254      1.0  0.68890  0.77290  0.21990  1.0000
  H   H255      1.0  0.22710  0.91600  0.21990  1.0000
  H   H256      1.0  0.31110  0.08400  0.28010  1.0000
  H   H257      1.0  0.77290  0.68890  0.28010  1.0000
  H   H258      1.0  0.91600  0.22710  0.28010  1.0000
  H   H259      1.0  0.75067  0.64443  0.55323  1.0000
  H   H260      1.0  0.35557  0.10623  0.55323  1.0000
  H   H261      1.0  0.89377  0.24933  0.55323  1.0000
  H   H262      1.0  0.97777  0.41733  0.61343  1.0000
  H   H263      1.0  0.43957  0.02223  0.61343  1.0000
  H   H264      1.0  0.58267  0.56043  0.61343  1.0000
  H   H265      1.0  0.41733  0.97777  0.88657  1.0000
  H   H266      1.0  0.02223  0.43957  0.88657  1.0000
  H   H267      1.0  0.56043  0.58267  0.88657  1.0000
  H   H268      1.0  0.64443  0.75067  0.94677  1.0000
  H   H269      1.0  0.10623  0.35557  0.94677  1.0000
  H   H270      1.0  0.24933  0.89377  0.94677  1.0000
  H   H271      1.0  0.91600  0.68890  0.78010  1.0000
  H   H272      1.0  0.31110  0.22710  0.78010  1.0000
  H   H273      1.0  0.77290  0.08400  0.78010  1.0000
  H   H274      1.0  0.68890  0.91600  0.71990  1.0000
  H   H275      1.0  0.22710  0.31110  0.71990  1.0000
  H   H276      1.0  0.08400  0.77290  0.71990  1.0000
  H   H277      1.0  0.24933  0.35557  0.44677  1.0000
  H   H278      1.0  0.64443  0.89377  0.44677  1.0000
  H   H279      1.0  0.10623  0.75067  0.44677  1.0000
  H   H280      1.0  0.02223  0.58267  0.38657  1.0000
  H   H281      1.0  0.56043  0.97777  0.38657  1.0000
  H   H282      1.0  0.41733  0.43957  0.38657  1.0000
  H   H283      1.0  0.58267  0.02223  0.11343  1.0000
  H   H284      1.0  0.97777  0.56043  0.11343  1.0000
  H   H285      1.0  0.43957  0.41733  0.11343  1.0000
  H   H286      1.0  0.35557  0.24933  0.05323  1.0000
  H   H287      1.0  0.89377  0.64443  0.05323  1.0000
  H   H288      1.0  0.75067  0.10623  0.05323  1.0000
  O   O685      1.0  0.37220  0.30350  0.11481  1.0000
  O   O686      1.0  0.69650  0.06870  0.11481  1.0000
  O   O687      1.0  0.93130  0.62780  0.11481  1.0000
  O   O688      1.0  0.30350  0.37220  0.38519  1.0000
  O   O689      1.0  0.06870  0.69650  0.38519  1.0000
  O   O690      1.0  0.62780  0.93130  0.38519  1.0000
  O   O691      1.0  0.03887  0.63683  0.44814  1.0000
  O   O692      1.0  0.36317  0.40203  0.44814  1.0000
  O   O693      1.0  0.59797  0.96113  0.44814  1.0000
  O   O694      1.0  0.97017  0.70553  0.71852  1.0000
  O   O695      1.0  0.73537  0.02983  0.71852  1.0000
  O   O696      1.0  0.29447  0.26463  0.71852  1.0000
  O   O697      1.0  0.70553  0.97017  0.78148  1.0000
  O   O698      1.0  0.02983  0.73537  0.78148  1.0000
  O   O699      1.0  0.26463  0.29447  0.78148  1.0000
  O   O700      1.0  0.63683  0.03887  0.05186  1.0000
  O   O701      1.0  0.40203  0.36317  0.05186  1.0000
  O   O702      1.0  0.96113  0.59797  0.05186  1.0000
  O   O703      1.0  0.62780  0.69650  0.88519  1.0000
  O   O704      1.0  0.30350  0.93130  0.88519  1.0000
  O   O705      1.0  0.06870  0.37220  0.88519  1.0000
  O   O706      1.0  0.69650  0.62780  0.61481  1.0000
  O   O707      1.0  0.93130  0.30350  0.61481  1.0000
  O   O708      1.0  0.37220  0.06870  0.61481  1.0000
  O   O709      1.0  0.96113  0.36317  0.55186  1.0000
  O   O710      1.0  0.63683  0.59797  0.55186  1.0000
  O   O711      1.0  0.40203  0.03887  0.55186  1.0000
  O   O712      1.0  0.02983  0.29447  0.28148  1.0000
  O   O713      1.0  0.26463  0.97017  0.28148  1.0000
  O   O714      1.0  0.70553  0.73537  0.28148  1.0000
  O   O715      1.0  0.29447  0.02983  0.21852  1.0000
  O   O716      1.0  0.97017  0.26463  0.21852  1.0000
  O   O717      1.0  0.73537  0.70553  0.21852  1.0000
  O   O718      1.0  0.36317  0.96113  0.94814  1.0000
  O   O719      1.0  0.59797  0.63683  0.94814  1.0000
  O   O720      1.0  0.03887  0.40203  0.94814  1.0000
  H   H289      1.0  0.31500  0.23520  0.11950  1.0000
  H   H290      1.0  0.76480  0.07980  0.11950  1.0000
  H   H291      1.0  0.92020  0.68500  0.11950  1.0000
  H   H292      1.0  0.23520  0.31500  0.38050  1.0000
  H   H293      1.0  0.07980  0.76480  0.38050  1.0000
  H   H294      1.0  0.68500  0.92020  0.38050  1.0000
  H   H295      1.0  0.98167  0.56853  0.45283  1.0000
  H   H296      1.0  0.43147  0.41313  0.45283  1.0000
  H   H297      1.0  0.58687  0.01833  0.45283  1.0000
  H   H298      1.0  0.90187  0.64833  0.71383  1.0000
  H   H299      1.0  0.74647  0.09813  0.71383  1.0000
  H   H300      1.0  0.35167  0.25353  0.71383  1.0000
  H   H301      1.0  0.64833  0.90187  0.78617  1.0000
  H   H302      1.0  0.09813  0.74647  0.78617  1.0000
  H   H303      1.0  0.25353  0.35167  0.78617  1.0000
  H   H304      1.0  0.56853  0.98167  0.04717  1.0000
  H   H305      1.0  0.41313  0.43147  0.04717  1.0000
  H   H306      1.0  0.01833  0.58687  0.04717  1.0000
  H   H307      1.0  0.68500  0.76480  0.88050  1.0000
  H   H308      1.0  0.23520  0.92020  0.88050  1.0000
  H   H309      1.0  0.07980  0.31500  0.88050  1.0000
  H   H310      1.0  0.76480  0.68500  0.61950  1.0000
  H   H311      1.0  0.92020  0.23520  0.61950  1.0000
  H   H312      1.0  0.31500  0.07980  0.61950  1.0000
  H   H313      1.0  0.01833  0.43147  0.54717  1.0000
  H   H314      1.0  0.56853  0.58687  0.54717  1.0000
  H   H315      1.0  0.41313  0.98167  0.54717  1.0000
  H   H316      1.0  0.09813  0.35167  0.28617  1.0000
  H   H317      1.0  0.25353  0.90187  0.28617  1.0000
  H   H318      1.0  0.64833  0.74647  0.28617  1.0000
  H   H319      1.0  0.35167  0.09813  0.21383  1.0000
  H   H320      1.0  0.90187  0.25353  0.21383  1.0000
  H   H321      1.0  0.74647  0.64833  0.21383  1.0000
  H   H322      1.0  0.43147  0.01833  0.95283  1.0000
  H   H323      1.0  0.58687  0.56853  0.95283  1.0000
  H   H324      1.0  0.98167  0.41313  0.95283  1.0000
  O   O721      1.0  0.20184  0.06828  0.11030  1.0000
  O   O722      1.0  0.93172  0.13356  0.11030  1.0000
  O   O723      1.0  0.86644  0.79816  0.11030  1.0000
  O   O724      1.0  0.06828  0.20184  0.38970  1.0000
  O   O725      1.0  0.13356  0.93172  0.38970  1.0000
  O   O726      1.0  0.79816  0.86644  0.38970  1.0000
  O   O727      1.0  0.86851  0.40161  0.44363  1.0000
  O   O728      1.0  0.59839  0.46689  0.44363  1.0000
  O   O729      1.0  0.53311  0.13149  0.44363  1.0000
  O   O730      1.0  0.73495  0.53517  0.72303  1.0000
  O   O731      1.0  0.80023  0.26505  0.72303  1.0000
  O   O732      1.0  0.46483  0.19977  0.72303  1.0000
  O   O733      1.0  0.53517  0.73495  0.77697  1.0000
  O   O734      1.0  0.26505  0.80023  0.77697  1.0000
  O   O735      1.0  0.19977  0.46483  0.77697  1.0000
  O   O736      1.0  0.40161  0.86851  0.05637  1.0000
  O   O737      1.0  0.46689  0.59839  0.05637  1.0000
  O   O738      1.0  0.13149  0.53311  0.05637  1.0000
  O   O739      1.0  0.79816  0.93172  0.88970  1.0000
  O   O740      1.0  0.06828  0.86644  0.88970  1.0000
  O   O741      1.0  0.13356  0.20184  0.88970  1.0000
  O   O742      1.0  0.93172  0.79816  0.61030  1.0000
  O   O743      1.0  0.86644  0.06828  0.61030  1.0000
  O   O744      1.0  0.20184  0.13356  0.61030  1.0000
  O   O745      1.0  0.13149  0.59839  0.55637  1.0000
  O   O746      1.0  0.40161  0.53311  0.55637  1.0000
  O   O747      1.0  0.46689  0.86851  0.55637  1.0000
  O   O748      1.0  0.26505  0.46483  0.27697  1.0000
  O   O749      1.0  0.19977  0.73495  0.27697  1.0000
  O   O750      1.0  0.53517  0.80023  0.27697  1.0000
  O   O751      1.0  0.46483  0.26505  0.22303  1.0000
  O   O752      1.0  0.73495  0.19977  0.22303  1.0000
  O   O753      1.0  0.80023  0.53517  0.22303  1.0000
  O   O754      1.0  0.59839  0.13149  0.94363  1.0000
  O   O755      1.0  0.53311  0.40161  0.94363  1.0000
  O   O756      1.0  0.86851  0.46689  0.94363  1.0000
  H   H325      1.0  0.26760  0.07630  0.12070  1.0000
  H   H326      1.0  0.92370  0.19130  0.12070  1.0000
  H   H327      1.0  0.80870  0.73240  0.12070  1.0000
  H   H328      1.0  0.07630  0.26760  0.37930  1.0000
  H   H329      1.0  0.19130  0.92370  0.37930  1.0000
  H   H330      1.0  0.73240  0.80870  0.37930  1.0000
  H   H331      1.0  0.93427  0.40963  0.45403  1.0000
  H   H332      1.0  0.59037  0.52463  0.45403  1.0000
  H   H333      1.0  0.47537  0.06573  0.45403  1.0000
  H   H334      1.0  0.74297  0.60093  0.71263  1.0000
  H   H335      1.0  0.85797  0.25703  0.71263  1.0000
  H   H336      1.0  0.39907  0.14203  0.71263  1.0000
  H   H337      1.0  0.60093  0.74297  0.78737  1.0000
  H   H338      1.0  0.25703  0.85797  0.78737  1.0000
  H   H339      1.0  0.14203  0.39907  0.78737  1.0000
  H   H340      1.0  0.40963  0.93427  0.04597  1.0000
  H   H341      1.0  0.52463  0.59037  0.04597  1.0000
  H   H342      1.0  0.06573  0.47537  0.04597  1.0000
  H   H343      1.0  0.73240  0.92370  0.87930  1.0000
  H   H344      1.0  0.07630  0.80870  0.87930  1.0000
  H   H345      1.0  0.19130  0.26760  0.87930  1.0000
  H   H346      1.0  0.92370  0.73240  0.62070  1.0000
  H   H347      1.0  0.80870  0.07630  0.62070  1.0000
  H   H348      1.0  0.26760  0.19130  0.62070  1.0000
  H   H349      1.0  0.06573  0.59037  0.54597  1.0000
  H   H350      1.0  0.40963  0.47537  0.54597  1.0000
  H   H351      1.0  0.52463  0.93427  0.54597  1.0000
  H   H352      1.0  0.25703  0.39907  0.28737  1.0000
  H   H353      1.0  0.14203  0.74297  0.28737  1.0000
  H   H354      1.0  0.60093  0.85797  0.28737  1.0000
  H   H355      1.0  0.39907  0.25703  0.21263  1.0000
  H   H356      1.0  0.74297  0.14203  0.21263  1.0000
  H   H357      1.0  0.85797  0.60093  0.21263  1.0000
  H   H358      1.0  0.59037  0.06573  0.95403  1.0000
  H   H359      1.0  0.47537  0.40963  0.95403  1.0000
  H   H360      1.0  0.93427  0.52463  0.95403  1.0000
  Zn  Zn85      1.0  0.00036  0.16873  0.08240  1.0000
  Zn  Zn86      1.0  0.83127  0.83162  0.08240  1.0000
  Zn  Zn87      1.0  0.16838  0.99965  0.08240  1.0000
  Zn  Zn88      1.0  0.16873  0.00036  0.41760  1.0000
  Zn  Zn89      1.0  0.83162  0.83127  0.41760  1.0000
  Zn  Zn90      1.0  0.99965  0.16838  0.41760  1.0000
  Zn  Zn91      1.0  0.66702  0.50207  0.41573  1.0000
  Zn  Zn92      1.0  0.49793  0.16496  0.41573  1.0000
  Zn  Zn93      1.0  0.83504  0.33298  0.41573  1.0000
  Zn  Zn94      1.0  0.83540  0.33369  0.75094  1.0000
  Zn  Zn95      1.0  0.49829  0.16460  0.75094  1.0000
  Zn  Zn96      1.0  0.66631  0.50171  0.75094  1.0000
  Zn  Zn97      1.0  0.33369  0.83540  0.74906  1.0000
  Zn  Zn98      1.0  0.16460  0.49829  0.74906  1.0000
  Zn  Zn99      1.0  0.50171  0.66631  0.74906  1.0000
  Zn  Zn100     1.0  0.50207  0.66702  0.08427  1.0000
  Zn  Zn101     1.0  0.16496  0.49793  0.08427  1.0000
  Zn  Zn102     1.0  0.33298  0.83504  0.08427  1.0000
  Zn  Zn103     1.0  0.99965  0.83127  0.91760  1.0000
  Zn  Zn104     1.0  0.16873  0.16838  0.91760  1.0000
  Zn  Zn105     1.0  0.83162  0.00036  0.91760  1.0000
  Zn  Zn106     1.0  0.83127  0.99965  0.58240  1.0000
  Zn  Zn107     1.0  0.16838  0.16873  0.58240  1.0000
  Zn  Zn108     1.0  0.00036  0.83162  0.58240  1.0000
  Zn  Zn109     1.0  0.33298  0.49793  0.58427  1.0000
  Zn  Zn110     1.0  0.50207  0.83504  0.58427  1.0000
  Zn  Zn111     1.0  0.16496  0.66702  0.58427  1.0000
  Zn  Zn112     1.0  0.16460  0.66631  0.24906  1.0000
  Zn  Zn113     1.0  0.50171  0.83540  0.24906  1.0000
  Zn  Zn114     1.0  0.33369  0.49829  0.24906  1.0000
  Zn  Zn115     1.0  0.66631  0.16460  0.25094  1.0000
  Zn  Zn116     1.0  0.83540  0.50171  0.25094  1.0000
  Zn  Zn117     1.0  0.49829  0.33369  0.25094  1.0000
  Zn  Zn118     1.0  0.49793  0.33298  0.91573  1.0000
  Zn  Zn119     1.0  0.83504  0.50207  0.91573  1.0000
  Zn  Zn120     1.0  0.66702  0.16496  0.91573  1.0000
  Zn  Zn121     1.0  0.33731  0.33330  0.08330  1.0000
  Zn  Zn122     1.0  0.66670  0.00401  0.08330  1.0000
  Zn  Zn123     1.0  0.99599  0.66269  0.08330  1.0000
  Zn  Zn124     1.0  0.33330  0.33731  0.41670  1.0000
  Zn  Zn125     1.0  0.00401  0.66670  0.41670  1.0000
  Zn  Zn126     1.0  0.66269  0.99599  0.41670  1.0000
  Zn  Zn127     1.0  0.99997  0.67064  0.75003  1.0000
  Zn  Zn128     1.0  0.67067  0.00003  0.75003  1.0000
  Zn  Zn129     1.0  0.32936  0.32933  0.75003  1.0000
  Zn  Zn130     1.0  0.66269  0.66670  0.91670  1.0000
  Zn  Zn131     1.0  0.33330  0.99599  0.91670  1.0000
  Zn  Zn132     1.0  0.00401  0.33731  0.91670  1.0000
  Zn  Zn133     1.0  0.66670  0.66269  0.58330  1.0000
  Zn  Zn134     1.0  0.99599  0.33330  0.58330  1.0000
  Zn  Zn135     1.0  0.33731  0.00401  0.58330  1.0000
  Zn  Zn136     1.0  0.00003  0.32936  0.24997  1.0000
  Zn  Zn137     1.0  0.32933  0.99997  0.24997  1.0000
  Zn  Zn138     1.0  0.67064  0.67067  0.24997  1.0000
  O   O757      1.0  0.96417  0.10228  0.04990  1.0000
  O   O758      1.0  0.89772  0.86189  0.04990  1.0000
  O   O759      1.0  0.13811  0.03583  0.04990  1.0000
  O   O760      1.0  0.10228  0.96417  0.45010  1.0000
  O   O761      1.0  0.86189  0.89772  0.45010  1.0000
  O   O762      1.0  0.03583  0.13811  0.45010  1.0000
  O   O763      1.0  0.63084  0.43561  0.38323  1.0000
  O   O764      1.0  0.56439  0.19522  0.38323  1.0000
  O   O765      1.0  0.80478  0.36916  0.38323  1.0000
  O   O766      1.0  0.76895  0.29750  0.78343  1.0000
  O   O767      1.0  0.52856  0.23105  0.78343  1.0000
  O   O768      1.0  0.70250  0.47144  0.78343  1.0000
  O   O769      1.0  0.29750  0.76895  0.71657  1.0000
  O   O770      1.0  0.23105  0.52856  0.71657  1.0000
  O   O771      1.0  0.47144  0.70250  0.71657  1.0000
  O   O772      1.0  0.43561  0.63084  0.11677  1.0000
  O   O773      1.0  0.19522  0.56439  0.11677  1.0000
  O   O774      1.0  0.36916  0.80478  0.11677  1.0000
  O   O775      1.0  0.03583  0.89772  0.95010  1.0000
  O   O776      1.0  0.10228  0.13811  0.95010  1.0000
  O   O777      1.0  0.86189  0.96417  0.95010  1.0000
  O   O778      1.0  0.89772  0.03583  0.54990  1.0000
  O   O779      1.0  0.13811  0.10228  0.54990  1.0000
  O   O780      1.0  0.96417  0.86189  0.54990  1.0000
  O   O781      1.0  0.36916  0.56439  0.61677  1.0000
  O   O782      1.0  0.43561  0.80478  0.61677  1.0000
  O   O783      1.0  0.19522  0.63084  0.61677  1.0000
  O   O784      1.0  0.23105  0.70250  0.21657  1.0000
  O   O785      1.0  0.47144  0.76895  0.21657  1.0000
  O   O786      1.0  0.29750  0.52856  0.21657  1.0000
  O   O787      1.0  0.70250  0.23105  0.28343  1.0000
  O   O788      1.0  0.76895  0.47144  0.28343  1.0000
  O   O789      1.0  0.52856  0.29750  0.28343  1.0000
  O   O790      1.0  0.56439  0.36916  0.88323  1.0000
  O   O791      1.0  0.80478  0.43561  0.88323  1.0000
  O   O792      1.0  0.63084  0.19522  0.88323  1.0000
  O   O793      1.0  0.06526  0.20014  0.05021  1.0000
  O   O794      1.0  0.79986  0.86512  0.05021  1.0000
  O   O795      1.0  0.13488  0.93474  0.05021  1.0000
  O   O796      1.0  0.20014  0.06526  0.44979  1.0000
  O   O797      1.0  0.86512  0.79986  0.44979  1.0000
  O   O798      1.0  0.93474  0.13488  0.44979  1.0000
  O   O799      1.0  0.73193  0.53347  0.38354  1.0000
  O   O800      1.0  0.46653  0.19845  0.38354  1.0000
  O   O801      1.0  0.80155  0.26807  0.38354  1.0000
  O   O802      1.0  0.86681  0.39859  0.78312  1.0000
  O   O803      1.0  0.53179  0.13319  0.78312  1.0000
  O   O804      1.0  0.60141  0.46821  0.78312  1.0000
  O   O805      1.0  0.39859  0.86681  0.71688  1.0000
  O   O806      1.0  0.13319  0.53179  0.71688  1.0000
  O   O807      1.0  0.46821  0.60141  0.71688  1.0000
  O   O808      1.0  0.53347  0.73193  0.11646  1.0000
  O   O809      1.0  0.19845  0.46653  0.11646  1.0000
  O   O810      1.0  0.26807  0.80155  0.11646  1.0000
  O   O811      1.0  0.93474  0.79986  0.94979  1.0000
  O   O812      1.0  0.20014  0.13488  0.94979  1.0000
  O   O813      1.0  0.86512  0.06526  0.94979  1.0000
  O   O814      1.0  0.79986  0.93474  0.55021  1.0000
  O   O815      1.0  0.13488  0.20014  0.55021  1.0000
  O   O816      1.0  0.06526  0.86512  0.55021  1.0000
  O   O817      1.0  0.26807  0.46653  0.61646  1.0000
  O   O818      1.0  0.53347  0.80155  0.61646  1.0000
  O   O819      1.0  0.19845  0.73193  0.61646  1.0000
  O   O820      1.0  0.13319  0.60141  0.21688  1.0000
  O   O821      1.0  0.46821  0.86681  0.21688  1.0000
  O   O822      1.0  0.39859  0.53179  0.21688  1.0000
  O   O823      1.0  0.60141  0.13319  0.28312  1.0000
  O   O824      1.0  0.86681  0.46821  0.28312  1.0000
  O   O825      1.0  0.53179  0.39859  0.28312  1.0000
  O   O826      1.0  0.46653  0.26807  0.88354  1.0000
  O   O827      1.0  0.80155  0.53347  0.88354  1.0000
  O   O828      1.0  0.73193  0.19845  0.88354  1.0000
  C   C361      1.0  0.98566  0.07631  0.04091  1.0000
  C   C362      1.0  0.92369  0.90935  0.04091  1.0000
  C   C363      1.0  0.09065  0.01434  0.04091  1.0000
  C   C364      1.0  0.07631  0.98566  0.45909  1.0000
  C   C365      1.0  0.90935  0.92369  0.45909  1.0000
  C   C366      1.0  0.01434  0.09065  0.45909  1.0000
  C   C367      1.0  0.65233  0.40964  0.37424  1.0000
  C   C368      1.0  0.59036  0.24268  0.37424  1.0000
  C   C369      1.0  0.75732  0.34767  0.37424  1.0000
  C   C370      1.0  0.74298  0.31899  0.79242  1.0000
  C   C371      1.0  0.57602  0.25702  0.79242  1.0000
  C   C372      1.0  0.68101  0.42398  0.79242  1.0000
  C   C373      1.0  0.31899  0.74298  0.70758  1.0000
  C   C374      1.0  0.25702  0.57602  0.70758  1.0000
  C   C375      1.0  0.42398  0.68101  0.70758  1.0000
  C   C376      1.0  0.40964  0.65233  0.12576  1.0000
  C   C377      1.0  0.24268  0.59036  0.12576  1.0000
  C   C378      1.0  0.34767  0.75732  0.12576  1.0000
  C   C379      1.0  0.01434  0.92369  0.95909  1.0000
  C   C380      1.0  0.07631  0.09065  0.95909  1.0000
  C   C381      1.0  0.90935  0.98566  0.95909  1.0000
  C   C382      1.0  0.92369  0.01434  0.54091  1.0000
  C   C383      1.0  0.09065  0.07631  0.54091  1.0000
  C   C384      1.0  0.98566  0.90935  0.54091  1.0000
  C   C385      1.0  0.34767  0.59036  0.62576  1.0000
  C   C386      1.0  0.40964  0.75732  0.62576  1.0000
  C   C387      1.0  0.24268  0.65233  0.62576  1.0000
  C   C388      1.0  0.25702  0.68101  0.20758  1.0000
  C   C389      1.0  0.42398  0.74298  0.20758  1.0000
  C   C390      1.0  0.31899  0.57602  0.20758  1.0000
  C   C391      1.0  0.68101  0.25702  0.29242  1.0000
  C   C392      1.0  0.74298  0.42398  0.29242  1.0000
  C   C393      1.0  0.57602  0.31899  0.29242  1.0000
  C   C394      1.0  0.59036  0.34767  0.87424  1.0000
  C   C395      1.0  0.75732  0.40964  0.87424  1.0000
  C   C396      1.0  0.65233  0.24268  0.87424  1.0000
  C   C397      1.0  0.09861  0.24760  0.04603  1.0000
  C   C398      1.0  0.75240  0.85101  0.04603  1.0000
  C   C399      1.0  0.14899  0.90139  0.04603  1.0000
  C   C400      1.0  0.24760  0.09861  0.45397  1.0000
  C   C401      1.0  0.85101  0.75240  0.45397  1.0000
  C   C402      1.0  0.90139  0.14899  0.45397  1.0000
  C   C403      1.0  0.76528  0.58093  0.37936  1.0000
  C   C404      1.0  0.41907  0.18434  0.37936  1.0000
  C   C405      1.0  0.81566  0.23472  0.37936  1.0000
  C   C406      1.0  0.91427  0.43194  0.78730  1.0000
  C   C407      1.0  0.51768  0.08573  0.78730  1.0000
  C   C408      1.0  0.56806  0.48232  0.78730  1.0000
  C   C409      1.0  0.43194  0.91427  0.71270  1.0000
  C   C410      1.0  0.08573  0.51768  0.71270  1.0000
  C   C411      1.0  0.48232  0.56806  0.71270  1.0000
  C   C412      1.0  0.58093  0.76528  0.12064  1.0000
  C   C413      1.0  0.18434  0.41907  0.12064  1.0000
  C   C414      1.0  0.23472  0.81566  0.12064  1.0000
  C   C415      1.0  0.90139  0.75240  0.95397  1.0000
  C   C416      1.0  0.24760  0.14899  0.95397  1.0000
  C   C417      1.0  0.85101  0.09861  0.95397  1.0000
  C   C418      1.0  0.75240  0.90139  0.54603  1.0000
  C   C419      1.0  0.14899  0.24760  0.54603  1.0000
  C   C420      1.0  0.09861  0.85101  0.54603  1.0000
  C   C421      1.0  0.23472  0.41907  0.62064  1.0000
  C   C422      1.0  0.58093  0.81566  0.62064  1.0000
  C   C423      1.0  0.18434  0.76528  0.62064  1.0000
  C   C424      1.0  0.08573  0.56806  0.21270  1.0000
  C   C425      1.0  0.48232  0.91427  0.21270  1.0000
  C   C426      1.0  0.43194  0.51768  0.21270  1.0000
  C   C427      1.0  0.56806  0.08573  0.28730  1.0000
  C   C428      1.0  0.91427  0.48232  0.28730  1.0000
  C   C429      1.0  0.51768  0.43194  0.28730  1.0000
  C   C430      1.0  0.41907  0.23472  0.87936  1.0000
  C   C431      1.0  0.81566  0.58093  0.87936  1.0000
  C   C432      1.0  0.76528  0.18434  0.87936  1.0000
  O   O829      1.0  0.96181  0.03177  0.02798  1.0000
  O   O830      1.0  0.96823  0.93004  0.02798  1.0000
  O   O831      1.0  0.06996  0.03819  0.02798  1.0000
  O   O832      1.0  0.03177  0.96181  0.47202  1.0000
  O   O833      1.0  0.93004  0.96823  0.47202  1.0000
  O   O834      1.0  0.03819  0.06996  0.47202  1.0000
  O   O835      1.0  0.62848  0.36510  0.36131  1.0000
  O   O836      1.0  0.63490  0.26337  0.36131  1.0000
  O   O837      1.0  0.73663  0.37152  0.36131  1.0000
  O   O838      1.0  0.69844  0.29514  0.80535  1.0000
  O   O839      1.0  0.59671  0.30156  0.80535  1.0000
  O   O840      1.0  0.70486  0.40329  0.80535  1.0000
  O   O841      1.0  0.29514  0.69844  0.69465  1.0000
  O   O842      1.0  0.30156  0.59671  0.69465  1.0000
  O   O843      1.0  0.40329  0.70486  0.69465  1.0000
  O   O844      1.0  0.36510  0.62848  0.13869  1.0000
  O   O845      1.0  0.26337  0.63490  0.13869  1.0000
  O   O846      1.0  0.37152  0.73663  0.13869  1.0000
  O   O847      1.0  0.03819  0.96823  0.97202  1.0000
  O   O848      1.0  0.03177  0.06996  0.97202  1.0000
  O   O849      1.0  0.93004  0.96181  0.97202  1.0000
  O   O850      1.0  0.96823  0.03819  0.52798  1.0000
  O   O851      1.0  0.06996  0.03177  0.52798  1.0000
  O   O852      1.0  0.96181  0.93004  0.52798  1.0000
  O   O853      1.0  0.37152  0.63490  0.63869  1.0000
  O   O854      1.0  0.36510  0.73663  0.63869  1.0000
  O   O855      1.0  0.26337  0.62848  0.63869  1.0000
  O   O856      1.0  0.30156  0.70486  0.19465  1.0000
  O   O857      1.0  0.40329  0.69844  0.19465  1.0000
  O   O858      1.0  0.29514  0.59671  0.19465  1.0000
  O   O859      1.0  0.70486  0.30156  0.30535  1.0000
  O   O860      1.0  0.69844  0.40329  0.30535  1.0000
  O   O861      1.0  0.59671  0.29514  0.30535  1.0000
  O   O862      1.0  0.63490  0.37152  0.86131  1.0000
  O   O863      1.0  0.73663  0.36510  0.86131  1.0000
  O   O864      1.0  0.62848  0.26337  0.86131  1.0000
  H   H361      1.0  0.02220  0.09170  0.04420  1.0000
  H   H362      1.0  0.90830  0.93050  0.04420  1.0000
  H   H363      1.0  0.06950  0.97780  0.04420  1.0000
  H   H364      1.0  0.09170  0.02220  0.45580  1.0000
  H   H365      1.0  0.93050  0.90830  0.45580  1.0000
  H   H366      1.0  0.97780  0.06950  0.45580  1.0000
  H   H367      1.0  0.68887  0.42503  0.37753  1.0000
  H   H368      1.0  0.57497  0.26383  0.37753  1.0000
  H   H369      1.0  0.73617  0.31113  0.37753  1.0000
  H   H370      1.0  0.75837  0.35553  0.78913  1.0000
  H   H371      1.0  0.59717  0.24163  0.78913  1.0000
  H   H372      1.0  0.64447  0.40283  0.78913  1.0000
  H   H373      1.0  0.35553  0.75837  0.71087  1.0000
  H   H374      1.0  0.24163  0.59717  0.71087  1.0000
  H   H375      1.0  0.40283  0.64447  0.71087  1.0000
  H   H376      1.0  0.42503  0.68887  0.12247  1.0000
  H   H377      1.0  0.26383  0.57497  0.12247  1.0000
  H   H378      1.0  0.31113  0.73617  0.12247  1.0000
  H   H379      1.0  0.97780  0.90830  0.95580  1.0000
  H   H380      1.0  0.09170  0.06950  0.95580  1.0000
  H   H381      1.0  0.93050  0.02220  0.95580  1.0000
  H   H382      1.0  0.90830  0.97780  0.54420  1.0000
  H   H383      1.0  0.06950  0.09170  0.54420  1.0000
  H   H384      1.0  0.02220  0.93050  0.54420  1.0000
  H   H385      1.0  0.31113  0.57497  0.62247  1.0000
  H   H386      1.0  0.42503  0.73617  0.62247  1.0000
  H   H387      1.0  0.26383  0.68887  0.62247  1.0000
  H   H388      1.0  0.24163  0.64447  0.21087  1.0000
  H   H389      1.0  0.40283  0.75837  0.21087  1.0000
  H   H390      1.0  0.35553  0.59717  0.21087  1.0000
  H   H391      1.0  0.64447  0.24163  0.28913  1.0000
  H   H392      1.0  0.75837  0.40283  0.28913  1.0000
  H   H393      1.0  0.59717  0.35553  0.28913  1.0000
  H   H394      1.0  0.57497  0.31113  0.87753  1.0000
  H   H395      1.0  0.73617  0.42503  0.87753  1.0000
  H   H396      1.0  0.68887  0.26383  0.87753  1.0000
  H   H397      1.0  0.09600  0.27260  0.05980  1.0000
  H   H398      1.0  0.72740  0.82340  0.05980  1.0000
  H   H399      1.0  0.17660  0.90400  0.05980  1.0000
  H   H400      1.0  0.27260  0.09600  0.44020  1.0000
  H   H401      1.0  0.82340  0.72740  0.44020  1.0000
  H   H402      1.0  0.90400  0.17660  0.44020  1.0000
  H   H403      1.0  0.76267  0.60593  0.39313  1.0000
  H   H404      1.0  0.39407  0.15673  0.39313  1.0000
  H   H405      1.0  0.84327  0.23733  0.39313  1.0000
  H   H406      1.0  0.93927  0.42933  0.77353  1.0000
  H   H407      1.0  0.49007  0.06073  0.77353  1.0000
  H   H408      1.0  0.57067  0.50993  0.77353  1.0000
  H   H409      1.0  0.42933  0.93927  0.72647  1.0000
  H   H410      1.0  0.06073  0.49007  0.72647  1.0000
  H   H411      1.0  0.50993  0.57067  0.72647  1.0000
  H   H412      1.0  0.60593  0.76267  0.10687  1.0000
  H   H413      1.0  0.15673  0.39407  0.10687  1.0000
  H   H414      1.0  0.23733  0.84327  0.10687  1.0000
  H   H415      1.0  0.90400  0.72740  0.94020  1.0000
  H   H416      1.0  0.27260  0.17660  0.94020  1.0000
  H   H417      1.0  0.82340  0.09600  0.94020  1.0000
  H   H418      1.0  0.72740  0.90400  0.55980  1.0000
  H   H419      1.0  0.17660  0.27260  0.55980  1.0000
  H   H420      1.0  0.09600  0.82340  0.55980  1.0000
  H   H421      1.0  0.23733  0.39407  0.60687  1.0000
  H   H422      1.0  0.60593  0.84327  0.60687  1.0000
  H   H423      1.0  0.15673  0.76267  0.60687  1.0000
  H   H424      1.0  0.06073  0.57067  0.22647  1.0000
  H   H425      1.0  0.50993  0.93927  0.22647  1.0000
  H   H426      1.0  0.42933  0.49007  0.22647  1.0000
  H   H427      1.0  0.57067  0.06073  0.27353  1.0000
  H   H428      1.0  0.93927  0.50993  0.27353  1.0000
  H   H429      1.0  0.49007  0.42933  0.27353  1.0000
  H   H430      1.0  0.39407  0.23733  0.89313  1.0000
  H   H431      1.0  0.84327  0.60593  0.89313  1.0000
  H   H432      1.0  0.76267  0.15673  0.89313  1.0000
  Zn  Zn139     1.0  0.00000  0.00000  0.00000  1.0000
  Zn  Zn140     1.0  0.00000  0.00000  0.50000  1.0000
  Zn  Zn141     1.0  0.66667  0.33333  0.33333  1.0000
  Zn  Zn142     1.0  0.66667  0.33333  0.83333  1.0000
  Zn  Zn143     1.0  0.33333  0.66667  0.66667  1.0000
  Zn  Zn144     1.0  0.33333  0.66667  0.16667  1.0000
