data_image0
_chemical_formula_structural       Zn4O24C12H12
_chemical_formula_sum              "Zn4 O24 C12 H12"
_cell_length_a       8.5358
_cell_length_b       8.5358
_cell_length_c       13.3344
_cell_angle_alpha    90
_cell_angle_beta     90
_cell_angle_gamma    120

_space_group_name_H-M_alt    "P 1"
_space_group_IT_number       1

loop_
  _space_group_symop_operation_xyz
  'x, y, z'

loop_
  _atom_site_type_symbol
  _atom_site_label
  _atom_site_symmetry_multiplicity
  _atom_site_fract_x
  _atom_site_fract_y
  _atom_site_fract_z
  _atom_site_occupancy
  Zn  Zn1       1.0  0.00000  0.00000  0.50000  1.0000
  Zn  Zn2       1.0  0.00000  0.00000  0.00000  1.0000
  Zn  Zn3       1.0  0.33330  0.66670  0.25000  1.0000
  Zn  Zn4       1.0  0.66670  0.33330  0.75000  1.0000
  O   O1        1.0  0.21343  0.20275  0.41637  1.0000
  O   O2        1.0  0.79725  0.01068  0.41637  1.0000
  O   O3        1.0  0.98932  0.78657  0.41637  1.0000
  O   O4        1.0  0.79725  0.78657  0.08363  1.0000
  O   O5        1.0  0.98932  0.20275  0.08363  1.0000
  O   O6        1.0  0.21343  0.01068  0.08363  1.0000
  O   O7        1.0  0.78657  0.79725  0.58363  1.0000
  O   O8        1.0  0.20275  0.98932  0.58363  1.0000
  O   O9        1.0  0.01068  0.21343  0.58363  1.0000
  O   O10       1.0  0.20275  0.21343  0.91637  1.0000
  O   O11       1.0  0.01068  0.79725  0.91637  1.0000
  O   O12       1.0  0.78657  0.98932  0.91637  1.0000
  O   O13       1.0  0.33875  0.47067  0.34318  1.0000
  O   O14       1.0  0.52933  0.86808  0.34318  1.0000
  O   O15       1.0  0.13192  0.66125  0.34318  1.0000
  O   O16       1.0  0.52933  0.66125  0.15682  1.0000
  O   O17       1.0  0.13192  0.47067  0.15682  1.0000
  O   O18       1.0  0.33875  0.86808  0.15682  1.0000
  O   O19       1.0  0.66125  0.52933  0.65682  1.0000
  O   O20       1.0  0.47067  0.13192  0.65682  1.0000
  O   O21       1.0  0.86808  0.33875  0.65682  1.0000
  O   O22       1.0  0.47067  0.33875  0.84318  1.0000
  O   O23       1.0  0.86808  0.52933  0.84318  1.0000
  O   O24       1.0  0.66125  0.13192  0.84318  1.0000
  C   C1        1.0  0.20820  0.32600  0.37047  1.0000
  C   C2        1.0  0.67400  0.88220  0.37047  1.0000
  C   C3        1.0  0.11780  0.79180  0.37047  1.0000
  C   C4        1.0  0.67400  0.79180  0.12953  1.0000
  C   C5        1.0  0.11780  0.32600  0.12953  1.0000
  C   C6        1.0  0.20820  0.88220  0.12953  1.0000
  C   C7        1.0  0.79180  0.67400  0.62953  1.0000
  C   C8        1.0  0.32600  0.11780  0.62953  1.0000
  C   C9        1.0  0.88220  0.20820  0.62953  1.0000
  C   C10       1.0  0.32600  0.20820  0.87047  1.0000
  C   C11       1.0  0.88220  0.67400  0.87047  1.0000
  C   C12       1.0  0.79180  0.11780  0.87047  1.0000
  H   H1        1.0  0.09400  0.30770  0.35490  1.0000
  H   H2        1.0  0.69230  0.78630  0.35490  1.0000
  H   H3        1.0  0.21370  0.90600  0.35490  1.0000
  H   H4        1.0  0.69230  0.90600  0.14510  1.0000
  H   H5        1.0  0.21370  0.30770  0.14510  1.0000
  H   H6        1.0  0.09400  0.78630  0.14510  1.0000
  H   H7        1.0  0.90600  0.69230  0.64510  1.0000
  H   H8        1.0  0.30770  0.21370  0.64510  1.0000
  H   H9        1.0  0.78630  0.09400  0.64510  1.0000
  H   H10       1.0  0.30770  0.09400  0.85490  1.0000
  H   H11       1.0  0.78630  0.69230  0.85490  1.0000
  H   H12       1.0  0.90600  0.21370  0.85490  1.0000
