data_image0
_chemical_formula_structural       Fe4O24C12H12
_chemical_formula_sum              "Fe4 O24 C12 H12"
_cell_length_a       8.5905
_cell_length_b       8.5905
_cell_length_c       13.2984
_cell_angle_alpha    90
_cell_angle_beta     90
_cell_angle_gamma    120

_space_group_name_H-M_alt    "P 1"
_space_group_IT_number       1

loop_
  _space_group_symop_operation_xyz
  'x, y, z'

loop_
  _atom_site_type_symbol
  _atom_site_label
  _atom_site_symmetry_multiplicity
  _atom_site_fract_x
  _atom_site_fract_y
  _atom_site_fract_z
  _atom_site_occupancy
  Fe  Fe1       1.0  0.00000  0.00000  0.50000  1.0000
  Fe  Fe2       1.0  0.00000  0.00000  0.00000  1.0000
  Fe  Fe3       1.0  0.33330  0.66670  0.25000  1.0000
  Fe  Fe4       1.0  0.66670  0.33330  0.75000  1.0000
  O   O1        1.0  0.21507  0.20128  0.41471  1.0000
  O   O2        1.0  0.79872  0.01379  0.41471  1.0000
  O   O3        1.0  0.98621  0.78493  0.41471  1.0000
  O   O4        1.0  0.79872  0.78493  0.08529  1.0000
  O   O5        1.0  0.98621  0.20128  0.08529  1.0000
  O   O6        1.0  0.21507  0.01379  0.08529  1.0000
  O   O7        1.0  0.78493  0.79872  0.58529  1.0000
  O   O8        1.0  0.20128  0.98621  0.58529  1.0000
  O   O9        1.0  0.01379  0.21507  0.58529  1.0000
  O   O10       1.0  0.20128  0.21507  0.91471  1.0000
  O   O11       1.0  0.01379  0.79872  0.91471  1.0000
  O   O12       1.0  0.78493  0.98621  0.91471  1.0000
  O   O13       1.0  0.34170  0.47160  0.34470  1.0000
  O   O14       1.0  0.52840  0.87010  0.34470  1.0000
  O   O15       1.0  0.12990  0.65830  0.34470  1.0000
  O   O16       1.0  0.52840  0.65830  0.15530  1.0000
  O   O17       1.0  0.12990  0.47160  0.15530  1.0000
  O   O18       1.0  0.34170  0.87010  0.15530  1.0000
  O   O19       1.0  0.65830  0.52840  0.65530  1.0000
  O   O20       1.0  0.47160  0.12990  0.65530  1.0000
  O   O21       1.0  0.87010  0.34170  0.65530  1.0000
  O   O22       1.0  0.47160  0.34170  0.84470  1.0000
  O   O23       1.0  0.87010  0.52840  0.84470  1.0000
  O   O24       1.0  0.65830  0.12990  0.84470  1.0000
  C   C1        1.0  0.20960  0.32570  0.37044  1.0000
  C   C2        1.0  0.67430  0.88390  0.37044  1.0000
  C   C3        1.0  0.11610  0.79040  0.37044  1.0000
  C   C4        1.0  0.67430  0.79040  0.12956  1.0000
  C   C5        1.0  0.11610  0.32570  0.12956  1.0000
  C   C6        1.0  0.20960  0.88390  0.12956  1.0000
  C   C7        1.0  0.79040  0.67430  0.62956  1.0000
  C   C8        1.0  0.32570  0.11610  0.62956  1.0000
  C   C9        1.0  0.88390  0.20960  0.62956  1.0000
  C   C10       1.0  0.32570  0.20960  0.87044  1.0000
  C   C11       1.0  0.88390  0.67430  0.87044  1.0000
  C   C12       1.0  0.79040  0.11610  0.87044  1.0000
  H   H1        1.0  0.09400  0.30810  0.35470  1.0000
  H   H2        1.0  0.69190  0.78590  0.35470  1.0000
  H   H3        1.0  0.21410  0.90600  0.35470  1.0000
  H   H4        1.0  0.69190  0.90600  0.14530  1.0000
  H   H5        1.0  0.21410  0.30810  0.14530  1.0000
  H   H6        1.0  0.09400  0.78590  0.14530  1.0000
  H   H7        1.0  0.90600  0.69190  0.64530  1.0000
  H   H8        1.0  0.30810  0.21410  0.64530  1.0000
  H   H9        1.0  0.78590  0.09400  0.64530  1.0000
  H   H10       1.0  0.30810  0.09400  0.85470  1.0000
  H   H11       1.0  0.78590  0.69190  0.85470  1.0000
  H   H12       1.0  0.90600  0.21410  0.85470  1.0000
