data_image0
_chemical_formula_structural       Fe4O24C12H12
_chemical_formula_sum              "Fe4 O24 C12 H12"
_cell_length_a       8.5916
_cell_length_b       8.5916
_cell_length_c       13.3542
_cell_angle_alpha    90
_cell_angle_beta     90
_cell_angle_gamma    120

_space_group_name_H-M_alt    "P 1"
_space_group_IT_number       1

loop_
  _space_group_symop_operation_xyz
  'x, y, z'

loop_
  _atom_site_type_symbol
  _atom_site_label
  _atom_site_symmetry_multiplicity
  _atom_site_fract_x
  _atom_site_fract_y
  _atom_site_fract_z
  _atom_site_occupancy
  Fe  Fe1       1.0  0.00000  0.00000  0.50000  1.0000
  Fe  Fe2       1.0  0.00000  0.00000  0.00000  1.0000
  Fe  Fe3       1.0  0.33330  0.66670  0.25000  1.0000
  Fe  Fe4       1.0  0.66670  0.33330  0.75000  1.0000
  O   O1        1.0  0.21490  0.20223  0.41517  1.0000
  O   O2        1.0  0.79777  0.01267  0.41517  1.0000
  O   O3        1.0  0.98733  0.78510  0.41517  1.0000
  O   O4        1.0  0.79777  0.78510  0.08483  1.0000
  O   O5        1.0  0.98733  0.20223  0.08483  1.0000
  O   O6        1.0  0.21490  0.01267  0.08483  1.0000
  O   O7        1.0  0.78510  0.79777  0.58483  1.0000
  O   O8        1.0  0.20223  0.98733  0.58483  1.0000
  O   O9        1.0  0.01267  0.21490  0.58483  1.0000
  O   O10       1.0  0.20223  0.21490  0.91517  1.0000
  O   O11       1.0  0.01267  0.79777  0.91517  1.0000
  O   O12       1.0  0.78510  0.98733  0.91517  1.0000
  O   O13       1.0  0.34070  0.47120  0.34451  1.0000
  O   O14       1.0  0.52880  0.86950  0.34451  1.0000
  O   O15       1.0  0.13050  0.65930  0.34451  1.0000
  O   O16       1.0  0.52880  0.65930  0.15549  1.0000
  O   O17       1.0  0.13050  0.47120  0.15549  1.0000
  O   O18       1.0  0.34070  0.86950  0.15549  1.0000
  O   O19       1.0  0.65930  0.52880  0.65549  1.0000
  O   O20       1.0  0.47120  0.13050  0.65549  1.0000
  O   O21       1.0  0.86950  0.34070  0.65549  1.0000
  O   O22       1.0  0.47120  0.34070  0.84451  1.0000
  O   O23       1.0  0.86950  0.52880  0.84451  1.0000
  O   O24       1.0  0.65930  0.13050  0.84451  1.0000
  C   C1        1.0  0.20980  0.32620  0.37049  1.0000
  C   C2        1.0  0.67380  0.88360  0.37049  1.0000
  C   C3        1.0  0.11640  0.79020  0.37049  1.0000
  C   C4        1.0  0.67380  0.79020  0.12951  1.0000
  C   C5        1.0  0.11640  0.32620  0.12951  1.0000
  C   C6        1.0  0.20980  0.88360  0.12951  1.0000
  C   C7        1.0  0.79020  0.67380  0.62951  1.0000
  C   C8        1.0  0.32620  0.11640  0.62951  1.0000
  C   C9        1.0  0.88360  0.20980  0.62951  1.0000
  C   C10       1.0  0.32620  0.20980  0.87049  1.0000
  C   C11       1.0  0.88360  0.67380  0.87049  1.0000
  C   C12       1.0  0.79020  0.11640  0.87049  1.0000
  H   H1        1.0  0.09420  0.30830  0.35460  1.0000
  H   H2        1.0  0.69170  0.78590  0.35460  1.0000
  H   H3        1.0  0.21410  0.90580  0.35460  1.0000
  H   H4        1.0  0.69170  0.90580  0.14540  1.0000
  H   H5        1.0  0.21410  0.30830  0.14540  1.0000
  H   H6        1.0  0.09420  0.78590  0.14540  1.0000
  H   H7        1.0  0.90580  0.69170  0.64540  1.0000
  H   H8        1.0  0.30830  0.21410  0.64540  1.0000
  H   H9        1.0  0.78590  0.09420  0.64540  1.0000
  H   H10       1.0  0.30830  0.09420  0.85460  1.0000
  H   H11       1.0  0.78590  0.69170  0.85460  1.0000
  H   H12       1.0  0.90580  0.21410  0.85460  1.0000
