data_image0
_chemical_formula_structural       Mg2O12C12O12H12Mg2
_chemical_formula_sum              "Mg4 O24 C12 H12"
_cell_length_a       8.5023
_cell_length_b       8.5023
_cell_length_c       13.6319
_cell_angle_alpha    90
_cell_angle_beta     90
_cell_angle_gamma    120

_space_group_name_H-M_alt    "P 1"
_space_group_IT_number       1

loop_
  _space_group_symop_operation_xyz
  'x, y, z'

loop_
  _atom_site_type_symbol
  _atom_site_label
  _atom_site_symmetry_multiplicity
  _atom_site_fract_x
  _atom_site_fract_y
  _atom_site_fract_z
  _atom_site_occupancy
  Mg  Mg1       1.0  0.00000  0.00000  0.00000  1.0000
  Mg  Mg2       1.0  0.00000  0.00000  0.50000  1.0000
  O   O1        1.0  0.20557  0.20735  0.08197  1.0000
  O   O2        1.0  0.79265  0.99822  0.08197  1.0000
  O   O3        1.0  0.00178  0.79443  0.08197  1.0000
  O   O4        1.0  0.79265  0.79443  0.41803  1.0000
  O   O5        1.0  0.00178  0.20735  0.41803  1.0000
  O   O6        1.0  0.20557  0.99822  0.41803  1.0000
  O   O7        1.0  0.79443  0.79265  0.91803  1.0000
  O   O8        1.0  0.20735  0.00178  0.91803  1.0000
  O   O9        1.0  0.99822  0.20557  0.91803  1.0000
  O   O10       1.0  0.20735  0.20557  0.58197  1.0000
  O   O11       1.0  0.99822  0.79265  0.58197  1.0000
  O   O12       1.0  0.79443  0.00178  0.58197  1.0000
  C   C1        1.0  0.32520  0.20470  0.13016  1.0000
  C   C2        1.0  0.79530  0.12050  0.13016  1.0000
  C   C3        1.0  0.87950  0.67480  0.13016  1.0000
  C   C4        1.0  0.79530  0.67480  0.36984  1.0000
  C   C5        1.0  0.87950  0.20470  0.36984  1.0000
  C   C6        1.0  0.32520  0.12050  0.36984  1.0000
  C   C7        1.0  0.67480  0.79530  0.86984  1.0000
  C   C8        1.0  0.20470  0.87950  0.86984  1.0000
  C   C9        1.0  0.12050  0.32520  0.86984  1.0000
  C   C10       1.0  0.20470  0.32520  0.63016  1.0000
  C   C11       1.0  0.12050  0.79530  0.63016  1.0000
  C   C12       1.0  0.67480  0.87950  0.63016  1.0000
  O   O13       1.0  0.46893  0.33280  0.15932  1.0000
  O   O14       1.0  0.66720  0.13613  0.15932  1.0000
  O   O15       1.0  0.86387  0.53107  0.15932  1.0000
  O   O16       1.0  0.66720  0.53107  0.34068  1.0000
  O   O17       1.0  0.86387  0.33280  0.34068  1.0000
  O   O18       1.0  0.46893  0.13613  0.34068  1.0000
  O   O19       1.0  0.53107  0.66720  0.84068  1.0000
  O   O20       1.0  0.33280  0.86387  0.84068  1.0000
  O   O21       1.0  0.13613  0.46893  0.84068  1.0000
  O   O22       1.0  0.33280  0.46893  0.65932  1.0000
  O   O23       1.0  0.13613  0.66720  0.65932  1.0000
  O   O24       1.0  0.53107  0.86387  0.65932  1.0000
  H   H1        1.0  0.30460  0.09000  0.14710  1.0000
  H   H2        1.0  0.91000  0.21460  0.14710  1.0000
  H   H3        1.0  0.78540  0.69540  0.14710  1.0000
  H   H4        1.0  0.91000  0.69540  0.35290  1.0000
  H   H5        1.0  0.78540  0.09000  0.35290  1.0000
  H   H6        1.0  0.30460  0.21460  0.35290  1.0000
  H   H7        1.0  0.69540  0.91000  0.85290  1.0000
  H   H8        1.0  0.09000  0.78540  0.85290  1.0000
  H   H9        1.0  0.21460  0.30460  0.85290  1.0000
  H   H10       1.0  0.09000  0.30460  0.64710  1.0000
  H   H11       1.0  0.21460  0.91000  0.64710  1.0000
  H   H12       1.0  0.69540  0.78540  0.64710  1.0000
  Mg  Mg3       1.0  0.66670  0.33330  0.25000  1.0000
  Mg  Mg4       1.0  0.33330  0.66670  0.75000  1.0000
