data_image0
_chemical_formula_structural       Mg8O48C4H4C4H4C4H4C4H4C4H4C4H4
_chemical_formula_sum              "Mg8 O48 C24 H24"
_cell_length_a       8.3961
_cell_length_b       14.8705
_cell_length_c       13.5139
_cell_angle_alpha    90
_cell_angle_beta     90.006
_cell_angle_gamma    90

_space_group_name_H-M_alt    "P 1"
_space_group_IT_number       1

loop_
  _space_group_symop_operation_xyz
  'x, y, z'

loop_
  _atom_site_type_symbol
  _atom_site_label
  _atom_site_symmetry_multiplicity
  _atom_site_fract_x
  _atom_site_fract_y
  _atom_site_fract_z
  _atom_site_occupancy
  Mg  Mg1       1.0  0.11721  0.33662  0.31960  1.0000
  Mg  Mg2       1.0  0.11721  0.66338  0.81960  1.0000
  Mg  Mg3       1.0  0.61721  0.83662  0.31960  1.0000
  Mg  Mg4       1.0  0.61721  0.16338  0.81960  1.0000
  Mg  Mg5       1.0  0.11645  0.99838  0.56747  1.0000
  Mg  Mg6       1.0  0.11645  0.00162  0.06747  1.0000
  Mg  Mg7       1.0  0.61645  0.49838  0.56747  1.0000
  Mg  Mg8       1.0  0.61645  0.50162  0.06747  1.0000
  O   O1        1.0  0.03044  0.24093  0.42015  1.0000
  O   O2        1.0  0.03044  0.75907  0.92015  1.0000
  O   O3        1.0  0.53044  0.74093  0.42015  1.0000
  O   O4        1.0  0.53044  0.25907  0.92015  1.0000
  O   O5        1.0  0.01671  0.10525  0.48820  1.0000
  O   O6        1.0  0.01671  0.89475  0.98820  1.0000
  O   O7        1.0  0.51671  0.60525  0.48820  1.0000
  O   O8        1.0  0.51671  0.39475  0.98820  1.0000
  O   O9        1.0  0.20399  0.23810  0.22502  1.0000
  O   O10       1.0  0.20399  0.76190  0.72502  1.0000
  O   O11       1.0  0.70399  0.73810  0.22502  1.0000
  O   O12       1.0  0.70399  0.26190  0.72502  1.0000
  O   O13       1.0  0.21258  0.10639  0.14809  1.0000
  O   O14       1.0  0.21258  0.89361  0.64809  1.0000
  O   O15       1.0  0.71258  0.60639  0.14809  1.0000
  O   O16       1.0  0.71258  0.39361  0.64809  1.0000
  O   O17       1.0  0.33594  0.33476  0.38577  1.0000
  O   O18       1.0  0.33594  0.66524  0.88577  1.0000
  O   O19       1.0  0.83594  0.83476  0.38577  1.0000
  O   O20       1.0  0.83594  0.16524  0.88577  1.0000
  O   O21       1.0  0.52736  0.40704  0.46776  1.0000
  O   O22       1.0  0.52736  0.59296  0.96776  1.0000
  O   O23       1.0  0.02736  0.90704  0.46776  1.0000
  O   O24       1.0  0.02736  0.09296  0.96776  1.0000
  O   O25       1.0  0.20754  0.43026  0.21818  1.0000
  O   O26       1.0  0.20754  0.56974  0.71818  1.0000
  O   O27       1.0  0.70754  0.93026  0.21818  1.0000
  O   O28       1.0  0.70754  0.06974  0.71818  1.0000
  O   O29       1.0  0.40030  0.50368  0.14018  1.0000
  O   O30       1.0  0.40030  0.49632  0.64018  1.0000
  O   O31       1.0  0.90030  0.00368  0.14018  1.0000
  O   O32       1.0  0.90030  0.99632  0.64018  1.0000
  O   O33       1.0  0.90332  0.33557  0.24182  1.0000
  O   O34       1.0  0.90332  0.66443  0.74182  1.0000
  O   O35       1.0  0.40332  0.83557  0.24182  1.0000
  O   O36       1.0  0.40332  0.16443  0.74182  1.0000
  O   O37       1.0  0.70087  0.40041  0.16257  1.0000
  O   O38       1.0  0.70087  0.59959  0.66257  1.0000
  O   O39       1.0  0.20087  0.90041  0.16257  1.0000
  O   O40       1.0  0.20087  0.09959  0.66257  1.0000
  O   O41       1.0  0.03241  0.43776  0.41432  1.0000
  O   O42       1.0  0.03241  0.56224  0.91432  1.0000
  O   O43       1.0  0.53241  0.93776  0.41432  1.0000
  O   O44       1.0  0.53241  0.06224  0.91432  1.0000
  O   O45       1.0  0.83319  0.50541  0.49345  1.0000
  O   O46       1.0  0.83319  0.49459  0.99345  1.0000
  O   O47       1.0  0.33319  0.00541  0.49345  1.0000
  O   O48       1.0  0.33319  0.99459  0.99345  1.0000
  C   C1        1.0  0.08369  0.16316  0.43494  1.0000
  C   C2        1.0  0.08369  0.83684  0.93494  1.0000
  C   C3        1.0  0.58369  0.66316  0.43494  1.0000
  C   C4        1.0  0.58369  0.33684  0.93494  1.0000
  H   H1        1.0  0.18100  0.14710  0.40380  1.0000
  H   H2        1.0  0.18100  0.85290  0.90380  1.0000
  H   H3        1.0  0.68100  0.64710  0.40380  1.0000
  H   H4        1.0  0.68100  0.35290  0.90380  1.0000
  C   C5        1.0  0.14018  0.16696  0.19318  1.0000
  C   C6        1.0  0.14018  0.83304  0.69318  1.0000
  C   C7        1.0  0.64018  0.66696  0.19318  1.0000
  C   C8        1.0  0.64018  0.33304  0.69318  1.0000
  H   H5        1.0  0.02940  0.15900  0.20430  1.0000
  H   H6        1.0  0.02940  0.84100  0.70430  1.0000
  H   H7        1.0  0.52940  0.65900  0.20430  1.0000
  H   H8        1.0  0.52940  0.34100  0.70430  1.0000
  C   C9        1.0  0.38722  0.38150  0.45572  1.0000
  C   C10       1.0  0.38722  0.61850  0.95572  1.0000
  C   C11       1.0  0.88722  0.88150  0.45572  1.0000
  C   C12       1.0  0.88722  0.11850  0.95572  1.0000
  H   H9        1.0  0.31210  0.39930  0.50450  1.0000
  H   H10       1.0  0.31210  0.60070  0.00450  1.0000
  H   H11       1.0  0.81210  0.89930  0.50450  1.0000
  H   H12       1.0  0.81210  0.10070  0.00450  1.0000
  C   C13       1.0  0.34597  0.46233  0.21294  1.0000
  C   C14       1.0  0.34597  0.53767  0.71294  1.0000
  C   C15       1.0  0.84597  0.96233  0.21294  1.0000
  C   C16       1.0  0.84597  0.03767  0.71294  1.0000
  H   H13       1.0  0.41400  0.45440  0.26850  1.0000
  H   H14       1.0  0.41400  0.54560  0.76850  1.0000
  H   H15       1.0  0.91400  0.95440  0.26850  1.0000
  H   H16       1.0  0.91400  0.04560  0.76850  1.0000
  C   C17       1.0  0.83516  0.40145  0.20396  1.0000
  C   C18       1.0  0.83516  0.59855  0.70396  1.0000
  C   C19       1.0  0.33516  0.90145  0.20396  1.0000
  C   C20       1.0  0.33516  0.09855  0.70396  1.0000
  H   H17       1.0  0.88930  0.45750  0.20650  1.0000
  H   H18       1.0  0.88930  0.54250  0.70650  1.0000
  H   H19       1.0  0.38930  0.95750  0.20650  1.0000
  H   H20       1.0  0.38930  0.04250  0.70650  1.0000
  C   C21       1.0  0.89037  0.44114  0.44542  1.0000
  C   C22       1.0  0.89037  0.55886  0.94542  1.0000
  C   C23       1.0  0.39037  0.94114  0.44542  1.0000
  C   C24       1.0  0.39037  0.05886  0.94542  1.0000
  H   H21       1.0  0.82270  0.39160  0.43140  1.0000
  H   H22       1.0  0.82270  0.60840  0.93140  1.0000
  H   H23       1.0  0.32270  0.89160  0.43140  1.0000
  H   H24       1.0  0.32270  0.10840  0.93140  1.0000
