data_image0
_chemical_formula_structural       Mg8O48C4H4C4H4C4H4C4H4C4H4C4H4
_chemical_formula_sum              "Mg8 O48 C24 H24"
_cell_length_a       8.4343
_cell_length_b       14.9184
_cell_length_c       13.6119
_cell_angle_alpha    90
_cell_angle_beta     90.198
_cell_angle_gamma    90

_space_group_name_H-M_alt    "P 1"
_space_group_IT_number       1

loop_
  _space_group_symop_operation_xyz
  'x, y, z'

loop_
  _atom_site_type_symbol
  _atom_site_label
  _atom_site_symmetry_multiplicity
  _atom_site_fract_x
  _atom_site_fract_y
  _atom_site_fract_z
  _atom_site_occupancy
  Mg  Mg1       1.0  0.11787  0.33598  0.31953  1.0000
  Mg  Mg2       1.0  0.11787  0.66402  0.81953  1.0000
  Mg  Mg3       1.0  0.61787  0.83598  0.31953  1.0000
  Mg  Mg4       1.0  0.61787  0.16402  0.81953  1.0000
  Mg  Mg5       1.0  0.11629  0.99780  0.56758  1.0000
  Mg  Mg6       1.0  0.11629  0.00220  0.06758  1.0000
  Mg  Mg7       1.0  0.61629  0.49780  0.56758  1.0000
  Mg  Mg8       1.0  0.61629  0.50220  0.06758  1.0000
  O   O1        1.0  0.02997  0.23769  0.41576  1.0000
  O   O2        1.0  0.02997  0.76231  0.91576  1.0000
  O   O3        1.0  0.52997  0.73769  0.41576  1.0000
  O   O4        1.0  0.52997  0.26231  0.91576  1.0000
  O   O5        1.0  0.01857  0.10581  0.48822  1.0000
  O   O6        1.0  0.01857  0.89419  0.98822  1.0000
  O   O7        1.0  0.51857  0.60581  0.48822  1.0000
  O   O8        1.0  0.51857  0.39419  0.98822  1.0000
  O   O9        1.0  0.20635  0.23828  0.22455  1.0000
  O   O10       1.0  0.20635  0.76172  0.72455  1.0000
  O   O11       1.0  0.70635  0.73828  0.22455  1.0000
  O   O12       1.0  0.70635  0.26172  0.72455  1.0000
  O   O13       1.0  0.21097  0.10837  0.14710  1.0000
  O   O14       1.0  0.21097  0.89163  0.64710  1.0000
  O   O15       1.0  0.71097  0.60837  0.14710  1.0000
  O   O16       1.0  0.71097  0.39163  0.64710  1.0000
  O   O17       1.0  0.33125  0.33529  0.39073  1.0000
  O   O18       1.0  0.33125  0.66471  0.89073  1.0000
  O   O19       1.0  0.83125  0.83529  0.39073  1.0000
  O   O20       1.0  0.83125  0.16471  0.89073  1.0000
  O   O21       1.0  0.52229  0.40742  0.46939  1.0000
  O   O22       1.0  0.52229  0.59258  0.96939  1.0000
  O   O23       1.0  0.02229  0.90742  0.46939  1.0000
  O   O24       1.0  0.02229  0.09258  0.96939  1.0000
  O   O25       1.0  0.21189  0.43084  0.22049  1.0000
  O   O26       1.0  0.21189  0.56916  0.72049  1.0000
  O   O27       1.0  0.71189  0.93084  0.22049  1.0000
  O   O28       1.0  0.71189  0.06916  0.72049  1.0000
  O   O29       1.0  0.40244  0.50119  0.14201  1.0000
  O   O30       1.0  0.40244  0.49881  0.64201  1.0000
  O   O31       1.0  0.90244  0.00119  0.14201  1.0000
  O   O32       1.0  0.90244  0.99881  0.64201  1.0000
  O   O33       1.0  0.90665  0.33793  0.23907  1.0000
  O   O34       1.0  0.90665  0.66207  0.73907  1.0000
  O   O35       1.0  0.40665  0.83793  0.23907  1.0000
  O   O36       1.0  0.40665  0.16207  0.73907  1.0000
  O   O37       1.0  0.70698  0.40213  0.16049  1.0000
  O   O38       1.0  0.70698  0.59787  0.66049  1.0000
  O   O39       1.0  0.20698  0.90213  0.16049  1.0000
  O   O40       1.0  0.20698  0.09787  0.66049  1.0000
  O   O41       1.0  0.02833  0.43473  0.41441  1.0000
  O   O42       1.0  0.02833  0.56527  0.91441  1.0000
  O   O43       1.0  0.52833  0.93473  0.41441  1.0000
  O   O44       1.0  0.52833  0.06527  0.91441  1.0000
  O   O45       1.0  0.83130  0.50108  0.49320  1.0000
  O   O46       1.0  0.83130  0.49892  0.99320  1.0000
  O   O47       1.0  0.33130  0.00108  0.49320  1.0000
  O   O48       1.0  0.33130  0.99892  0.99320  1.0000
  C   C1        1.0  0.08140  0.16183  0.43437  1.0000
  C   C2        1.0  0.08140  0.83817  0.93437  1.0000
  C   C3        1.0  0.58140  0.66183  0.43437  1.0000
  C   C4        1.0  0.58140  0.33817  0.93437  1.0000
  H   H1        1.0  0.17640  0.14550  0.40490  1.0000
  H   H2        1.0  0.17640  0.85450  0.90490  1.0000
  H   H3        1.0  0.67640  0.64550  0.40490  1.0000
  H   H4        1.0  0.67640  0.35450  0.90490  1.0000
  C   C5        1.0  0.14230  0.16884  0.19190  1.0000
  C   C6        1.0  0.14230  0.83116  0.69190  1.0000
  C   C7        1.0  0.64230  0.66884  0.19190  1.0000
  C   C8        1.0  0.64230  0.33116  0.69190  1.0000
  H   H5        1.0  0.03390  0.16220  0.20220  1.0000
  H   H6        1.0  0.03390  0.83780  0.70220  1.0000
  H   H7        1.0  0.53390  0.66220  0.20220  1.0000
  H   H8        1.0  0.53390  0.33780  0.70220  1.0000
  C   C9        1.0  0.38940  0.38196  0.45501  1.0000
  C   C10       1.0  0.38940  0.61804  0.95501  1.0000
  C   C11       1.0  0.88940  0.88196  0.45501  1.0000
  C   C12       1.0  0.88940  0.11804  0.95501  1.0000
  H   H9        1.0  0.31700  0.40150  0.50170  1.0000
  H   H10       1.0  0.31700  0.59850  0.00170  1.0000
  H   H11       1.0  0.81700  0.90150  0.50170  1.0000
  H   H12       1.0  0.81700  0.09850  0.00170  1.0000
  C   C13       1.0  0.34670  0.46272  0.21378  1.0000
  C   C14       1.0  0.34670  0.53728  0.71378  1.0000
  C   C15       1.0  0.84670  0.96272  0.21378  1.0000
  C   C16       1.0  0.84670  0.03728  0.71378  1.0000
  H   H13       1.0  0.41230  0.45700  0.26850  1.0000
  H   H14       1.0  0.41230  0.54300  0.76850  1.0000
  H   H15       1.0  0.91230  0.95700  0.26850  1.0000
  H   H16       1.0  0.91230  0.04300  0.76850  1.0000
  C   C17       1.0  0.83880  0.40251  0.20180  1.0000
  C   C18       1.0  0.83880  0.59749  0.70180  1.0000
  C   C19       1.0  0.33880  0.90251  0.20180  1.0000
  C   C20       1.0  0.33880  0.09749  0.70180  1.0000
  H   H17       1.0  0.89140  0.45720  0.20480  1.0000
  H   H18       1.0  0.89140  0.54280  0.70480  1.0000
  H   H19       1.0  0.39140  0.95720  0.20480  1.0000
  H   H20       1.0  0.39140  0.04280  0.70480  1.0000
  C   C21       1.0  0.88840  0.43860  0.44535  1.0000
  C   C22       1.0  0.88840  0.56140  0.94535  1.0000
  C   C23       1.0  0.38840  0.93860  0.44535  1.0000
  C   C24       1.0  0.38840  0.06140  0.94535  1.0000
  H   H21       1.0  0.82220  0.39040  0.43110  1.0000
  H   H22       1.0  0.82220  0.60960  0.93110  1.0000
  H   H23       1.0  0.32220  0.89040  0.43110  1.0000
  H   H24       1.0  0.32220  0.10960  0.93110  1.0000
