data_image0
_chemical_formula_structural       Mg8O48C4H4C4H4C4H4C4H4C4H4C4H4
_chemical_formula_sum              "Mg8 O48 C24 H24"
_cell_length_a       8.4168
_cell_length_b       14.8917
_cell_length_c       13.5462
_cell_angle_alpha    90
_cell_angle_beta     90.103
_cell_angle_gamma    90

_space_group_name_H-M_alt    "P 1"
_space_group_IT_number       1

loop_
  _space_group_symop_operation_xyz
  'x, y, z'

loop_
  _atom_site_type_symbol
  _atom_site_label
  _atom_site_symmetry_multiplicity
  _atom_site_fract_x
  _atom_site_fract_y
  _atom_site_fract_z
  _atom_site_occupancy
  Mg  Mg1       1.0  0.11775  0.33641  0.31956  1.0000
  Mg  Mg2       1.0  0.11775  0.66359  0.81956  1.0000
  Mg  Mg3       1.0  0.61775  0.83641  0.31956  1.0000
  Mg  Mg4       1.0  0.61775  0.16359  0.81956  1.0000
  Mg  Mg5       1.0  0.11670  0.99818  0.56744  1.0000
  Mg  Mg6       1.0  0.11670  0.00182  0.06744  1.0000
  Mg  Mg7       1.0  0.61670  0.49818  0.56744  1.0000
  Mg  Mg8       1.0  0.61670  0.50182  0.06744  1.0000
  O   O1        1.0  0.03070  0.23966  0.41849  1.0000
  O   O2        1.0  0.03070  0.76034  0.91849  1.0000
  O   O3        1.0  0.53070  0.73966  0.41849  1.0000
  O   O4        1.0  0.53070  0.26034  0.91849  1.0000
  O   O5        1.0  0.01742  0.10542  0.48795  1.0000
  O   O6        1.0  0.01742  0.89458  0.98795  1.0000
  O   O7        1.0  0.51742  0.60542  0.48795  1.0000
  O   O8        1.0  0.51742  0.39458  0.98795  1.0000
  O   O9        1.0  0.20526  0.23811  0.22478  1.0000
  O   O10       1.0  0.20526  0.76189  0.72478  1.0000
  O   O11       1.0  0.70526  0.73811  0.22478  1.0000
  O   O12       1.0  0.70526  0.26189  0.72478  1.0000
  O   O13       1.0  0.21214  0.10700  0.14801  1.0000
  O   O14       1.0  0.21214  0.89300  0.64801  1.0000
  O   O15       1.0  0.71214  0.60700  0.14801  1.0000
  O   O16       1.0  0.71214  0.39300  0.64801  1.0000
  O   O17       1.0  0.33461  0.33516  0.38768  1.0000
  O   O18       1.0  0.33461  0.66484  0.88768  1.0000
  O   O19       1.0  0.83461  0.83516  0.38768  1.0000
  O   O20       1.0  0.83461  0.16484  0.88768  1.0000
  O   O21       1.0  0.52598  0.40715  0.46840  1.0000
  O   O22       1.0  0.52598  0.59285  0.96840  1.0000
  O   O23       1.0  0.02598  0.90715  0.46840  1.0000
  O   O24       1.0  0.02598  0.09285  0.96840  1.0000
  O   O25       1.0  0.20947  0.43042  0.21890  1.0000
  O   O26       1.0  0.20947  0.56958  0.71890  1.0000
  O   O27       1.0  0.70947  0.93042  0.21890  1.0000
  O   O28       1.0  0.70947  0.06958  0.71890  1.0000
  O   O29       1.0  0.40159  0.50266  0.14083  1.0000
  O   O30       1.0  0.40159  0.49734  0.64083  1.0000
  O   O31       1.0  0.90159  0.00266  0.14083  1.0000
  O   O32       1.0  0.90159  0.99734  0.64083  1.0000
  O   O33       1.0  0.90503  0.33639  0.24076  1.0000
  O   O34       1.0  0.90503  0.66361  0.74076  1.0000
  O   O35       1.0  0.40503  0.83639  0.24076  1.0000
  O   O36       1.0  0.40503  0.16361  0.74076  1.0000
  O   O37       1.0  0.70353  0.40097  0.16177  1.0000
  O   O38       1.0  0.70353  0.59903  0.66177  1.0000
  O   O39       1.0  0.20353  0.90097  0.16177  1.0000
  O   O40       1.0  0.20353  0.09903  0.66177  1.0000
  O   O41       1.0  0.03116  0.43682  0.41428  1.0000
  O   O42       1.0  0.03116  0.56318  0.91428  1.0000
  O   O43       1.0  0.53116  0.93682  0.41428  1.0000
  O   O44       1.0  0.53116  0.06318  0.91428  1.0000
  O   O45       1.0  0.83288  0.50377  0.49337  1.0000
  O   O46       1.0  0.83288  0.49623  0.99337  1.0000
  O   O47       1.0  0.33288  0.00377  0.49337  1.0000
  O   O48       1.0  0.33288  0.99623  0.99337  1.0000
  C   C1        1.0  0.08281  0.16268  0.43472  1.0000
  C   C2        1.0  0.08281  0.83732  0.93472  1.0000
  C   C3        1.0  0.58281  0.66268  0.43472  1.0000
  C   C4        1.0  0.58281  0.33732  0.93472  1.0000
  H   H1        1.0  0.17900  0.14660  0.40440  1.0000
  H   H2        1.0  0.17900  0.85340  0.90440  1.0000
  H   H3        1.0  0.67900  0.64660  0.40440  1.0000
  H   H4        1.0  0.67900  0.35340  0.90440  1.0000
  C   C5        1.0  0.14096  0.16765  0.19253  1.0000
  C   C6        1.0  0.14096  0.83235  0.69253  1.0000
  C   C7        1.0  0.64096  0.66765  0.19253  1.0000
  C   C8        1.0  0.64096  0.33235  0.69253  1.0000
  H   H5        1.0  0.03130  0.16050  0.20290  1.0000
  H   H6        1.0  0.03130  0.83950  0.70290  1.0000
  H   H7        1.0  0.53130  0.66050  0.20290  1.0000
  H   H8        1.0  0.53130  0.33950  0.70290  1.0000
  C   C9        1.0  0.38850  0.38201  0.45539  1.0000
  C   C10       1.0  0.38850  0.61799  0.95539  1.0000
  C   C11       1.0  0.88850  0.88201  0.45539  1.0000
  C   C12       1.0  0.88850  0.11799  0.95539  1.0000
  H   H9        1.0  0.31460  0.40080  0.50310  1.0000
  H   H10       1.0  0.31460  0.59920  0.00310  1.0000
  H   H11       1.0  0.81460  0.90080  0.50310  1.0000
  H   H12       1.0  0.81460  0.09920  0.00310  1.0000
  C   C13       1.0  0.34624  0.46279  0.21340  1.0000
  C   C14       1.0  0.34624  0.53721  0.71340  1.0000
  C   C15       1.0  0.84624  0.96279  0.21340  1.0000
  C   C16       1.0  0.84624  0.03721  0.71340  1.0000
  H   H13       1.0  0.41260  0.45640  0.26890  1.0000
  H   H14       1.0  0.41260  0.54360  0.76890  1.0000
  H   H15       1.0  0.91260  0.95640  0.26890  1.0000
  H   H16       1.0  0.91260  0.04360  0.76890  1.0000
  C   C17       1.0  0.83670  0.40170  0.20308  1.0000
  C   C18       1.0  0.83670  0.59830  0.70308  1.0000
  C   C19       1.0  0.33670  0.90170  0.20308  1.0000
  C   C20       1.0  0.33670  0.09830  0.70308  1.0000
  H   H17       1.0  0.89000  0.45710  0.20580  1.0000
  H   H18       1.0  0.89000  0.54290  0.70580  1.0000
  H   H19       1.0  0.39000  0.95710  0.20580  1.0000
  H   H20       1.0  0.39000  0.04290  0.70580  1.0000
  C   C21       1.0  0.89007  0.44033  0.44539  1.0000
  C   C22       1.0  0.89007  0.55967  0.94539  1.0000
  C   C23       1.0  0.39007  0.94033  0.44539  1.0000
  C   C24       1.0  0.39007  0.05967  0.94539  1.0000
  H   H21       1.0  0.82320  0.39140  0.43130  1.0000
  H   H22       1.0  0.82320  0.60860  0.93130  1.0000
  H   H23       1.0  0.32320  0.89140  0.43130  1.0000
  H   H24       1.0  0.32320  0.10860  0.93130  1.0000
