data_image0
_chemical_formula_structural       Mg2O12C12O12H12Mg2
_chemical_formula_sum              "Mg4 O24 C12 H12"
_cell_length_a       8.4969
_cell_length_b       8.4969
_cell_length_c       13.6468
_cell_angle_alpha    90
_cell_angle_beta     90
_cell_angle_gamma    120

_space_group_name_H-M_alt    "P 1"
_space_group_IT_number       1

loop_
  _space_group_symop_operation_xyz
  'x, y, z'

loop_
  _atom_site_type_symbol
  _atom_site_label
  _atom_site_symmetry_multiplicity
  _atom_site_fract_x
  _atom_site_fract_y
  _atom_site_fract_z
  _atom_site_occupancy
  Mg  Mg1       1.0  0.00000  0.00000  0.00000  1.0000
  Mg  Mg2       1.0  0.00000  0.00000  0.50000  1.0000
  O   O1        1.0  0.20596  0.20715  0.08182  1.0000
  O   O2        1.0  0.79285  0.99881  0.08182  1.0000
  O   O3        1.0  0.00119  0.79404  0.08182  1.0000
  O   O4        1.0  0.79285  0.79404  0.41818  1.0000
  O   O5        1.0  0.00119  0.20715  0.41818  1.0000
  O   O6        1.0  0.20596  0.99881  0.41818  1.0000
  O   O7        1.0  0.79404  0.79285  0.91818  1.0000
  O   O8        1.0  0.20715  0.00119  0.91818  1.0000
  O   O9        1.0  0.99881  0.20596  0.91818  1.0000
  O   O10       1.0  0.20715  0.20596  0.58182  1.0000
  O   O11       1.0  0.99881  0.79285  0.58182  1.0000
  O   O12       1.0  0.79404  0.00119  0.58182  1.0000
  C   C1        1.0  0.32530  0.20470  0.13017  1.0000
  C   C2        1.0  0.79530  0.12060  0.13017  1.0000
  C   C3        1.0  0.87940  0.67470  0.13017  1.0000
  C   C4        1.0  0.79530  0.67470  0.36983  1.0000
  C   C5        1.0  0.87940  0.20470  0.36983  1.0000
  C   C6        1.0  0.32530  0.12060  0.36983  1.0000
  C   C7        1.0  0.67470  0.79530  0.86983  1.0000
  C   C8        1.0  0.20470  0.87940  0.86983  1.0000
  C   C9        1.0  0.12060  0.32530  0.86983  1.0000
  C   C10       1.0  0.20470  0.32530  0.63017  1.0000
  C   C11       1.0  0.12060  0.79530  0.63017  1.0000
  C   C12       1.0  0.67470  0.87940  0.63017  1.0000
  O   O13       1.0  0.46881  0.33251  0.15945  1.0000
  O   O14       1.0  0.66749  0.13630  0.15945  1.0000
  O   O15       1.0  0.86370  0.53119  0.15945  1.0000
  O   O16       1.0  0.66749  0.53119  0.34055  1.0000
  O   O17       1.0  0.86370  0.33251  0.34055  1.0000
  O   O18       1.0  0.46881  0.13630  0.34055  1.0000
  O   O19       1.0  0.53119  0.66749  0.84055  1.0000
  O   O20       1.0  0.33251  0.86370  0.84055  1.0000
  O   O21       1.0  0.13630  0.46881  0.84055  1.0000
  O   O22       1.0  0.33251  0.46881  0.65945  1.0000
  O   O23       1.0  0.13630  0.66749  0.65945  1.0000
  O   O24       1.0  0.53119  0.86370  0.65945  1.0000
  H   H1        1.0  0.30460  0.08990  0.14720  1.0000
  H   H2        1.0  0.91010  0.21470  0.14720  1.0000
  H   H3        1.0  0.78530  0.69540  0.14720  1.0000
  H   H4        1.0  0.91010  0.69540  0.35280  1.0000
  H   H5        1.0  0.78530  0.08990  0.35280  1.0000
  H   H6        1.0  0.30460  0.21470  0.35280  1.0000
  H   H7        1.0  0.69540  0.91010  0.85280  1.0000
  H   H8        1.0  0.08990  0.78530  0.85280  1.0000
  H   H9        1.0  0.21470  0.30460  0.85280  1.0000
  H   H10       1.0  0.08990  0.30460  0.64720  1.0000
  H   H11       1.0  0.21470  0.91010  0.64720  1.0000
  H   H12       1.0  0.69540  0.78530  0.64720  1.0000
  Mg  Mg3       1.0  0.66670  0.33330  0.25000  1.0000
  Mg  Mg4       1.0  0.33330  0.66670  0.75000  1.0000
