data_image0
_chemical_formula_structural       Mg2O12C12O12H12Mg2
_chemical_formula_sum              "Mg4 O24 C12 H12"
_cell_length_a       8.4982
_cell_length_b       8.4982
_cell_length_c       13.6708
_cell_angle_alpha    90
_cell_angle_beta     90
_cell_angle_gamma    120

_space_group_name_H-M_alt    "P 1"
_space_group_IT_number       1

loop_
  _space_group_symop_operation_xyz
  'x, y, z'

loop_
  _atom_site_type_symbol
  _atom_site_label
  _atom_site_symmetry_multiplicity
  _atom_site_fract_x
  _atom_site_fract_y
  _atom_site_fract_z
  _atom_site_occupancy
  Mg  Mg1       1.0  0.00000  0.00000  0.00000  1.0000
  Mg  Mg2       1.0  0.00000  0.00000  0.50000  1.0000
  O   O1        1.0  0.20625  0.20687  0.08171  1.0000
  O   O2        1.0  0.79313  0.99938  0.08171  1.0000
  O   O3        1.0  0.00062  0.79375  0.08171  1.0000
  O   O4        1.0  0.79313  0.79375  0.41829  1.0000
  O   O5        1.0  0.00062  0.20687  0.41829  1.0000
  O   O6        1.0  0.20625  0.99938  0.41829  1.0000
  O   O7        1.0  0.79375  0.79313  0.91829  1.0000
  O   O8        1.0  0.20687  0.00062  0.91829  1.0000
  O   O9        1.0  0.99938  0.20625  0.91829  1.0000
  O   O10       1.0  0.20687  0.20625  0.58171  1.0000
  O   O11       1.0  0.99938  0.79313  0.58171  1.0000
  O   O12       1.0  0.79375  0.00062  0.58171  1.0000
  C   C1        1.0  0.32530  0.20460  0.13021  1.0000
  C   C2        1.0  0.79540  0.12070  0.13021  1.0000
  C   C3        1.0  0.87930  0.67470  0.13021  1.0000
  C   C4        1.0  0.79540  0.67470  0.36979  1.0000
  C   C5        1.0  0.87930  0.20460  0.36979  1.0000
  C   C6        1.0  0.32530  0.12070  0.36979  1.0000
  C   C7        1.0  0.67470  0.79540  0.86979  1.0000
  C   C8        1.0  0.20460  0.87930  0.86979  1.0000
  C   C9        1.0  0.12070  0.32530  0.86979  1.0000
  C   C10       1.0  0.20460  0.32530  0.63021  1.0000
  C   C11       1.0  0.12070  0.79540  0.63021  1.0000
  C   C12       1.0  0.67470  0.87930  0.63021  1.0000
  O   O13       1.0  0.46871  0.33222  0.15949  1.0000
  O   O14       1.0  0.66778  0.13649  0.15949  1.0000
  O   O15       1.0  0.86351  0.53129  0.15949  1.0000
  O   O16       1.0  0.66778  0.53129  0.34051  1.0000
  O   O17       1.0  0.86351  0.33222  0.34051  1.0000
  O   O18       1.0  0.46871  0.13649  0.34051  1.0000
  O   O19       1.0  0.53129  0.66778  0.84051  1.0000
  O   O20       1.0  0.33222  0.86351  0.84051  1.0000
  O   O21       1.0  0.13649  0.46871  0.84051  1.0000
  O   O22       1.0  0.33222  0.46871  0.65949  1.0000
  O   O23       1.0  0.13649  0.66778  0.65949  1.0000
  O   O24       1.0  0.53129  0.86351  0.65949  1.0000
  H   H1        1.0  0.30440  0.08980  0.14740  1.0000
  H   H2        1.0  0.91020  0.21460  0.14740  1.0000
  H   H3        1.0  0.78540  0.69560  0.14740  1.0000
  H   H4        1.0  0.91020  0.69560  0.35260  1.0000
  H   H5        1.0  0.78540  0.08980  0.35260  1.0000
  H   H6        1.0  0.30440  0.21460  0.35260  1.0000
  H   H7        1.0  0.69560  0.91020  0.85260  1.0000
  H   H8        1.0  0.08980  0.78540  0.85260  1.0000
  H   H9        1.0  0.21460  0.30440  0.85260  1.0000
  H   H10       1.0  0.08980  0.30440  0.64740  1.0000
  H   H11       1.0  0.21460  0.91020  0.64740  1.0000
  H   H12       1.0  0.69560  0.78540  0.64740  1.0000
  Mg  Mg3       1.0  0.66670  0.33330  0.25000  1.0000
  Mg  Mg4       1.0  0.33330  0.66670  0.75000  1.0000
