data_image0
_chemical_formula_structural       In18O108C72H36C72H36N18H18C72H36C36O36C108H36S18
_chemical_formula_sum              "In18 O144 C360 H162 N18 S18"
_cell_length_a       46.0197
_cell_length_b       46.0197
_cell_length_c       10.185
_cell_angle_alpha    90
_cell_angle_beta     90
_cell_angle_gamma    120

_space_group_name_H-M_alt    "P 1"
_space_group_IT_number       1

loop_
  _space_group_symop_operation_xyz
  'x, y, z'

loop_
  _atom_site_type_symbol
  _atom_site_label
  _atom_site_symmetry_multiplicity
  _atom_site_fract_x
  _atom_site_fract_y
  _atom_site_fract_z
  _atom_site_occupancy
  In  In1       1.0  0.41849  0.08515  0.33330  1.0000
  In  In2       1.0  0.91485  0.33334  0.33330  1.0000
  In  In3       1.0  0.66666  0.58151  0.33330  1.0000
  In  In4       1.0  0.33334  0.91485  0.66670  1.0000
  In  In5       1.0  0.58151  0.66666  0.66670  1.0000
  In  In6       1.0  0.08515  0.41849  0.66670  1.0000
  In  In7       1.0  0.00001  0.24818  0.00003  1.0000
  In  In8       1.0  0.24818  0.99999  0.00003  1.0000
  In  In9       1.0  0.75182  0.75182  0.00003  1.0000
  In  In10      1.0  0.58151  0.91485  0.66670  1.0000
  In  In11      1.0  0.08515  0.66666  0.66670  1.0000
  In  In12      1.0  0.33334  0.41849  0.66670  1.0000
  In  In13      1.0  0.66666  0.08515  0.33330  1.0000
  In  In14      1.0  0.41849  0.33334  0.33330  1.0000
  In  In15      1.0  0.91485  0.58151  0.33330  1.0000
  In  In16      1.0  0.99999  0.75182  0.99997  1.0000
  In  In17      1.0  0.75182  0.00001  0.99997  1.0000
  In  In18      1.0  0.24818  0.24818  0.99997  1.0000
  O   O1        1.0  0.39876  0.11997  0.33150  1.0000
  O   O2        1.0  0.88003  0.27879  0.33150  1.0000
  O   O3        1.0  0.72121  0.60124  0.33150  1.0000
  O   O4        1.0  0.27879  0.88003  0.66850  1.0000
  O   O5        1.0  0.60124  0.72121  0.66850  1.0000
  O   O6        1.0  0.11997  0.39876  0.66850  1.0000
  O   O7        1.0  0.06543  0.45330  0.66483  1.0000
  O   O8        1.0  0.54670  0.61212  0.66483  1.0000
  O   O9        1.0  0.38788  0.93457  0.66483  1.0000
  O   O10       1.0  0.94546  0.21336  0.00183  1.0000
  O   O11       1.0  0.26791  0.05454  0.00183  1.0000
  O   O12       1.0  0.78664  0.73209  0.00183  1.0000
  O   O13       1.0  0.73209  0.78664  0.99817  1.0000
  O   O14       1.0  0.21336  0.94546  0.99817  1.0000
  O   O15       1.0  0.05454  0.26791  0.99817  1.0000
  O   O16       1.0  0.61212  0.54670  0.33517  1.0000
  O   O17       1.0  0.93457  0.38788  0.33517  1.0000
  O   O18       1.0  0.45330  0.06543  0.33517  1.0000
  O   O19       1.0  0.60124  0.88003  0.66850  1.0000
  O   O20       1.0  0.11997  0.72121  0.66850  1.0000
  O   O21       1.0  0.27879  0.39876  0.66850  1.0000
  O   O22       1.0  0.72121  0.11997  0.33150  1.0000
  O   O23       1.0  0.39876  0.27879  0.33150  1.0000
  O   O24       1.0  0.88003  0.60124  0.33150  1.0000
  O   O25       1.0  0.93457  0.54670  0.33517  1.0000
  O   O26       1.0  0.45330  0.38788  0.33517  1.0000
  O   O27       1.0  0.61212  0.06543  0.33517  1.0000
  O   O28       1.0  0.05454  0.78664  0.99817  1.0000
  O   O29       1.0  0.73209  0.94546  0.99817  1.0000
  O   O30       1.0  0.21336  0.26791  0.99817  1.0000
  O   O31       1.0  0.26791  0.21336  0.00183  1.0000
  O   O32       1.0  0.78664  0.05454  0.00183  1.0000
  O   O33       1.0  0.94546  0.73209  0.00183  1.0000
  O   O34       1.0  0.38788  0.45330  0.66483  1.0000
  O   O35       1.0  0.06543  0.61212  0.66483  1.0000
  O   O36       1.0  0.54670  0.93457  0.66483  1.0000
  O   O37       1.0  0.45760  0.12420  0.18040  1.0000
  O   O38       1.0  0.87580  0.33340  0.18040  1.0000
  O   O39       1.0  0.66660  0.54240  0.18040  1.0000
  O   O40       1.0  0.33340  0.87580  0.81960  1.0000
  O   O41       1.0  0.54240  0.66660  0.81960  1.0000
  O   O42       1.0  0.12420  0.45760  0.81960  1.0000
  O   O43       1.0  0.12427  0.45753  0.51373  1.0000
  O   O44       1.0  0.54247  0.66673  0.51373  1.0000
  O   O45       1.0  0.33327  0.87573  0.51373  1.0000
  O   O46       1.0  0.00007  0.20913  0.15293  1.0000
  O   O47       1.0  0.20907  0.99993  0.15293  1.0000
  O   O48       1.0  0.79087  0.79093  0.15293  1.0000
  O   O49       1.0  0.79093  0.79087  0.84707  1.0000
  O   O50       1.0  0.20913  0.00007  0.84707  1.0000
  O   O51       1.0  0.99993  0.20907  0.84707  1.0000
  O   O52       1.0  0.66673  0.54247  0.48627  1.0000
  O   O53       1.0  0.87573  0.33327  0.48627  1.0000
  O   O54       1.0  0.45753  0.12427  0.48627  1.0000
  O   O55       1.0  0.54240  0.87580  0.81960  1.0000
  O   O56       1.0  0.12420  0.66660  0.81960  1.0000
  O   O57       1.0  0.33340  0.45760  0.81960  1.0000
  O   O58       1.0  0.66660  0.12420  0.18040  1.0000
  O   O59       1.0  0.45760  0.33340  0.18040  1.0000
  O   O60       1.0  0.87580  0.54240  0.18040  1.0000
  O   O61       1.0  0.87573  0.54247  0.48627  1.0000
  O   O62       1.0  0.45753  0.33327  0.48627  1.0000
  O   O63       1.0  0.66673  0.12427  0.48627  1.0000
  O   O64       1.0  0.99993  0.79087  0.84707  1.0000
  O   O65       1.0  0.79093  0.00007  0.84707  1.0000
  O   O66       1.0  0.20913  0.20907  0.84707  1.0000
  O   O67       1.0  0.20907  0.20913  0.15293  1.0000
  O   O68       1.0  0.79087  0.99993  0.15293  1.0000
  O   O69       1.0  0.00007  0.79093  0.15293  1.0000
  O   O70       1.0  0.33327  0.45753  0.51373  1.0000
  O   O71       1.0  0.12427  0.66673  0.51373  1.0000
  O   O72       1.0  0.54247  0.87573  0.51373  1.0000
  O   O73       1.0  0.36160  0.06633  0.32860  1.0000
  O   O74       1.0  0.93367  0.29527  0.32860  1.0000
  O   O75       1.0  0.70473  0.63840  0.32860  1.0000
  O   O76       1.0  0.29527  0.93367  0.67140  1.0000
  O   O77       1.0  0.63840  0.70473  0.67140  1.0000
  O   O78       1.0  0.06633  0.36160  0.67140  1.0000
  O   O79       1.0  0.02827  0.39966  0.66193  1.0000
  O   O80       1.0  0.60034  0.62860  0.66193  1.0000
  O   O81       1.0  0.37140  0.97173  0.66193  1.0000
  O   O82       1.0  0.96194  0.26700  0.00473  1.0000
  O   O83       1.0  0.30507  0.03806  0.00473  1.0000
  O   O84       1.0  0.73300  0.69493  0.00473  1.0000
  O   O85       1.0  0.69493  0.73300  0.99527  1.0000
  O   O86       1.0  0.26700  0.96194  0.99527  1.0000
  O   O87       1.0  0.03806  0.30507  0.99527  1.0000
  O   O88       1.0  0.62860  0.60034  0.33807  1.0000
  O   O89       1.0  0.97173  0.37140  0.33807  1.0000
  O   O90       1.0  0.39966  0.02827  0.33807  1.0000
  O   O91       1.0  0.63840  0.93367  0.67140  1.0000
  O   O92       1.0  0.06633  0.70473  0.67140  1.0000
  O   O93       1.0  0.29527  0.36160  0.67140  1.0000
  O   O94       1.0  0.70473  0.06633  0.32860  1.0000
  O   O95       1.0  0.36160  0.29527  0.32860  1.0000
  O   O96       1.0  0.93367  0.63840  0.32860  1.0000
  O   O97       1.0  0.97173  0.60034  0.33807  1.0000
  O   O98       1.0  0.39966  0.37140  0.33807  1.0000
  O   O99       1.0  0.62860  0.02827  0.33807  1.0000
  O   O100      1.0  0.03806  0.73300  0.99527  1.0000
  O   O101      1.0  0.69493  0.96194  0.99527  1.0000
  O   O102      1.0  0.26700  0.30507  0.99527  1.0000
  O   O103      1.0  0.30507  0.26700  0.00473  1.0000
  O   O104      1.0  0.73300  0.03806  0.00473  1.0000
  O   O105      1.0  0.96194  0.69493  0.00473  1.0000
  O   O106      1.0  0.37140  0.39966  0.66193  1.0000
  O   O107      1.0  0.02827  0.62860  0.66193  1.0000
  O   O108      1.0  0.60034  0.97173  0.66193  1.0000
  C   C1        1.0  0.34160  0.10520  0.33060  1.0000
  C   C2        1.0  0.89480  0.23640  0.33060  1.0000
  C   C3        1.0  0.76360  0.65840  0.33060  1.0000
  C   C4        1.0  0.23640  0.89480  0.66940  1.0000
  C   C5        1.0  0.65840  0.76360  0.66940  1.0000
  C   C6        1.0  0.10520  0.34160  0.66940  1.0000
  C   C7        1.0  0.00827  0.43853  0.66393  1.0000
  C   C8        1.0  0.56147  0.56973  0.66393  1.0000
  C   C9        1.0  0.43027  0.99173  0.66393  1.0000
  C   C10       1.0  0.90307  0.22813  0.00273  1.0000
  C   C11       1.0  0.32507  0.09693  0.00273  1.0000
  C   C12       1.0  0.77187  0.67493  0.00273  1.0000
  C   C13       1.0  0.67493  0.77187  0.99727  1.0000
  C   C14       1.0  0.22813  0.90307  0.99727  1.0000
  C   C15       1.0  0.09693  0.32507  0.99727  1.0000
  C   C16       1.0  0.56973  0.56147  0.33607  1.0000
  C   C17       1.0  0.99173  0.43027  0.33607  1.0000
  C   C18       1.0  0.43853  0.00827  0.33607  1.0000
  C   C19       1.0  0.65840  0.89480  0.66940  1.0000
  C   C20       1.0  0.10520  0.76360  0.66940  1.0000
  C   C21       1.0  0.23640  0.34160  0.66940  1.0000
  C   C22       1.0  0.76360  0.10520  0.33060  1.0000
  C   C23       1.0  0.34160  0.23640  0.33060  1.0000
  C   C24       1.0  0.89480  0.65840  0.33060  1.0000
  C   C25       1.0  0.99173  0.56147  0.33607  1.0000
  C   C26       1.0  0.43853  0.43027  0.33607  1.0000
  C   C27       1.0  0.56973  0.00827  0.33607  1.0000
  C   C28       1.0  0.09693  0.77187  0.99727  1.0000
  C   C29       1.0  0.67493  0.90307  0.99727  1.0000
  C   C30       1.0  0.22813  0.32507  0.99727  1.0000
  C   C31       1.0  0.32507  0.22813  0.00273  1.0000
  C   C32       1.0  0.77187  0.09693  0.00273  1.0000
  C   C33       1.0  0.90307  0.67493  0.00273  1.0000
  C   C34       1.0  0.43027  0.43853  0.66393  1.0000
  C   C35       1.0  0.00827  0.56973  0.66393  1.0000
  C   C36       1.0  0.56147  0.99173  0.66393  1.0000
  C   C37       1.0  0.34980  0.13900  0.33160  1.0000
  C   C38       1.0  0.86100  0.21080  0.33160  1.0000
  C   C39       1.0  0.78920  0.65020  0.33160  1.0000
  C   C40       1.0  0.21080  0.86100  0.66840  1.0000
  C   C41       1.0  0.65020  0.78920  0.66840  1.0000
  C   C42       1.0  0.13900  0.34980  0.66840  1.0000
  C   C43       1.0  0.01647  0.47233  0.66493  1.0000
  C   C44       1.0  0.52767  0.54413  0.66493  1.0000
  C   C45       1.0  0.45587  0.98353  0.66493  1.0000
  C   C46       1.0  0.87747  0.19433  0.00173  1.0000
  C   C47       1.0  0.31687  0.12253  0.00173  1.0000
  C   C48       1.0  0.80567  0.68313  0.00173  1.0000
  C   C49       1.0  0.68313  0.80567  0.99827  1.0000
  C   C50       1.0  0.19433  0.87747  0.99827  1.0000
  C   C51       1.0  0.12253  0.31687  0.99827  1.0000
  C   C52       1.0  0.54413  0.52767  0.33507  1.0000
  C   C53       1.0  0.98353  0.45587  0.33507  1.0000
  C   C54       1.0  0.47233  0.01647  0.33507  1.0000
  C   C55       1.0  0.65020  0.86100  0.66840  1.0000
  C   C56       1.0  0.13900  0.78920  0.66840  1.0000
  C   C57       1.0  0.21080  0.34980  0.66840  1.0000
  C   C58       1.0  0.78920  0.13900  0.33160  1.0000
  C   C59       1.0  0.34980  0.21080  0.33160  1.0000
  C   C60       1.0  0.86100  0.65020  0.33160  1.0000
  C   C61       1.0  0.98353  0.52767  0.33507  1.0000
  C   C62       1.0  0.47233  0.45587  0.33507  1.0000
  C   C63       1.0  0.54413  0.01647  0.33507  1.0000
  C   C64       1.0  0.12253  0.80567  0.99827  1.0000
  C   C65       1.0  0.68313  0.87747  0.99827  1.0000
  C   C66       1.0  0.19433  0.31687  0.99827  1.0000
  C   C67       1.0  0.31687  0.19433  0.00173  1.0000
  C   C68       1.0  0.80567  0.12253  0.00173  1.0000
  C   C69       1.0  0.87747  0.68313  0.00173  1.0000
  C   C70       1.0  0.45587  0.47233  0.66493  1.0000
  C   C71       1.0  0.01647  0.54413  0.66493  1.0000
  C   C72       1.0  0.52767  0.98353  0.66493  1.0000
  H   H1        1.0  0.37210  0.15600  0.33120  1.0000
  H   H2        1.0  0.84400  0.21610  0.33120  1.0000
  H   H3        1.0  0.78390  0.62790  0.33120  1.0000
  H   H4        1.0  0.21610  0.84400  0.66880  1.0000
  H   H5        1.0  0.62790  0.78390  0.66880  1.0000
  H   H6        1.0  0.15600  0.37210  0.66880  1.0000
  H   H7        1.0  0.03877  0.48933  0.66453  1.0000
  H   H8        1.0  0.51067  0.54943  0.66453  1.0000
  H   H9        1.0  0.45057  0.96123  0.66453  1.0000
  H   H10       1.0  0.88277  0.17733  0.00213  1.0000
  H   H11       1.0  0.29457  0.11723  0.00213  1.0000
  H   H12       1.0  0.82267  0.70543  0.00213  1.0000
  H   H13       1.0  0.70543  0.82267  0.99787  1.0000
  H   H14       1.0  0.17733  0.88277  0.99787  1.0000
  H   H15       1.0  0.11723  0.29457  0.99787  1.0000
  H   H16       1.0  0.54943  0.51067  0.33547  1.0000
  H   H17       1.0  0.96123  0.45057  0.33547  1.0000
  H   H18       1.0  0.48933  0.03877  0.33547  1.0000
  H   H19       1.0  0.62790  0.84400  0.66880  1.0000
  H   H20       1.0  0.15600  0.78390  0.66880  1.0000
  H   H21       1.0  0.21610  0.37210  0.66880  1.0000
  H   H22       1.0  0.78390  0.15600  0.33120  1.0000
  H   H23       1.0  0.37210  0.21610  0.33120  1.0000
  H   H24       1.0  0.84400  0.62790  0.33120  1.0000
  H   H25       1.0  0.96123  0.51067  0.33547  1.0000
  H   H26       1.0  0.48933  0.45057  0.33547  1.0000
  H   H27       1.0  0.54943  0.03877  0.33547  1.0000
  H   H28       1.0  0.11723  0.82267  0.99787  1.0000
  H   H29       1.0  0.70543  0.88277  0.99787  1.0000
  H   H30       1.0  0.17733  0.29457  0.99787  1.0000
  H   H31       1.0  0.29457  0.17733  0.00213  1.0000
  H   H32       1.0  0.82267  0.11723  0.00213  1.0000
  H   H33       1.0  0.88277  0.70543  0.00213  1.0000
  H   H34       1.0  0.45057  0.48933  0.66453  1.0000
  H   H35       1.0  0.03877  0.54943  0.66453  1.0000
  H   H36       1.0  0.51067  0.96123  0.66453  1.0000
  C   C73       1.0  0.36820  0.09670  0.32950  1.0000
  C   C74       1.0  0.90330  0.27150  0.32950  1.0000
  C   C75       1.0  0.72850  0.63180  0.32950  1.0000
  C   C76       1.0  0.27150  0.90330  0.67050  1.0000
  C   C77       1.0  0.63180  0.72850  0.67050  1.0000
  C   C78       1.0  0.09670  0.36820  0.67050  1.0000
  C   C79       1.0  0.03487  0.43003  0.66283  1.0000
  C   C80       1.0  0.56997  0.60483  0.66283  1.0000
  C   C81       1.0  0.39517  0.96513  0.66283  1.0000
  C   C82       1.0  0.93817  0.23663  0.00383  1.0000
  C   C83       1.0  0.29847  0.06183  0.00383  1.0000
  C   C84       1.0  0.76337  0.70153  0.00383  1.0000
  C   C85       1.0  0.70153  0.76337  0.99617  1.0000
  C   C86       1.0  0.23663  0.93817  0.99617  1.0000
  C   C87       1.0  0.06183  0.29847  0.99617  1.0000
  C   C88       1.0  0.60483  0.56997  0.33717  1.0000
  C   C89       1.0  0.96513  0.39517  0.33717  1.0000
  C   C90       1.0  0.43003  0.03487  0.33717  1.0000
  C   C91       1.0  0.63180  0.90330  0.67050  1.0000
  C   C92       1.0  0.09670  0.72850  0.67050  1.0000
  C   C93       1.0  0.27150  0.36820  0.67050  1.0000
  C   C94       1.0  0.72850  0.09670  0.32950  1.0000
  C   C95       1.0  0.36820  0.27150  0.32950  1.0000
  C   C96       1.0  0.90330  0.63180  0.32950  1.0000
  C   C97       1.0  0.96513  0.56997  0.33717  1.0000
  C   C98       1.0  0.43003  0.39517  0.33717  1.0000
  C   C99       1.0  0.60483  0.03487  0.33717  1.0000
  C   C100      1.0  0.06183  0.76337  0.99617  1.0000
  C   C101      1.0  0.70153  0.93817  0.99617  1.0000
  C   C102      1.0  0.23663  0.29847  0.99617  1.0000
  C   C103      1.0  0.29847  0.23663  0.00383  1.0000
  C   C104      1.0  0.76337  0.06183  0.00383  1.0000
  C   C105      1.0  0.93817  0.70153  0.00383  1.0000
  C   C106      1.0  0.39517  0.43003  0.66283  1.0000
  C   C107      1.0  0.03487  0.60483  0.66283  1.0000
  C   C108      1.0  0.56997  0.96513  0.66283  1.0000
  C   C109      1.0  0.28170  0.08730  0.33090  1.0000
  C   C110      1.0  0.91270  0.19440  0.33090  1.0000
  C   C111      1.0  0.80560  0.71830  0.33090  1.0000
  C   C112      1.0  0.19440  0.91270  0.66910  1.0000
  C   C113      1.0  0.71830  0.80560  0.66910  1.0000
  C   C114      1.0  0.08730  0.28170  0.66910  1.0000
  C   C115      1.0  0.94837  0.42063  0.66423  1.0000
  C   C116      1.0  0.57937  0.52773  0.66423  1.0000
  C   C117      1.0  0.47227  0.05163  0.66423  1.0000
  C   C118      1.0  0.86107  0.24603  0.00243  1.0000
  C   C119      1.0  0.38497  0.13893  0.00243  1.0000
  C   C120      1.0  0.75397  0.61503  0.00243  1.0000
  C   C121      1.0  0.61503  0.75397  0.99757  1.0000
  C   C122      1.0  0.24603  0.86107  0.99757  1.0000
  C   C123      1.0  0.13893  0.38497  0.99757  1.0000
  C   C124      1.0  0.52773  0.57937  0.33577  1.0000
  C   C125      1.0  0.05163  0.47227  0.33577  1.0000
  C   C126      1.0  0.42063  0.94837  0.33577  1.0000
  C   C127      1.0  0.71830  0.91270  0.66910  1.0000
  C   C128      1.0  0.08730  0.80560  0.66910  1.0000
  C   C129      1.0  0.19440  0.28170  0.66910  1.0000
  C   C130      1.0  0.80560  0.08730  0.33090  1.0000
  C   C131      1.0  0.28170  0.19440  0.33090  1.0000
  C   C132      1.0  0.91270  0.71830  0.33090  1.0000
  C   C133      1.0  0.05163  0.57937  0.33577  1.0000
  C   C134      1.0  0.42063  0.47227  0.33577  1.0000
  C   C135      1.0  0.52773  0.94837  0.33577  1.0000
  C   C136      1.0  0.13893  0.75397  0.99757  1.0000
  C   C137      1.0  0.61503  0.86107  0.99757  1.0000
  C   C138      1.0  0.24603  0.38497  0.99757  1.0000
  C   C139      1.0  0.38497  0.24603  0.00243  1.0000
  C   C140      1.0  0.75397  0.13893  0.00243  1.0000
  C   C141      1.0  0.86107  0.61503  0.00243  1.0000
  C   C142      1.0  0.47227  0.42063  0.66423  1.0000
  C   C143      1.0  0.94837  0.52773  0.66423  1.0000
  C   C144      1.0  0.57937  0.05163  0.66423  1.0000
  H   H37       1.0  0.25930  0.07060  0.33160  1.0000
  H   H38       1.0  0.92940  0.18870  0.33160  1.0000
  H   H39       1.0  0.81130  0.74070  0.33160  1.0000
  H   H40       1.0  0.18870  0.92940  0.66840  1.0000
  H   H41       1.0  0.74070  0.81130  0.66840  1.0000
  H   H42       1.0  0.07060  0.25930  0.66840  1.0000
  H   H43       1.0  0.92597  0.40393  0.66493  1.0000
  H   H44       1.0  0.59607  0.52203  0.66493  1.0000
  H   H45       1.0  0.47797  0.07403  0.66493  1.0000
  H   H46       1.0  0.85537  0.26273  0.00173  1.0000
  H   H47       1.0  0.40737  0.14463  0.00173  1.0000
  H   H48       1.0  0.73727  0.59263  0.00173  1.0000
  H   H49       1.0  0.59263  0.73727  0.99827  1.0000
  H   H50       1.0  0.26273  0.85537  0.99827  1.0000
  H   H51       1.0  0.14463  0.40737  0.99827  1.0000
  H   H52       1.0  0.52203  0.59607  0.33507  1.0000
  H   H53       1.0  0.07403  0.47797  0.33507  1.0000
  H   H54       1.0  0.40393  0.92597  0.33507  1.0000
  H   H55       1.0  0.74070  0.92940  0.66840  1.0000
  H   H56       1.0  0.07060  0.81130  0.66840  1.0000
  H   H57       1.0  0.18870  0.25930  0.66840  1.0000
  H   H58       1.0  0.81130  0.07060  0.33160  1.0000
  H   H59       1.0  0.25930  0.18870  0.33160  1.0000
  H   H60       1.0  0.92940  0.74070  0.33160  1.0000
  H   H61       1.0  0.07403  0.59607  0.33507  1.0000
  H   H62       1.0  0.40393  0.47797  0.33507  1.0000
  H   H63       1.0  0.52203  0.92597  0.33507  1.0000
  H   H64       1.0  0.14463  0.73727  0.99827  1.0000
  H   H65       1.0  0.59263  0.85537  0.99827  1.0000
  H   H66       1.0  0.26273  0.40737  0.99827  1.0000
  H   H67       1.0  0.40737  0.26273  0.00173  1.0000
  H   H68       1.0  0.73727  0.14463  0.00173  1.0000
  H   H69       1.0  0.85537  0.59263  0.00173  1.0000
  H   H70       1.0  0.47797  0.40393  0.66493  1.0000
  H   H71       1.0  0.92597  0.52203  0.66493  1.0000
  H   H72       1.0  0.59607  0.07403  0.66493  1.0000
  N   N1        1.0  0.27070  0.13534  0.33130  1.0000
  N   N2        1.0  0.86466  0.13536  0.33130  1.0000
  N   N3        1.0  0.86464  0.72930  0.33130  1.0000
  N   N4        1.0  0.13536  0.86466  0.66870  1.0000
  N   N5        1.0  0.72930  0.86464  0.66870  1.0000
  N   N6        1.0  0.13534  0.27070  0.66870  1.0000
  N   N7        1.0  0.93737  0.46867  0.66463  1.0000
  N   N8        1.0  0.53133  0.46869  0.66463  1.0000
  N   N9        1.0  0.53131  0.06263  0.66463  1.0000
  N   N10       1.0  0.80203  0.19799  0.00203  1.0000
  N   N11       1.0  0.39597  0.19797  0.00203  1.0000
  N   N12       1.0  0.80201  0.60403  0.00203  1.0000
  N   N13       1.0  0.60403  0.80201  0.99797  1.0000
  N   N14       1.0  0.19799  0.80203  0.99797  1.0000
  N   N15       1.0  0.19797  0.39597  0.99797  1.0000
  N   N16       1.0  0.46869  0.53133  0.33537  1.0000
  N   N17       1.0  0.06263  0.53131  0.33537  1.0000
  N   N18       1.0  0.46867  0.93737  0.33537  1.0000
  H   H73       1.0  0.24910  0.12460  0.33310  1.0000
  H   H74       1.0  0.87540  0.12450  0.33310  1.0000
  H   H75       1.0  0.87550  0.75090  0.33310  1.0000
  H   H76       1.0  0.12450  0.87540  0.66690  1.0000
  H   H77       1.0  0.75090  0.87550  0.66690  1.0000
  H   H78       1.0  0.12460  0.24910  0.66690  1.0000
  H   H79       1.0  0.91577  0.45793  0.66643  1.0000
  H   H80       1.0  0.54207  0.45783  0.66643  1.0000
  H   H81       1.0  0.54217  0.08423  0.66643  1.0000
  H   H82       1.0  0.79117  0.20873  0.00023  1.0000
  H   H83       1.0  0.41757  0.20883  0.00023  1.0000
  H   H84       1.0  0.79127  0.58243  0.00023  1.0000
  H   H85       1.0  0.58243  0.79127  0.99977  1.0000
  H   H86       1.0  0.20873  0.79117  0.99977  1.0000
  H   H87       1.0  0.20883  0.41757  0.99977  1.0000
  H   H88       1.0  0.45783  0.54207  0.33357  1.0000
  H   H89       1.0  0.08423  0.54217  0.33357  1.0000
  H   H90       1.0  0.45793  0.91577  0.33357  1.0000
  C   C145      1.0  0.32520  0.14650  0.33310  1.0000
  C   C146      1.0  0.85350  0.17870  0.33310  1.0000
  C   C147      1.0  0.82130  0.67480  0.33310  1.0000
  C   C148      1.0  0.17870  0.85350  0.66690  1.0000
  C   C149      1.0  0.67480  0.82130  0.66690  1.0000
  C   C150      1.0  0.14650  0.32520  0.66690  1.0000
  C   C151      1.0  0.99187  0.47983  0.66643  1.0000
  C   C152      1.0  0.52017  0.51203  0.66643  1.0000
  C   C153      1.0  0.48797  0.00813  0.66643  1.0000
  C   C154      1.0  0.84537  0.18683  0.00023  1.0000
  C   C155      1.0  0.34147  0.15463  0.00023  1.0000
  C   C156      1.0  0.81317  0.65853  0.00023  1.0000
  C   C157      1.0  0.65853  0.81317  0.99977  1.0000
  C   C158      1.0  0.18683  0.84537  0.99977  1.0000
  C   C159      1.0  0.15463  0.34147  0.99977  1.0000
  C   C160      1.0  0.51203  0.52017  0.33357  1.0000
  C   C161      1.0  0.00813  0.48797  0.33357  1.0000
  C   C162      1.0  0.47983  0.99187  0.33357  1.0000
  C   C163      1.0  0.67480  0.85350  0.66690  1.0000
  C   C164      1.0  0.14650  0.82130  0.66690  1.0000
  C   C165      1.0  0.17870  0.32520  0.66690  1.0000
  C   C166      1.0  0.82130  0.14650  0.33310  1.0000
  C   C167      1.0  0.32520  0.17870  0.33310  1.0000
  C   C168      1.0  0.85350  0.67480  0.33310  1.0000
  C   C169      1.0  0.00813  0.52017  0.33357  1.0000
  C   C170      1.0  0.47983  0.48797  0.33357  1.0000
  C   C171      1.0  0.51203  0.99187  0.33357  1.0000
  C   C172      1.0  0.15463  0.81317  0.99977  1.0000
  C   C173      1.0  0.65853  0.84537  0.99977  1.0000
  C   C174      1.0  0.18683  0.34147  0.99977  1.0000
  C   C175      1.0  0.34147  0.18683  0.00023  1.0000
  C   C176      1.0  0.81317  0.15463  0.00023  1.0000
  C   C177      1.0  0.84537  0.65853  0.00023  1.0000
  C   C178      1.0  0.48797  0.47983  0.66643  1.0000
  C   C179      1.0  0.99187  0.51203  0.66643  1.0000
  C   C180      1.0  0.52017  0.00813  0.66643  1.0000
  C   C181      1.0  0.30670  0.07980  0.33090  1.0000
  C   C182      1.0  0.92020  0.22690  0.33090  1.0000
  C   C183      1.0  0.77310  0.69330  0.33090  1.0000
  C   C184      1.0  0.22690  0.92020  0.66910  1.0000
  C   C185      1.0  0.69330  0.77310  0.66910  1.0000
  C   C186      1.0  0.07980  0.30670  0.66910  1.0000
  C   C187      1.0  0.97337  0.41313  0.66423  1.0000
  C   C188      1.0  0.58687  0.56023  0.66423  1.0000
  C   C189      1.0  0.43977  0.02663  0.66423  1.0000
  C   C190      1.0  0.89357  0.25353  0.00243  1.0000
  C   C191      1.0  0.35997  0.10643  0.00243  1.0000
  C   C192      1.0  0.74647  0.64003  0.00243  1.0000
  C   C193      1.0  0.64003  0.74647  0.99757  1.0000
  C   C194      1.0  0.25353  0.89357  0.99757  1.0000
  C   C195      1.0  0.10643  0.35997  0.99757  1.0000
  C   C196      1.0  0.56023  0.58687  0.33577  1.0000
  C   C197      1.0  0.02663  0.43977  0.33577  1.0000
  C   C198      1.0  0.41313  0.97337  0.33577  1.0000
  C   C199      1.0  0.69330  0.92020  0.66910  1.0000
  C   C200      1.0  0.07980  0.77310  0.66910  1.0000
  C   C201      1.0  0.22690  0.30670  0.66910  1.0000
  C   C202      1.0  0.77310  0.07980  0.33090  1.0000
  C   C203      1.0  0.30670  0.22690  0.33090  1.0000
  C   C204      1.0  0.92020  0.69330  0.33090  1.0000
  C   C205      1.0  0.02663  0.58687  0.33577  1.0000
  C   C206      1.0  0.41313  0.43977  0.33577  1.0000
  C   C207      1.0  0.56023  0.97337  0.33577  1.0000
  C   C208      1.0  0.10643  0.74647  0.99757  1.0000
  C   C209      1.0  0.64003  0.89357  0.99757  1.0000
  C   C210      1.0  0.25353  0.35997  0.99757  1.0000
  C   C211      1.0  0.35997  0.25353  0.00243  1.0000
  C   C212      1.0  0.74647  0.10643  0.00243  1.0000
  C   C213      1.0  0.89357  0.64003  0.00243  1.0000
  C   C214      1.0  0.43977  0.41313  0.66423  1.0000
  C   C215      1.0  0.97337  0.56023  0.66423  1.0000
  C   C216      1.0  0.58687  0.02663  0.66423  1.0000
  H   H91       1.0  0.30110  0.05730  0.33100  1.0000
  H   H92       1.0  0.94270  0.24380  0.33100  1.0000
  H   H93       1.0  0.75620  0.69890  0.33100  1.0000
  H   H94       1.0  0.24380  0.94270  0.66900  1.0000
  H   H95       1.0  0.69890  0.75620  0.66900  1.0000
  H   H96       1.0  0.05730  0.30110  0.66900  1.0000
  H   H97       1.0  0.96777  0.39063  0.66433  1.0000
  H   H98       1.0  0.60937  0.57713  0.66433  1.0000
  H   H99       1.0  0.42287  0.03223  0.66433  1.0000
  H   H100      1.0  0.91047  0.27603  0.00233  1.0000
  H   H101      1.0  0.36557  0.08953  0.00233  1.0000
  H   H102      1.0  0.72397  0.63443  0.00233  1.0000
  H   H103      1.0  0.63443  0.72397  0.99767  1.0000
  H   H104      1.0  0.27603  0.91047  0.99767  1.0000
  H   H105      1.0  0.08953  0.36557  0.99767  1.0000
  H   H106      1.0  0.57713  0.60937  0.33567  1.0000
  H   H107      1.0  0.03223  0.42287  0.33567  1.0000
  H   H108      1.0  0.39063  0.96777  0.33567  1.0000
  H   H109      1.0  0.69890  0.94270  0.66900  1.0000
  H   H110      1.0  0.05730  0.75620  0.66900  1.0000
  H   H111      1.0  0.24380  0.30110  0.66900  1.0000
  H   H112      1.0  0.75620  0.05730  0.33100  1.0000
  H   H113      1.0  0.30110  0.24380  0.33100  1.0000
  H   H114      1.0  0.94270  0.69890  0.33100  1.0000
  H   H115      1.0  0.03223  0.60937  0.33567  1.0000
  H   H116      1.0  0.39063  0.42287  0.33567  1.0000
  H   H117      1.0  0.57713  0.96777  0.33567  1.0000
  H   H118      1.0  0.08953  0.72397  0.99767  1.0000
  H   H119      1.0  0.63443  0.91047  0.99767  1.0000
  H   H120      1.0  0.27603  0.36557  0.99767  1.0000
  H   H121      1.0  0.36557  0.27603  0.00233  1.0000
  H   H122      1.0  0.72397  0.08953  0.00233  1.0000
  H   H123      1.0  0.91047  0.63443  0.00233  1.0000
  H   H124      1.0  0.42287  0.39063  0.66433  1.0000
  H   H125      1.0  0.96777  0.57713  0.66433  1.0000
  H   H126      1.0  0.60937  0.03223  0.66433  1.0000
  C   C217      1.0  0.29100  0.12110  0.32970  1.0000
  C   C218      1.0  0.87890  0.16990  0.32970  1.0000
  C   C219      1.0  0.83010  0.70900  0.32970  1.0000
  C   C220      1.0  0.16990  0.87890  0.67030  1.0000
  C   C221      1.0  0.70900  0.83010  0.67030  1.0000
  C   C222      1.0  0.12110  0.29100  0.67030  1.0000
  C   C223      1.0  0.95767  0.45443  0.66303  1.0000
  C   C224      1.0  0.54557  0.50323  0.66303  1.0000
  C   C225      1.0  0.49677  0.04233  0.66303  1.0000
  C   C226      1.0  0.83657  0.21223  0.00363  1.0000
  C   C227      1.0  0.37567  0.16343  0.00363  1.0000
  C   C228      1.0  0.78777  0.62433  0.00363  1.0000
  C   C229      1.0  0.62433  0.78777  0.99637  1.0000
  C   C230      1.0  0.21223  0.83657  0.99637  1.0000
  C   C231      1.0  0.16343  0.37567  0.99637  1.0000
  C   C232      1.0  0.50323  0.54557  0.33697  1.0000
  C   C233      1.0  0.04233  0.49677  0.33697  1.0000
  C   C234      1.0  0.45443  0.95767  0.33697  1.0000
  C   C235      1.0  0.70900  0.87890  0.67030  1.0000
  C   C236      1.0  0.12110  0.83010  0.67030  1.0000
  C   C237      1.0  0.16990  0.29100  0.67030  1.0000
  C   C238      1.0  0.83010  0.12110  0.32970  1.0000
  C   C239      1.0  0.29100  0.16990  0.32970  1.0000
  C   C240      1.0  0.87890  0.70900  0.32970  1.0000
  C   C241      1.0  0.04233  0.54557  0.33697  1.0000
  C   C242      1.0  0.45443  0.49677  0.33697  1.0000
  C   C243      1.0  0.50323  0.95767  0.33697  1.0000
  C   C244      1.0  0.16343  0.78777  0.99637  1.0000
  C   C245      1.0  0.62433  0.83657  0.99637  1.0000
  C   C246      1.0  0.21223  0.37567  0.99637  1.0000
  C   C247      1.0  0.37567  0.21223  0.00363  1.0000
  C   C248      1.0  0.78777  0.16343  0.00363  1.0000
  C   C249      1.0  0.83657  0.62433  0.00363  1.0000
  C   C250      1.0  0.49677  0.45443  0.66303  1.0000
  C   C251      1.0  0.95767  0.50323  0.66303  1.0000
  C   C252      1.0  0.54557  0.04233  0.66303  1.0000
  O   O109      1.0  0.41280  0.07840  0.11680  1.0000
  O   O110      1.0  0.92160  0.33440  0.11680  1.0000
  O   O111      1.0  0.66560  0.58720  0.11680  1.0000
  O   O112      1.0  0.33440  0.92160  0.88320  1.0000
  O   O113      1.0  0.58720  0.66560  0.88320  1.0000
  O   O114      1.0  0.07840  0.41280  0.88320  1.0000
  O   O115      1.0  0.07947  0.41173  0.45013  1.0000
  O   O116      1.0  0.58827  0.66773  0.45013  1.0000
  O   O117      1.0  0.33227  0.92053  0.45013  1.0000
  O   O118      1.0  0.00107  0.25493  0.21653  1.0000
  O   O119      1.0  0.25387  0.99893  0.21653  1.0000
  O   O120      1.0  0.74507  0.74613  0.21653  1.0000
  O   O121      1.0  0.74613  0.74507  0.78347  1.0000
  O   O122      1.0  0.25493  0.00107  0.78347  1.0000
  O   O123      1.0  0.99893  0.25387  0.78347  1.0000
  O   O124      1.0  0.66773  0.58827  0.54987  1.0000
  O   O125      1.0  0.92053  0.33227  0.54987  1.0000
  O   O126      1.0  0.41173  0.07947  0.54987  1.0000
  O   O127      1.0  0.58720  0.92160  0.88320  1.0000
  O   O128      1.0  0.07840  0.66560  0.88320  1.0000
  O   O129      1.0  0.33440  0.41280  0.88320  1.0000
  O   O130      1.0  0.66560  0.07840  0.11680  1.0000
  O   O131      1.0  0.41280  0.33440  0.11680  1.0000
  O   O132      1.0  0.92160  0.58720  0.11680  1.0000
  O   O133      1.0  0.92053  0.58827  0.54987  1.0000
  O   O134      1.0  0.41173  0.33227  0.54987  1.0000
  O   O135      1.0  0.66773  0.07947  0.54987  1.0000
  O   O136      1.0  0.99893  0.74507  0.78347  1.0000
  O   O137      1.0  0.74613  0.00107  0.78347  1.0000
  O   O138      1.0  0.25493  0.25387  0.78347  1.0000
  O   O139      1.0  0.25387  0.25493  0.21653  1.0000
  O   O140      1.0  0.74507  0.99893  0.21653  1.0000
  O   O141      1.0  0.00107  0.74613  0.21653  1.0000
  O   O142      1.0  0.33227  0.41173  0.45013  1.0000
  O   O143      1.0  0.07947  0.66773  0.45013  1.0000
  O   O144      1.0  0.58827  0.92053  0.45013  1.0000
  C   C253      1.0  0.44910  0.11470  0.95250  1.0000
  C   C254      1.0  0.88530  0.33440  0.95250  1.0000
  C   C255      1.0  0.66560  0.55090  0.95250  1.0000
  C   C256      1.0  0.33440  0.88530  0.04750  1.0000
  C   C257      1.0  0.55090  0.66560  0.04750  1.0000
  C   C258      1.0  0.11470  0.44910  0.04750  1.0000
  C   C259      1.0  0.11577  0.44803  0.28583  1.0000
  C   C260      1.0  0.55197  0.66773  0.28583  1.0000
  C   C261      1.0  0.33227  0.88423  0.28583  1.0000
  C   C262      1.0  0.00107  0.21863  0.38083  1.0000
  C   C263      1.0  0.21757  0.99893  0.38083  1.0000
  C   C264      1.0  0.78137  0.78243  0.38083  1.0000
  C   C265      1.0  0.78243  0.78137  0.61917  1.0000
  C   C266      1.0  0.21863  0.00107  0.61917  1.0000
  C   C267      1.0  0.99893  0.21757  0.61917  1.0000
  C   C268      1.0  0.66773  0.55197  0.71417  1.0000
  C   C269      1.0  0.88423  0.33227  0.71417  1.0000
  C   C270      1.0  0.44803  0.11577  0.71417  1.0000
  C   C271      1.0  0.55090  0.88530  0.04750  1.0000
  C   C272      1.0  0.11470  0.66560  0.04750  1.0000
  C   C273      1.0  0.33440  0.44910  0.04750  1.0000
  C   C274      1.0  0.66560  0.11470  0.95250  1.0000
  C   C275      1.0  0.44910  0.33440  0.95250  1.0000
  C   C276      1.0  0.88530  0.55090  0.95250  1.0000
  C   C277      1.0  0.88423  0.55197  0.71417  1.0000
  C   C278      1.0  0.44803  0.33227  0.71417  1.0000
  C   C279      1.0  0.66773  0.11577  0.71417  1.0000
  C   C280      1.0  0.99893  0.78137  0.61917  1.0000
  C   C281      1.0  0.78243  0.00107  0.61917  1.0000
  C   C282      1.0  0.21863  0.21757  0.61917  1.0000
  C   C283      1.0  0.21757  0.21863  0.38083  1.0000
  C   C284      1.0  0.78137  0.99893  0.38083  1.0000
  C   C285      1.0  0.00107  0.78243  0.38083  1.0000
  C   C286      1.0  0.33227  0.44803  0.28583  1.0000
  C   C287      1.0  0.11577  0.66773  0.28583  1.0000
  C   C288      1.0  0.55197  0.88423  0.28583  1.0000
  C   C289      1.0  0.44050  0.10660  0.09040  1.0000
  C   C290      1.0  0.89340  0.33390  0.09040  1.0000
  C   C291      1.0  0.66610  0.55950  0.09040  1.0000
  C   C292      1.0  0.33390  0.89340  0.90960  1.0000
  C   C293      1.0  0.55950  0.66610  0.90960  1.0000
  C   C294      1.0  0.10660  0.44050  0.90960  1.0000
  C   C295      1.0  0.10717  0.43993  0.42373  1.0000
  C   C296      1.0  0.56007  0.66723  0.42373  1.0000
  C   C297      1.0  0.33277  0.89283  0.42373  1.0000
  C   C298      1.0  0.00057  0.22673  0.24293  1.0000
  C   C299      1.0  0.22617  0.99943  0.24293  1.0000
  C   C300      1.0  0.77327  0.77383  0.24293  1.0000
  C   C301      1.0  0.77383  0.77327  0.75707  1.0000
  C   C302      1.0  0.22673  0.00057  0.75707  1.0000
  C   C303      1.0  0.99943  0.22617  0.75707  1.0000
  C   C304      1.0  0.66723  0.56007  0.57627  1.0000
  C   C305      1.0  0.89283  0.33277  0.57627  1.0000
  C   C306      1.0  0.43993  0.10717  0.57627  1.0000
  C   C307      1.0  0.55950  0.89340  0.90960  1.0000
  C   C308      1.0  0.10660  0.66610  0.90960  1.0000
  C   C309      1.0  0.33390  0.44050  0.90960  1.0000
  C   C310      1.0  0.66610  0.10660  0.09040  1.0000
  C   C311      1.0  0.44050  0.33390  0.09040  1.0000
  C   C312      1.0  0.89340  0.55950  0.09040  1.0000
  C   C313      1.0  0.89283  0.56007  0.57627  1.0000
  C   C314      1.0  0.43993  0.33277  0.57627  1.0000
  C   C315      1.0  0.66723  0.10717  0.57627  1.0000
  C   C316      1.0  0.99943  0.77327  0.75707  1.0000
  C   C317      1.0  0.77383  0.00057  0.75707  1.0000
  C   C318      1.0  0.22673  0.22617  0.75707  1.0000
  C   C319      1.0  0.22617  0.22673  0.24293  1.0000
  C   C320      1.0  0.77327  0.99943  0.24293  1.0000
  C   C321      1.0  0.00057  0.77383  0.24293  1.0000
  C   C322      1.0  0.33277  0.43993  0.42373  1.0000
  C   C323      1.0  0.10717  0.66723  0.42373  1.0000
  C   C324      1.0  0.56007  0.89283  0.42373  1.0000
  C   C325      1.0  0.47680  0.14280  0.90240  1.0000
  C   C326      1.0  0.85720  0.33400  0.90240  1.0000
  C   C327      1.0  0.66600  0.52320  0.90240  1.0000
  C   C328      1.0  0.33400  0.85720  0.09760  1.0000
  C   C329      1.0  0.52320  0.66600  0.09760  1.0000
  C   C330      1.0  0.14280  0.47680  0.09760  1.0000
  C   C331      1.0  0.14347  0.47613  0.23573  1.0000
  C   C332      1.0  0.52387  0.66733  0.23573  1.0000
  C   C333      1.0  0.33267  0.85653  0.23573  1.0000
  C   C334      1.0  0.00067  0.19053  0.43093  1.0000
  C   C335      1.0  0.18987  0.99933  0.43093  1.0000
  C   C336      1.0  0.80947  0.81013  0.43093  1.0000
  C   C337      1.0  0.81013  0.80947  0.56907  1.0000
  C   C338      1.0  0.19053  0.00067  0.56907  1.0000
  C   C339      1.0  0.99933  0.18987  0.56907  1.0000
  C   C340      1.0  0.66733  0.52387  0.76427  1.0000
  C   C341      1.0  0.85653  0.33267  0.76427  1.0000
  C   C342      1.0  0.47613  0.14347  0.76427  1.0000
  C   C343      1.0  0.52320  0.85720  0.09760  1.0000
  C   C344      1.0  0.14280  0.66600  0.09760  1.0000
  C   C345      1.0  0.33400  0.47680  0.09760  1.0000
  C   C346      1.0  0.66600  0.14280  0.90240  1.0000
  C   C347      1.0  0.47680  0.33400  0.90240  1.0000
  C   C348      1.0  0.85720  0.52320  0.90240  1.0000
  C   C349      1.0  0.85653  0.52387  0.76427  1.0000
  C   C350      1.0  0.47613  0.33267  0.76427  1.0000
  C   C351      1.0  0.66733  0.14347  0.76427  1.0000
  C   C352      1.0  0.99933  0.80947  0.56907  1.0000
  C   C353      1.0  0.81013  0.00067  0.56907  1.0000
  C   C354      1.0  0.19053  0.18987  0.56907  1.0000
  C   C355      1.0  0.18987  0.19053  0.43093  1.0000
  C   C356      1.0  0.80947  0.99933  0.43093  1.0000
  C   C357      1.0  0.00067  0.81013  0.43093  1.0000
  C   C358      1.0  0.33267  0.47613  0.23573  1.0000
  C   C359      1.0  0.14347  0.66733  0.23573  1.0000
  C   C360      1.0  0.52387  0.85653  0.23573  1.0000
  H   H127      1.0  0.49370  0.15920  0.95360  1.0000
  H   H128      1.0  0.84080  0.33450  0.95360  1.0000
  H   H129      1.0  0.66550  0.50630  0.95360  1.0000
  H   H130      1.0  0.33450  0.84080  0.04640  1.0000
  H   H131      1.0  0.50630  0.66550  0.04640  1.0000
  H   H132      1.0  0.15920  0.49370  0.04640  1.0000
  H   H133      1.0  0.16037  0.49253  0.28693  1.0000
  H   H134      1.0  0.50747  0.66783  0.28693  1.0000
  H   H135      1.0  0.33217  0.83963  0.28693  1.0000
  H   H136      1.0  0.00117  0.17413  0.37973  1.0000
  H   H137      1.0  0.17297  0.99883  0.37973  1.0000
  H   H138      1.0  0.82587  0.82703  0.37973  1.0000
  H   H139      1.0  0.82703  0.82587  0.62027  1.0000
  H   H140      1.0  0.17413  0.00117  0.62027  1.0000
  H   H141      1.0  0.99883  0.17297  0.62027  1.0000
  H   H142      1.0  0.66783  0.50747  0.71307  1.0000
  H   H143      1.0  0.83963  0.33217  0.71307  1.0000
  H   H144      1.0  0.49253  0.16037  0.71307  1.0000
  H   H145      1.0  0.50630  0.84080  0.04640  1.0000
  H   H146      1.0  0.15920  0.66550  0.04640  1.0000
  H   H147      1.0  0.33450  0.49370  0.04640  1.0000
  H   H148      1.0  0.66550  0.15920  0.95360  1.0000
  H   H149      1.0  0.49370  0.33450  0.95360  1.0000
  H   H150      1.0  0.84080  0.50630  0.95360  1.0000
  H   H151      1.0  0.83963  0.50747  0.71307  1.0000
  H   H152      1.0  0.49253  0.33217  0.71307  1.0000
  H   H153      1.0  0.66783  0.16037  0.71307  1.0000
  H   H154      1.0  0.99883  0.82587  0.62027  1.0000
  H   H155      1.0  0.82703  0.00117  0.62027  1.0000
  H   H156      1.0  0.17413  0.17297  0.62027  1.0000
  H   H157      1.0  0.17297  0.17413  0.37973  1.0000
  H   H158      1.0  0.82587  0.99883  0.37973  1.0000
  H   H159      1.0  0.00117  0.82703  0.37973  1.0000
  H   H160      1.0  0.33217  0.49253  0.28693  1.0000
  H   H161      1.0  0.16037  0.66783  0.28693  1.0000
  H   H162      1.0  0.50747  0.83963  0.28693  1.0000
  S   S1        1.0  0.42261  0.08927  0.83330  1.0000
  S   S2        1.0  0.91073  0.33334  0.83330  1.0000
  S   S3        1.0  0.66666  0.57739  0.83330  1.0000
  S   S4        1.0  0.33334  0.91073  0.16670  1.0000
  S   S5        1.0  0.57739  0.66666  0.16670  1.0000
  S   S6        1.0  0.08927  0.42261  0.16670  1.0000
  S   S7        1.0  0.00001  0.24406  0.50003  1.0000
  S   S8        1.0  0.24406  0.99999  0.50003  1.0000
  S   S9        1.0  0.75594  0.75594  0.50003  1.0000
  S   S10       1.0  0.57739  0.91073  0.16670  1.0000
  S   S11       1.0  0.08927  0.66666  0.16670  1.0000
  S   S12       1.0  0.33334  0.42261  0.16670  1.0000
  S   S13       1.0  0.66666  0.08927  0.83330  1.0000
  S   S14       1.0  0.42261  0.33334  0.83330  1.0000
  S   S15       1.0  0.91073  0.57739  0.83330  1.0000
  S   S16       1.0  0.99999  0.75594  0.49997  1.0000
  S   S17       1.0  0.75594  0.00001  0.49997  1.0000
  S   S18       1.0  0.24406  0.24406  0.49997  1.0000
