data_image0
_chemical_formula_structural       Ag4C12H4C8H4C8H4C8H8C8H4C8H4C8H4C8O32
_chemical_formula_sum              "Ag4 C68 H32 O32"
_cell_length_a       14.5138
_cell_length_b       17.2793
_cell_length_c       25.1262
_cell_angle_alpha    90
_cell_angle_beta     107.933
_cell_angle_gamma    90

_space_group_name_H-M_alt    "P 1"
_space_group_IT_number       1

loop_
  _space_group_symop_operation_xyz
  'x, y, z'

loop_
  _atom_site_type_symbol
  _atom_site_label
  _atom_site_symmetry_multiplicity
  _atom_site_fract_x
  _atom_site_fract_y
  _atom_site_fract_z
  _atom_site_occupancy
  Ag  Ag1       1.0  0.24430  0.55016  0.77319  1.0000
  Ag  Ag2       1.0  0.75570  0.05016  0.72681  1.0000
  Ag  Ag3       1.0  0.75570  0.44984  0.22681  1.0000
  Ag  Ag4       1.0  0.24430  0.94984  0.27319  1.0000
  C   C1        1.0  0.43140  0.58490  0.77970  1.0000
  C   C2        1.0  0.56860  0.08490  0.72030  1.0000
  C   C3        1.0  0.56860  0.41510  0.22030  1.0000
  C   C4        1.0  0.43140  0.91510  0.27970  1.0000
  C   C5        1.0  0.53760  0.59790  0.79160  1.0000
  C   C6        1.0  0.46240  0.09790  0.70840  1.0000
  C   C7        1.0  0.46240  0.40210  0.20840  1.0000
  C   C8        1.0  0.53760  0.90210  0.29160  1.0000
  C   C9        1.0  0.60320  0.56380  0.83950  1.0000
  C   C10       1.0  0.39680  0.06380  0.66050  1.0000
  C   C11       1.0  0.39680  0.43620  0.16050  1.0000
  C   C12       1.0  0.60320  0.93620  0.33950  1.0000
  H   H1        1.0  0.57790  0.53480  0.86290  1.0000
  H   H2        1.0  0.42210  0.03480  0.63710  1.0000
  H   H3        1.0  0.42210  0.46520  0.13710  1.0000
  H   H4        1.0  0.57790  0.96520  0.36290  1.0000
  C   C13       1.0  0.70060  0.57080  0.85330  1.0000
  C   C14       1.0  0.29940  0.07080  0.64670  1.0000
  C   C15       1.0  0.29940  0.42920  0.14670  1.0000
  C   C16       1.0  0.70060  0.92920  0.35330  1.0000
  C   C17       1.0  0.73570  0.61500  0.81530  1.0000
  C   C18       1.0  0.26430  0.11500  0.68470  1.0000
  C   C19       1.0  0.26430  0.38500  0.18470  1.0000
  C   C20       1.0  0.73570  0.88500  0.31530  1.0000
  H   H5        1.0  0.80230  0.62110  0.82370  1.0000
  H   H6        1.0  0.19770  0.12110  0.67630  1.0000
  H   H7        1.0  0.19770  0.37890  0.17630  1.0000
  H   H8        1.0  0.80230  0.87890  0.32370  1.0000
  C   C21       1.0  0.67940  0.64790  0.76880  1.0000
  C   C22       1.0  0.32060  0.14790  0.73120  1.0000
  C   C23       1.0  0.32060  0.35210  0.23120  1.0000
  C   C24       1.0  0.67940  0.85210  0.26880  1.0000
  C   C25       1.0  0.57980  0.64100  0.75680  1.0000
  C   C26       1.0  0.42020  0.14100  0.74320  1.0000
  C   C27       1.0  0.42020  0.35900  0.24320  1.0000
  C   C28       1.0  0.57980  0.85900  0.25680  1.0000
  H   H9        1.0  0.53950  0.66520  0.72510  1.0000
  H   H10       1.0  0.46050  0.16520  0.77490  1.0000
  H   H11       1.0  0.46050  0.33480  0.27490  1.0000
  H   H12       1.0  0.53950  0.83480  0.22510  1.0000
  C   C29       1.0  0.76740  0.53400  0.90500  1.0000
  C   C30       1.0  0.23260  0.03400  0.59500  1.0000
  C   C31       1.0  0.23260  0.46600  0.09500  1.0000
  C   C32       1.0  0.76740  0.96600  0.40500  1.0000
  C   C33       1.0  0.72200  0.69020  0.73080  1.0000
  C   C34       1.0  0.27800  0.19020  0.76920  1.0000
  C   C35       1.0  0.27800  0.30980  0.26920  1.0000
  C   C36       1.0  0.72200  0.80980  0.23080  1.0000
  H   H13       1.0  0.67030  0.71440  0.70150  1.0000
  H   H14       1.0  0.32970  0.21440  0.79850  1.0000
  H   H15       1.0  0.32970  0.28560  0.29850  1.0000
  H   H16       1.0  0.67030  0.78560  0.20150  1.0000
  H   H17       1.0  0.76360  0.73100  0.75170  1.0000
  H   H18       1.0  0.23640  0.23100  0.74830  1.0000
  H   H19       1.0  0.23640  0.26900  0.24830  1.0000
  H   H20       1.0  0.76360  0.76900  0.25170  1.0000
  C   C37       1.0  0.77840  0.64090  0.70500  1.0000
  C   C38       1.0  0.22160  0.14090  0.79500  1.0000
  C   C39       1.0  0.22160  0.35910  0.29500  1.0000
  C   C40       1.0  0.77840  0.85910  0.20500  1.0000
  C   C41       1.0  0.87880  0.63650  0.73170  1.0000
  C   C42       1.0  0.12120  0.13650  0.76830  1.0000
  C   C43       1.0  0.12120  0.36350  0.26830  1.0000
  C   C44       1.0  0.87880  0.86350  0.23170  1.0000
  H   H21       1.0  0.90680  0.66690  0.76300  1.0000
  H   H22       1.0  0.09320  0.16690  0.73700  1.0000
  H   H23       1.0  0.09320  0.33310  0.23700  1.0000
  H   H24       1.0  0.90680  0.83310  0.26300  1.0000
  C   C45       1.0  0.93840  0.58610  0.71150  1.0000
  C   C46       1.0  0.06160  0.08610  0.78850  1.0000
  C   C47       1.0  0.06160  0.41390  0.28850  1.0000
  C   C48       1.0  0.93840  0.91390  0.21150  1.0000
  C   C49       1.0  0.89620  0.53890  0.66610  1.0000
  C   C50       1.0  0.10380  0.03890  0.83390  1.0000
  C   C51       1.0  0.10380  0.46110  0.33390  1.0000
  C   C52       1.0  0.89620  0.96110  0.16610  1.0000
  H   H25       1.0  0.93490  0.50630  0.65260  1.0000
  H   H26       1.0  0.06510  0.00630  0.84740  1.0000
  H   H27       1.0  0.06510  0.49370  0.34740  1.0000
  H   H28       1.0  0.93490  0.99370  0.15260  1.0000
  C   C53       1.0  0.79490  0.53970  0.64000  1.0000
  C   C54       1.0  0.20510  0.03970  0.86000  1.0000
  C   C55       1.0  0.20510  0.46030  0.36000  1.0000
  C   C56       1.0  0.79490  0.96030  0.14000  1.0000
  C   C57       1.0  0.73500  0.59090  0.66190  1.0000
  C   C58       1.0  0.26500  0.09090  0.83810  1.0000
  C   C59       1.0  0.26500  0.40910  0.33810  1.0000
  C   C60       1.0  0.73500  0.90910  0.16190  1.0000
  H   H29       1.0  0.66790  0.58970  0.64680  1.0000
  H   H30       1.0  0.33210  0.08970  0.85320  1.0000
  H   H31       1.0  0.33210  0.41030  0.35320  1.0000
  H   H32       1.0  0.66790  0.91030  0.14680  1.0000
  C   C61       1.0  0.04660  0.58140  0.74110  1.0000
  C   C62       1.0  0.95340  0.08140  0.75890  1.0000
  C   C63       1.0  0.95340  0.41860  0.25890  1.0000
  C   C64       1.0  0.04660  0.91860  0.24110  1.0000
  C   C65       1.0  0.74600  0.48680  0.59170  1.0000
  C   C66       1.0  0.25400  0.98680  0.90830  1.0000
  C   C67       1.0  0.25400  0.51320  0.40830  1.0000
  C   C68       1.0  0.74600  0.01320  0.09170  1.0000
  O   O1        1.0  0.39970  0.55210  0.81330  1.0000
  O   O2        1.0  0.60030  0.05210  0.68670  1.0000
  O   O3        1.0  0.60030  0.44790  0.18670  1.0000
  O   O4        1.0  0.39970  0.94790  0.31330  1.0000
  O   O5        1.0  0.37990  0.61390  0.73389  1.0000
  O   O6        1.0  0.62010  0.11390  0.76611  1.0000
  O   O7        1.0  0.62010  0.38610  0.26611  1.0000
  O   O8        1.0  0.37990  0.88610  0.23389  1.0000
  O   O9        1.0  0.73220  0.50270  0.93706  1.0000
  O   O10       1.0  0.26780  0.00270  0.56294  1.0000
  O   O11       1.0  0.26780  0.49730  0.06294  1.0000
  O   O12       1.0  0.73220  0.99730  0.43706  1.0000
  O   O13       1.0  0.85800  0.53550  0.91122  1.0000
  O   O14       1.0  0.14200  0.03550  0.58878  1.0000
  O   O15       1.0  0.14200  0.46450  0.08878  1.0000
  O   O16       1.0  0.85800  0.96450  0.41122  1.0000
  O   O17       1.0  0.07850  0.61560  0.78650  1.0000
  O   O18       1.0  0.92150  0.11560  0.71350  1.0000
  O   O19       1.0  0.92150  0.38440  0.21350  1.0000
  O   O20       1.0  0.07850  0.88440  0.28650  1.0000
  O   O21       1.0  0.09520  0.54200  0.71720  1.0000
  O   O22       1.0  0.90480  0.04200  0.78280  1.0000
  O   O23       1.0  0.90480  0.45800  0.28280  1.0000
  O   O24       1.0  0.09520  0.95800  0.21720  1.0000
  O   O25       1.0  0.80550  0.45360  0.57115  1.0000
  O   O26       1.0  0.19450  0.95360  0.92885  1.0000
  O   O27       1.0  0.19450  0.54640  0.42885  1.0000
  O   O28       1.0  0.80550  0.04640  0.07115  1.0000
  O   O29       1.0  0.65760  0.48210  0.57676  1.0000
  O   O30       1.0  0.34240  0.98210  0.92324  1.0000
  O   O31       1.0  0.34240  0.51790  0.42324  1.0000
  O   O32       1.0  0.65760  0.01790  0.07676  1.0000
