data_image0
_chemical_formula_structural       Fe6F16O8C4H4
_chemical_formula_sum              "Fe6 F16 O8 C4 H4"
_cell_length_a       13.1593
_cell_length_b       6.6833
_cell_length_c       11.1218
_cell_angle_alpha    90
_cell_angle_beta     125.623
_cell_angle_gamma    90

_space_group_name_H-M_alt    "P 1"
_space_group_IT_number       1

loop_
  _space_group_symop_operation_xyz
  'x, y, z'

loop_
  _atom_site_type_symbol
  _atom_site_label
  _atom_site_symmetry_multiplicity
  _atom_site_fract_x
  _atom_site_fract_y
  _atom_site_fract_z
  _atom_site_occupancy
  Fe  Fe1       1.0  0.50000  0.50000  0.50000  1.0000
  Fe  Fe2       1.0  0.00000  0.00000  0.50000  1.0000
  Fe  Fe3       1.0  0.63505  0.00000  0.64442  1.0000
  Fe  Fe4       1.0  0.36495  0.00000  0.35558  1.0000
  Fe  Fe5       1.0  0.13505  0.50000  0.64442  1.0000
  Fe  Fe6       1.0  0.86495  0.50000  0.35558  1.0000
  F   F1        1.0  0.45690  0.00000  0.57600  1.0000
  F   F2        1.0  0.54310  0.00000  0.42400  1.0000
  F   F3        1.0  0.95690  0.50000  0.57600  1.0000
  F   F4        1.0  0.04310  0.50000  0.42400  1.0000
  F   F5        1.0  0.63300  0.71500  0.63360  1.0000
  F   F6        1.0  0.36700  0.71500  0.36640  1.0000
  F   F7        1.0  0.13300  0.21500  0.63360  1.0000
  F   F8        1.0  0.86700  0.21500  0.36640  1.0000
  F   F9        1.0  0.36700  0.28500  0.36640  1.0000
  F   F10       1.0  0.63300  0.28500  0.63360  1.0000
  F   F11       1.0  0.86700  0.78500  0.36640  1.0000
  F   F12       1.0  0.13300  0.78500  0.63360  1.0000
  F   F13       1.0  0.69420  0.00000  0.84460  1.0000
  F   F14       1.0  0.30580  0.00000  0.15540  1.0000
  F   F15       1.0  0.19420  0.50000  0.84460  1.0000
  F   F16       1.0  0.80580  0.50000  0.15540  1.0000
  O   O1        1.0  0.80470  0.00000  0.69160  1.0000
  O   O2        1.0  0.19530  0.00000  0.30840  1.0000
  O   O3        1.0  0.30470  0.50000  0.69160  1.0000
  O   O4        1.0  0.69530  0.50000  0.30840  1.0000
  O   O5        1.0  0.94610  0.00000  0.64670  1.0000
  O   O6        1.0  0.05390  0.00000  0.35330  1.0000
  O   O7        1.0  0.44610  0.50000  0.64670  1.0000
  O   O8        1.0  0.55390  0.50000  0.35330  1.0000
  C   C1        1.0  0.83800  0.00000  0.60680  1.0000
  C   C2        1.0  0.16200  0.00000  0.39320  1.0000
  C   C3        1.0  0.33800  0.50000  0.60680  1.0000
  C   C4        1.0  0.66200  0.50000  0.39320  1.0000
  H   H1        1.0  0.77554  0.00000  0.50558  1.0000
  H   H2        1.0  0.22446  0.00000  0.49442  1.0000
  H   H3        1.0  0.27554  0.50000  0.50558  1.0000
  H   H4        1.0  0.72446  0.50000  0.49442  1.0000
