data_image0
_chemical_formula_structural       Fe2F4O4F4Fe4C4O4H4O4F8Fe4C4F20O4H4Fe8F12O8C4H4
_chemical_formula_sum              "Fe18 F48 O24 C12 H12"
_cell_length_a       11.1869
_cell_length_b       6.6553
_cell_length_c       31.7768
_cell_angle_alpha    90
_cell_angle_beta     91.596
_cell_angle_gamma    90

_space_group_name_H-M_alt    "P 1"
_space_group_IT_number       1

loop_
  _space_group_symop_operation_xyz
  'x, y, z'

loop_
  _atom_site_type_symbol
  _atom_site_label
  _atom_site_symmetry_multiplicity
  _atom_site_fract_x
  _atom_site_fract_y
  _atom_site_fract_z
  _atom_site_occupancy
  Fe  Fe1       1.0  0.50000  0.29940  0.25000  1.0000
  Fe  Fe2       1.0  0.50000  0.70060  0.75000  1.0000
  F   F1        1.0  0.63210  0.51470  0.24961  1.0000
  F   F2        1.0  0.36790  0.51470  0.25039  1.0000
  F   F3        1.0  0.36790  0.48530  0.75039  1.0000
  F   F4        1.0  0.63210  0.48530  0.74961  1.0000
  O   O1        1.0  0.51560  0.29580  0.31651  1.0000
  O   O2        1.0  0.48440  0.29580  0.18349  1.0000
  O   O3        1.0  0.48440  0.70420  0.68349  1.0000
  O   O4        1.0  0.51560  0.70420  0.81651  1.0000
  F   F5        1.0  0.63640  0.08800  0.25037  1.0000
  F   F6        1.0  0.36360  0.08800  0.24963  1.0000
  F   F7        1.0  0.36360  0.91200  0.74963  1.0000
  F   F8        1.0  0.63640  0.91200  0.75037  1.0000
  Fe  Fe3       1.0  0.63861  0.80095  0.25329  1.0000
  Fe  Fe4       1.0  0.36139  0.80095  0.24671  1.0000
  Fe  Fe5       1.0  0.36139  0.19905  0.74671  1.0000
  Fe  Fe6       1.0  0.63861  0.19905  0.75329  1.0000
  C   C1        1.0  0.42830  0.29450  0.33940  1.0000
  C   C2        1.0  0.57170  0.29450  0.16060  1.0000
  C   C3        1.0  0.57170  0.70550  0.66060  1.0000
  C   C4        1.0  0.42830  0.70550  0.83940  1.0000
  O   O5        1.0  0.43500  0.27750  0.37914  1.0000
  O   O6        1.0  0.56500  0.27750  0.12086  1.0000
  O   O7        1.0  0.56500  0.72250  0.62086  1.0000
  O   O8        1.0  0.43500  0.72250  0.87914  1.0000
  H   H1        1.0  0.34200  0.33100  0.32900  1.0000
  H   H2        1.0  0.65800  0.33100  0.17100  1.0000
  H   H3        1.0  0.65800  0.66900  0.67100  1.0000
  H   H4        1.0  0.34200  0.66900  0.82900  1.0000
  O   O9        1.0  0.77040  0.79810  0.21267  1.0000
  O   O10       1.0  0.22960  0.79810  0.28733  1.0000
  O   O11       1.0  0.22960  0.20190  0.78733  1.0000
  O   O12       1.0  0.77040  0.20190  0.71267  1.0000
  F   F9        1.0  0.50320  0.80270  0.21027  1.0000
  F   F10       1.0  0.49680  0.80270  0.28973  1.0000
  F   F11       1.0  0.49680  0.19730  0.78973  1.0000
  F   F12       1.0  0.50320  0.19730  0.71027  1.0000
  F   F13       1.0  0.74320  0.79610  0.30066  1.0000
  F   F14       1.0  0.25680  0.79610  0.19934  1.0000
  F   F15       1.0  0.25680  0.20390  0.69934  1.0000
  F   F16       1.0  0.74320  0.20390  0.80066  1.0000
  Fe  Fe7       1.0  0.30442  0.27894  0.41953  1.0000
  Fe  Fe8       1.0  0.69558  0.27894  0.08047  1.0000
  Fe  Fe9       1.0  0.69558  0.72106  0.58047  1.0000
  Fe  Fe10      1.0  0.30442  0.72106  0.91953  1.0000
  C   C5        1.0  0.76180  0.80010  0.17270  1.0000
  C   C6        1.0  0.23820  0.80010  0.32730  1.0000
  C   C7        1.0  0.23820  0.19990  0.82730  1.0000
  C   C8        1.0  0.76180  0.19990  0.67270  1.0000
  F   F17       1.0  0.16370  0.28540  0.45639  1.0000
  F   F18       1.0  0.83630  0.28540  0.04361  1.0000
  F   F19       1.0  0.83630  0.71460  0.54361  1.0000
  F   F20       1.0  0.16370  0.71460  0.95639  1.0000
  F   F21       1.0  0.30020  0.99500  0.41797  1.0000
  F   F22       1.0  0.69980  0.99500  0.08203  1.0000
  F   F23       1.0  0.69980  0.00500  0.58203  1.0000
  F   F24       1.0  0.30020  0.00500  0.91797  1.0000
  F   F25       1.0  0.16910  0.27560  0.37682  1.0000
  F   F26       1.0  0.83090  0.27560  0.12318  1.0000
  F   F27       1.0  0.83090  0.72440  0.62318  1.0000
  F   F28       1.0  0.16910  0.72440  0.87682  1.0000
  F   F29       1.0  0.30000  0.56650  0.41518  1.0000
  F   F30       1.0  0.70000  0.56650  0.08482  1.0000
  F   F31       1.0  0.70000  0.43350  0.58482  1.0000
  F   F32       1.0  0.30000  0.43350  0.91518  1.0000
  F   F33       1.0  0.41090  0.28420  0.46652  1.0000
  F   F34       1.0  0.58910  0.28420  0.03348  1.0000
  F   F35       1.0  0.58910  0.71580  0.53348  1.0000
  F   F36       1.0  0.41090  0.71580  0.96652  1.0000
  O   O13       1.0  0.84900  0.78400  0.15009  1.0000
  O   O14       1.0  0.15100  0.78400  0.34991  1.0000
  O   O15       1.0  0.15100  0.21600  0.84991  1.0000
  O   O16       1.0  0.84900  0.21600  0.65009  1.0000
  H   H5        1.0  0.67400  0.81200  0.15400  1.0000
  H   H6        1.0  0.32600  0.81200  0.34600  1.0000
  H   H7        1.0  0.32600  0.18800  0.84600  1.0000
  H   H8        1.0  0.67400  0.18800  0.65400  1.0000
  Fe  Fe11      1.0  0.83415  0.77729  0.08350  1.0000
  Fe  Fe12      1.0  0.16585  0.77729  0.41650  1.0000
  Fe  Fe13      1.0  0.16585  0.22271  0.91650  1.0000
  Fe  Fe14      1.0  0.83415  0.22271  0.58350  1.0000
  Fe  Fe15      1.0  0.02802  0.27796  0.41386  1.0000
  Fe  Fe16      1.0  0.97198  0.27796  0.08614  1.0000
  Fe  Fe17      1.0  0.97198  0.72204  0.58614  1.0000
  Fe  Fe18      1.0  0.02802  0.72204  0.91386  1.0000
  F   F37       1.0  0.97110  0.56470  0.08494  1.0000
  F   F38       1.0  0.02890  0.56470  0.41506  1.0000
  F   F39       1.0  0.02890  0.43530  0.91506  1.0000
  F   F40       1.0  0.97110  0.43530  0.58494  1.0000
  F   F41       1.0  0.92110  0.26840  0.36665  1.0000
  F   F42       1.0  0.07890  0.26840  0.13335  1.0000
  F   F43       1.0  0.07890  0.73160  0.63335  1.0000
  F   F44       1.0  0.92110  0.73160  0.86665  1.0000
  F   F45       1.0  0.03510  0.99210  0.41806  1.0000
  F   F46       1.0  0.96490  0.99210  0.08194  1.0000
  F   F47       1.0  0.96490  0.00790  0.58194  1.0000
  F   F48       1.0  0.03510  0.00790  0.91806  1.0000
  O   O17       1.0  0.89840  0.27580  0.45460  1.0000
  O   O18       1.0  0.10160  0.27580  0.04540  1.0000
  O   O19       1.0  0.10160  0.72420  0.54540  1.0000
  O   O20       1.0  0.89840  0.72420  0.95460  1.0000
  O   O21       1.0  0.18050  0.76460  0.48295  1.0000
  O   O22       1.0  0.81950  0.76460  0.01705  1.0000
  O   O23       1.0  0.81950  0.23540  0.51705  1.0000
  O   O24       1.0  0.18050  0.23540  0.98295  1.0000
  C   C9        1.0  0.90560  0.25770  0.49410  1.0000
  C   C10       1.0  0.09440  0.25770  0.00590  1.0000
  C   C11       1.0  0.09440  0.74230  0.50590  1.0000
  C   C12       1.0  0.90560  0.74230  0.99410  1.0000
  H   H9        1.0  0.98146  0.26130  0.50684  1.0000
  H   H10       1.0  0.01854  0.26130  0.99316  1.0000
  H   H11       1.0  0.01854  0.73870  0.49316  1.0000
  H   H12       1.0  0.98146  0.73870  0.00684  1.0000
