data_image0
_chemical_formula_structural       Co12O16C12H4C4H4C4H4C8H4C4O16C12H4C4H4C4H4C8H4C4O16C12H4C4H4C4H4C8H4C4O16C12H4C4H4C4H4C8H4C4
_chemical_formula_sum              "Co12 O64 C128 H64"
_cell_length_a       18.4972
_cell_length_b       10.1886
_cell_length_c       23.0512
_cell_angle_alpha    90
_cell_angle_beta     112.389
_cell_angle_gamma    90

_space_group_name_H-M_alt    "P 1"
_space_group_IT_number       1

loop_
  _space_group_symop_operation_xyz
  'x, y, z'

loop_
  _atom_site_type_symbol
  _atom_site_label
  _atom_site_symmetry_multiplicity
  _atom_site_fract_x
  _atom_site_fract_y
  _atom_site_fract_z
  _atom_site_occupancy
  Co  Co1       1.0  0.99498  0.52200  0.24446  1.0000
  Co  Co2       1.0  0.50502  0.02200  0.25554  1.0000
  Co  Co3       1.0  0.00502  0.47800  0.75554  1.0000
  Co  Co4       1.0  0.49498  0.97800  0.74446  1.0000
  Co  Co5       1.0  0.97149  0.33771  0.12354  1.0000
  Co  Co6       1.0  0.52851  0.83771  0.37646  1.0000
  Co  Co7       1.0  0.02851  0.66229  0.87646  1.0000
  Co  Co8       1.0  0.47149  0.16229  0.62354  1.0000
  Co  Co9       1.0  0.47064  0.20970  0.13218  1.0000
  Co  Co10      1.0  0.02936  0.70970  0.36782  1.0000
  Co  Co11      1.0  0.52936  0.79030  0.86782  1.0000
  Co  Co12      1.0  0.97064  0.29030  0.63218  1.0000
  O   O1        1.0  0.10103  0.44700  0.24689  1.0000
  O   O2        1.0  0.39897  0.94700  0.25311  1.0000
  O   O3        1.0  0.89897  0.55300  0.75311  1.0000
  O   O4        1.0  0.60103  0.05300  0.74689  1.0000
  O   O5        1.0  0.08768  0.32990  0.16156  1.0000
  O   O6        1.0  0.41232  0.82990  0.33844  1.0000
  O   O7        1.0  0.91232  0.67010  0.83844  1.0000
  O   O8        1.0  0.58768  0.17010  0.66156  1.0000
  O   O9        1.0  0.43776  0.18720  0.20539  1.0000
  O   O10       1.0  0.06224  0.68720  0.29461  1.0000
  O   O11       1.0  0.56224  0.81280  0.79461  1.0000
  O   O12       1.0  0.93776  0.31280  0.70539  1.0000
  O   O13       1.0  0.32280  0.18430  0.12600  1.0000
  O   O14       1.0  0.17720  0.68430  0.37400  1.0000
  O   O15       1.0  0.67720  0.81570  0.87400  1.0000
  O   O16       1.0  0.82280  0.31570  0.62600  1.0000
  C   C1        1.0  0.12710  0.38360  0.21270  1.0000
  C   C2        1.0  0.37290  0.88360  0.28730  1.0000
  C   C3        1.0  0.87290  0.61640  0.78730  1.0000
  C   C4        1.0  0.62710  0.11640  0.71270  1.0000
  C   C5        1.0  0.21500  0.36970  0.23530  1.0000
  C   C6        1.0  0.28500  0.86970  0.26470  1.0000
  C   C7        1.0  0.78500  0.63030  0.76470  1.0000
  C   C8        1.0  0.71500  0.13030  0.73530  1.0000
  C   C9        1.0  0.26360  0.43920  0.28630  1.0000
  C   C10       1.0  0.23640  0.93920  0.21370  1.0000
  C   C11       1.0  0.73640  0.56080  0.71370  1.0000
  C   C12       1.0  0.76360  0.06080  0.78630  1.0000
  H   H1        1.0  0.24230  0.49180  0.30870  1.0000
  H   H2        1.0  0.25770  0.99180  0.19130  1.0000
  H   H3        1.0  0.75770  0.50820  0.69130  1.0000
  H   H4        1.0  0.74230  0.00820  0.80870  1.0000
  C   C13       1.0  0.34420  0.43170  0.30460  1.0000
  C   C14       1.0  0.15580  0.93170  0.19540  1.0000
  C   C15       1.0  0.65580  0.56830  0.69540  1.0000
  C   C16       1.0  0.84420  0.06830  0.80460  1.0000
  H   H5        1.0  0.37690  0.47950  0.33900  1.0000
  H   H6        1.0  0.12310  0.97950  0.16100  1.0000
  H   H7        1.0  0.62310  0.52050  0.66100  1.0000
  H   H8        1.0  0.87690  0.02050  0.83900  1.0000
  C   C17       1.0  0.37560  0.35260  0.27140  1.0000
  C   C18       1.0  0.12440  0.85260  0.22860  1.0000
  C   C19       1.0  0.62440  0.64740  0.72860  1.0000
  C   C20       1.0  0.87560  0.14740  0.77140  1.0000
  H   H9        1.0  0.42960  0.34810  0.28350  1.0000
  H   H10       1.0  0.07040  0.84810  0.21650  1.0000
  H   H11       1.0  0.57040  0.65190  0.71650  1.0000
  H   H12       1.0  0.92960  0.15190  0.78350  1.0000
  C   C21       1.0  0.32840  0.28080  0.22090  1.0000
  C   C22       1.0  0.17160  0.78080  0.27910  1.0000
  C   C23       1.0  0.67160  0.71920  0.77910  1.0000
  C   C24       1.0  0.82840  0.21920  0.72090  1.0000
  C   C25       1.0  0.24730  0.29010  0.20180  1.0000
  C   C26       1.0  0.25270  0.79010  0.29820  1.0000
  C   C27       1.0  0.75270  0.70990  0.79820  1.0000
  C   C28       1.0  0.74730  0.20990  0.70180  1.0000
  H   H13       1.0  0.21470  0.24340  0.16700  1.0000
  H   H14       1.0  0.28530  0.74340  0.33300  1.0000
  H   H15       1.0  0.78530  0.75660  0.83300  1.0000
  H   H16       1.0  0.71470  0.25660  0.66700  1.0000
  C   C29       1.0  0.36320  0.20930  0.18090  1.0000
  C   C30       1.0  0.13680  0.70930  0.31910  1.0000
  C   C31       1.0  0.63680  0.79070  0.81910  1.0000
  C   C32       1.0  0.86320  0.29070  0.68090  1.0000
  O   O17       1.0  0.89018  0.59250  0.24634  1.0000
  O   O18       1.0  0.60982  0.09250  0.25366  1.0000
  O   O19       1.0  0.10982  0.40750  0.75366  1.0000
  O   O20       1.0  0.39018  0.90750  0.74634  1.0000
  O   O21       1.0  0.91288  0.71560  0.33147  1.0000
  O   O22       1.0  0.58712  0.21560  0.16853  1.0000
  O   O23       1.0  0.08712  0.28440  0.66853  1.0000
  O   O24       1.0  0.41288  0.78440  0.83147  1.0000
  O   O25       1.0  0.56983  0.85940  0.30858  1.0000
  O   O26       1.0  0.93017  0.35940  0.19142  1.0000
  O   O27       1.0  0.43017  0.14060  0.69142  1.0000
  O   O28       1.0  0.06983  0.64060  0.80858  1.0000
  O   O29       1.0  0.69060  0.88260  0.38130  1.0000
  O   O30       1.0  0.80940  0.38260  0.11870  1.0000
  O   O31       1.0  0.30940  0.11740  0.61870  1.0000
  O   O32       1.0  0.19060  0.61740  0.88130  1.0000
  C   C33       1.0  0.86930  0.65520  0.28380  1.0000
  C   C34       1.0  0.63070  0.15520  0.21620  1.0000
  C   C35       1.0  0.13070  0.34480  0.71620  1.0000
  C   C36       1.0  0.36930  0.84480  0.78380  1.0000
  C   C37       1.0  0.78260  0.66020  0.27060  1.0000
  C   C38       1.0  0.71740  0.16020  0.22940  1.0000
  C   C39       1.0  0.21740  0.33980  0.72940  1.0000
  C   C40       1.0  0.28260  0.83980  0.77060  1.0000
  C   C41       1.0  0.73100  0.57890  0.22640  1.0000
  C   C42       1.0  0.76900  0.07890  0.27360  1.0000
  C   C43       1.0  0.26900  0.42110  0.77360  1.0000
  C   C44       1.0  0.23100  0.92110  0.72640  1.0000
  H   H17       1.0  0.74940  0.52210  0.20350  1.0000
  H   H18       1.0  0.75060  0.02210  0.29650  1.0000
  H   H19       1.0  0.25060  0.47790  0.79650  1.0000
  H   H20       1.0  0.24940  0.97790  0.70350  1.0000
  C   C45       1.0  0.65190  0.58080  0.21560  1.0000
  C   C46       1.0  0.84810  0.08080  0.28440  1.0000
  C   C47       1.0  0.34810  0.41920  0.78440  1.0000
  C   C48       1.0  0.15190  0.91920  0.71560  1.0000
  H   H21       1.0  0.61760  0.52410  0.18640  1.0000
  H   H22       1.0  0.88240  0.02410  0.31360  1.0000
  H   H23       1.0  0.38240  0.47590  0.81360  1.0000
  H   H24       1.0  0.11760  0.97590  0.68640  1.0000
  C   C49       1.0  0.62400  0.66760  0.24870  1.0000
  C   C50       1.0  0.87600  0.16760  0.25130  1.0000
  C   C51       1.0  0.37600  0.33240  0.75130  1.0000
  C   C52       1.0  0.12400  0.83240  0.74870  1.0000
  H   H25       1.0  0.57100  0.66890  0.24140  1.0000
  H   H26       1.0  0.92900  0.16890  0.25860  1.0000
  H   H27       1.0  0.42900  0.33110  0.75860  1.0000
  H   H28       1.0  0.07100  0.83110  0.74140  1.0000
  C   C53       1.0  0.67420  0.75130  0.29200  1.0000
  C   C54       1.0  0.82580  0.25130  0.20800  1.0000
  C   C55       1.0  0.32580  0.24870  0.70800  1.0000
  C   C56       1.0  0.17420  0.74870  0.79200  1.0000
  C   C57       1.0  0.75470  0.74520  0.30480  1.0000
  C   C58       1.0  0.74530  0.24520  0.19520  1.0000
  C   C59       1.0  0.24530  0.25480  0.69520  1.0000
  C   C60       1.0  0.25470  0.75480  0.80480  1.0000
  H   H29       1.0  0.78940  0.79770  0.33610  1.0000
  H   H30       1.0  0.71060  0.29770  0.16390  1.0000
  H   H31       1.0  0.21060  0.20230  0.66390  1.0000
  H   H32       1.0  0.28940  0.70230  0.83610  1.0000
  C   C61       1.0  0.64600  0.83790  0.33240  1.0000
  C   C62       1.0  0.85400  0.33790  0.16760  1.0000
  C   C63       1.0  0.35400  0.16210  0.66760  1.0000
  C   C64       1.0  0.14600  0.66210  0.83240  1.0000
  O   O33       1.0  0.01510  0.41850  0.32772  1.0000
  O   O34       1.0  0.48490  0.91850  0.17228  1.0000
  O   O35       1.0  0.98490  0.58150  0.67228  1.0000
  O   O36       1.0  0.51510  0.08150  0.82772  1.0000
  O   O37       1.0  0.04200  0.54140  0.41282  1.0000
  O   O38       1.0  0.45800  0.04140  0.08718  1.0000
  O   O39       1.0  0.95800  0.45860  0.58718  1.0000
  O   O40       1.0  0.54200  0.95860  0.91282  1.0000
  O   O41       1.0  0.06900  0.84210  0.44016  1.0000
  O   O42       1.0  0.43100  0.34210  0.05984  1.0000
  O   O43       1.0  0.93100  0.15790  0.55984  1.0000
  O   O44       1.0  0.56900  0.65790  0.94016  1.0000
  O   O45       1.0  0.02940  0.93540  0.34760  1.0000
  O   O46       1.0  0.47060  0.43540  0.15240  1.0000
  O   O47       1.0  0.97060  0.06460  0.65240  1.0000
  O   O48       1.0  0.52940  0.56460  0.84760  1.0000
  C   C65       1.0  0.03360  0.43240  0.38530  1.0000
  C   C66       1.0  0.46640  0.93240  0.11470  1.0000
  C   C67       1.0  0.96640  0.56760  0.61470  1.0000
  C   C68       1.0  0.53360  0.06760  0.88530  1.0000
  C   C69       1.0  0.04710  0.31120  0.42450  1.0000
  C   C70       1.0  0.45290  0.81120  0.07550  1.0000
  C   C71       1.0  0.95290  0.68880  0.57550  1.0000
  C   C72       1.0  0.54710  0.18880  0.92450  1.0000
  C   C73       1.0  0.06550  0.32120  0.48940  1.0000
  C   C74       1.0  0.43450  0.82120  0.01060  1.0000
  C   C75       1.0  0.93450  0.67880  0.51060  1.0000
  C   C76       1.0  0.56550  0.17880  0.98940  1.0000
  H   H33       1.0  0.06680  0.40340  0.50740  1.0000
  H   H34       1.0  0.43320  0.90340  0.99260  1.0000
  H   H35       1.0  0.93320  0.59660  0.49260  1.0000
  H   H36       1.0  0.56680  0.09660  0.00740  1.0000
  C   C77       1.0  0.08180  0.21110  0.52660  1.0000
  C   C78       1.0  0.41820  0.71110  0.97340  1.0000
  C   C79       1.0  0.91820  0.78890  0.47340  1.0000
  C   C80       1.0  0.58180  0.28890  0.02660  1.0000
  H   H37       1.0  0.09490  0.21920  0.56960  1.0000
  H   H38       1.0  0.40510  0.71920  0.93040  1.0000
  H   H39       1.0  0.90510  0.78080  0.43040  1.0000
  H   H40       1.0  0.59490  0.28080  0.06960  1.0000
  C   C81       1.0  0.07860  0.08800  0.50010  1.0000
  C   C82       1.0  0.42140  0.58800  0.99990  1.0000
  C   C83       1.0  0.92140  0.91200  0.49990  1.0000
  C   C84       1.0  0.57860  0.41200  0.00010  1.0000
  H   H41       1.0  0.09000  0.01370  0.52550  1.0000
  H   H42       1.0  0.41000  0.51370  0.97450  1.0000
  H   H43       1.0  0.91000  0.98630  0.47450  1.0000
  H   H44       1.0  0.59000  0.48630  0.02550  1.0000
  C   C85       1.0  0.05840  0.07550  0.43580  1.0000
  C   C86       1.0  0.44160  0.57550  0.06420  1.0000
  C   C87       1.0  0.94160  0.92450  0.56420  1.0000
  C   C88       1.0  0.55840  0.42450  0.93580  1.0000
  C   C89       1.0  0.04290  0.18820  0.39840  1.0000
  C   C90       1.0  0.45710  0.68820  0.10160  1.0000
  C   C91       1.0  0.95710  0.81180  0.60160  1.0000
  C   C92       1.0  0.54290  0.31180  0.89840  1.0000
  H   H45       1.0  0.02960  0.18010  0.35540  1.0000
  H   H46       1.0  0.47040  0.68010  0.14460  1.0000
  H   H47       1.0  0.97040  0.81990  0.64460  1.0000
  H   H48       1.0  0.52960  0.31990  0.85540  1.0000
  C   C93       1.0  0.05190  0.94350  0.40500  1.0000
  C   C94       1.0  0.44810  0.44350  0.09500  1.0000
  C   C95       1.0  0.94810  0.05650  0.59500  1.0000
  C   C96       1.0  0.55190  0.55650  0.90500  1.0000
  O   O49       1.0  0.97520  0.62690  0.16078  1.0000
  O   O50       1.0  0.52480  0.12690  0.33922  1.0000
  O   O51       1.0  0.02480  0.37310  0.83922  1.0000
  O   O52       1.0  0.47520  0.87310  0.66078  1.0000
  O   O53       1.0  0.95590  0.50390  0.07641  1.0000
  O   O54       1.0  0.54410  0.00390  0.42359  1.0000
  O   O55       1.0  0.04410  0.49610  0.92359  1.0000
  O   O56       1.0  0.45590  0.99610  0.57641  1.0000
  O   O57       1.0  0.92740  0.20410  0.05408  1.0000
  O   O58       1.0  0.57260  0.70410  0.44592  1.0000
  O   O59       1.0  0.07260  0.79590  0.94592  1.0000
  O   O60       1.0  0.42740  0.29590  0.55408  1.0000
  O   O61       1.0  0.97070  0.10610  0.14540  1.0000
  O   O62       1.0  0.52930  0.60610  0.35460  1.0000
  O   O63       1.0  0.02930  0.89390  0.85460  1.0000
  O   O64       1.0  0.47070  0.39390  0.64540  1.0000
  C   C97       1.0  0.95990  0.61230  0.10350  1.0000
  C   C98       1.0  0.54010  0.11230  0.39650  1.0000
  C   C99       1.0  0.04010  0.38770  0.89650  1.0000
  C   C100      1.0  0.45990  0.88770  0.60350  1.0000
  C   C101      1.0  0.94440  0.73450  0.06430  1.0000
  C   C102      1.0  0.55560  0.23450  0.43570  1.0000
  C   C103      1.0  0.05560  0.26550  0.93570  1.0000
  C   C104      1.0  0.44440  0.76550  0.56430  1.0000
  C   C105      1.0  0.92600  0.72660  0.99990  1.0000
  C   C106      1.0  0.57400  0.22660  0.50010  1.0000
  C   C107      1.0  0.07400  0.27340  0.00010  1.0000
  C   C108      1.0  0.42600  0.77340  0.49990  1.0000
  H   H49       1.0  0.92540  0.64530  0.98130  1.0000
  H   H50       1.0  0.57460  0.14530  0.51870  1.0000
  H   H51       1.0  0.07460  0.35470  0.01870  1.0000
  H   H52       1.0  0.42540  0.85470  0.48130  1.0000
  C   C109      1.0  0.90850  0.83990  0.96310  1.0000
  C   C110      1.0  0.59150  0.33990  0.53690  1.0000
  C   C111      1.0  0.09150  0.16010  0.03690  1.0000
  C   C112      1.0  0.40850  0.66010  0.46310  1.0000
  H   H53       1.0  0.89430  0.83350  0.91990  1.0000
  H   H54       1.0  0.60570  0.33350  0.58010  1.0000
  H   H55       1.0  0.10570  0.16650  0.08010  1.0000
  H   H56       1.0  0.39430  0.66650  0.41990  1.0000
  C   C113      1.0  0.91190  0.96040  0.99030  1.0000
  C   C114      1.0  0.58810  0.46040  0.50970  1.0000
  C   C115      1.0  0.08810  0.03960  0.00970  1.0000
  C   C116      1.0  0.41190  0.53960  0.49030  1.0000
  H   H57       1.0  0.90020  0.03560  0.96550  1.0000
  H   H58       1.0  0.59980  0.53560  0.53450  1.0000
  H   H59       1.0  0.09980  0.96440  0.03450  1.0000
  H   H60       1.0  0.40020  0.46440  0.46550  1.0000
  C   C117      1.0  0.93310  0.97060  0.05510  1.0000
  C   C118      1.0  0.56690  0.47060  0.44490  1.0000
  C   C119      1.0  0.06690  0.02940  0.94490  1.0000
  C   C120      1.0  0.43310  0.52940  0.55510  1.0000
  C   C121      1.0  0.94860  0.85630  0.09110  1.0000
  C   C122      1.0  0.55140  0.35630  0.40890  1.0000
  C   C123      1.0  0.05140  0.14370  0.90890  1.0000
  C   C124      1.0  0.44860  0.64370  0.59110  1.0000
  H   H61       1.0  0.96200  0.86270  0.13420  1.0000
  H   H62       1.0  0.53800  0.36270  0.36580  1.0000
  H   H63       1.0  0.03800  0.13730  0.86580  1.0000
  H   H64       1.0  0.46200  0.63730  0.63420  1.0000
  C   C125      1.0  0.94390  0.10070  0.08780  1.0000
  C   C126      1.0  0.55610  0.60070  0.41220  1.0000
  C   C127      1.0  0.05610  0.89930  0.91220  1.0000
  C   C128      1.0  0.44390  0.39930  0.58780  1.0000
