data_image0
_chemical_formula_structural       Cd24O72H8O24N128C16H8C8H8C8H8C32H8C8H8C24H8C32H8C8H8C8H8C8H8C16H8C8H8C8H8C16H8C8H8C8H8C8H8C8H8C8H8C8H8C8H8C8H8C8H8C8H8C8H8C8H8C8H8C8H8C8H8C8H8C8B16
_chemical_formula_sum              "Cd24 O96 H248 N128 C336 B16"
_cell_length_a       28.187
_cell_length_b       14.002
_cell_length_c       27.657
_cell_angle_alpha    90
_cell_angle_beta     116.228
_cell_angle_gamma    90

_space_group_name_H-M_alt    "P 1"
_space_group_IT_number       1

loop_
  _space_group_symop_operation_xyz
  'x, y, z'

loop_
  _atom_site_type_symbol
  _atom_site_label
  _atom_site_symmetry_multiplicity
  _atom_site_fract_x
  _atom_site_fract_y
  _atom_site_fract_z
  _atom_site_occupancy
  Cd  Cd1       1.0  0.19982  0.63155  0.15299  1.0000
  Cd  Cd2       1.0  0.80018  0.63155  0.34702  1.0000
  Cd  Cd3       1.0  0.69982  0.13155  0.15299  1.0000
  Cd  Cd4       1.0  0.30018  0.13155  0.34702  1.0000
  Cd  Cd5       1.0  0.80018  0.36845  0.84701  1.0000
  Cd  Cd6       1.0  0.19982  0.36845  0.65299  1.0000
  Cd  Cd7       1.0  0.30018  0.86845  0.84701  1.0000
  Cd  Cd8       1.0  0.69982  0.86845  0.65299  1.0000
  Cd  Cd9       1.0  0.40450  0.37502  0.04977  1.0000
  Cd  Cd10      1.0  0.59550  0.37502  0.45022  1.0000
  Cd  Cd11      1.0  0.90450  0.87502  0.04977  1.0000
  Cd  Cd12      1.0  0.09550  0.87502  0.45022  1.0000
  Cd  Cd13      1.0  0.59550  0.62498  0.95022  1.0000
  Cd  Cd14      1.0  0.40450  0.62498  0.54978  1.0000
  Cd  Cd15      1.0  0.09550  0.12498  0.95022  1.0000
  Cd  Cd16      1.0  0.90450  0.12498  0.54978  1.0000
  Cd  Cd17      1.0  0.12435  0.46383  0.22083  1.0000
  Cd  Cd18      1.0  0.87565  0.46383  0.27917  1.0000
  Cd  Cd19      1.0  0.62435  0.96383  0.22083  1.0000
  Cd  Cd20      1.0  0.37565  0.96383  0.27917  1.0000
  Cd  Cd21      1.0  0.87565  0.53617  0.77917  1.0000
  Cd  Cd22      1.0  0.12435  0.53617  0.72083  1.0000
  Cd  Cd23      1.0  0.37565  0.03617  0.77917  1.0000
  Cd  Cd24      1.0  0.62435  0.03617  0.72083  1.0000
  O   O1        1.0  0.17927  0.47081  0.14634  1.0000
  O   O2        1.0  0.82073  0.47081  0.35366  1.0000
  O   O3        1.0  0.67927  0.97081  0.14634  1.0000
  O   O4        1.0  0.32073  0.97081  0.35366  1.0000
  O   O5        1.0  0.82073  0.52919  0.85366  1.0000
  O   O6        1.0  0.17927  0.52919  0.64634  1.0000
  O   O7        1.0  0.32073  0.02919  0.85366  1.0000
  O   O8        1.0  0.67927  0.02919  0.64634  1.0000
  O   O9        1.0  0.34035  0.50180  0.11905  1.0000
  O   O10       1.0  0.65965  0.50180  0.38095  1.0000
  O   O11       1.0  0.84035  0.00180  0.11905  1.0000
  O   O12       1.0  0.15965  0.00180  0.38095  1.0000
  O   O13       1.0  0.65965  0.49820  0.88095  1.0000
  O   O14       1.0  0.34035  0.49820  0.61905  1.0000
  O   O15       1.0  0.15965  0.99820  0.88095  1.0000
  O   O16       1.0  0.84035  0.99820  0.61905  1.0000
  O   O17       1.0  0.18460  0.37369  0.21237  1.0000
  O   O18       1.0  0.81540  0.37369  0.28763  1.0000
  O   O19       1.0  0.68460  0.87369  0.21237  1.0000
  O   O20       1.0  0.31540  0.87369  0.28763  1.0000
  O   O21       1.0  0.81540  0.62631  0.78763  1.0000
  O   O22       1.0  0.18460  0.62631  0.71237  1.0000
  O   O23       1.0  0.31540  0.12631  0.78763  1.0000
  O   O24       1.0  0.68460  0.12631  0.71237  1.0000
  O   O25       1.0  0.31795  0.10763  0.27146  1.0000
  O   O26       1.0  0.68205  0.10763  0.22854  1.0000
  O   O27       1.0  0.81795  0.60763  0.27146  1.0000
  O   O28       1.0  0.18205  0.60763  0.22854  1.0000
  O   O29       1.0  0.68205  0.89237  0.72854  1.0000
  O   O30       1.0  0.31795  0.89237  0.77146  1.0000
  O   O31       1.0  0.18205  0.39237  0.72854  1.0000
  O   O32       1.0  0.81795  0.39237  0.77146  1.0000
  O   O33       1.0  0.10371  0.94904  0.96907  1.0000
  O   O34       1.0  0.89629  0.94904  0.53093  1.0000
  O   O35       1.0  0.60371  0.44904  0.96907  1.0000
  O   O36       1.0  0.39629  0.44904  0.53093  1.0000
  O   O37       1.0  0.89629  0.05096  0.03093  1.0000
  O   O38       1.0  0.10371  0.05096  0.46907  1.0000
  O   O39       1.0  0.39629  0.55096  0.03093  1.0000
  O   O40       1.0  0.60371  0.55096  0.46907  1.0000
  O   O41       1.0  0.10426  0.66249  0.09745  1.0000
  O   O42       1.0  0.89574  0.66249  0.40255  1.0000
  O   O43       1.0  0.60426  0.16249  0.09745  1.0000
  O   O44       1.0  0.39574  0.16249  0.40255  1.0000
  O   O45       1.0  0.89574  0.33751  0.90255  1.0000
  O   O46       1.0  0.10426  0.33751  0.59745  1.0000
  O   O47       1.0  0.39574  0.83751  0.90255  1.0000
  O   O48       1.0  0.60426  0.83751  0.59745  1.0000
  O   O49       1.0  0.38598  0.36840  0.12425  1.0000
  O   O50       1.0  0.61402  0.36840  0.37575  1.0000
  O   O51       1.0  0.88598  0.86840  0.12425  1.0000
  O   O52       1.0  0.11402  0.86840  0.37575  1.0000
  O   O53       1.0  0.61402  0.63160  0.87575  1.0000
  O   O54       1.0  0.38598  0.63160  0.62425  1.0000
  O   O55       1.0  0.11402  0.13160  0.87575  1.0000
  O   O56       1.0  0.88598  0.13160  0.62425  1.0000
  O   O57       1.0  0.94711  0.65690  0.81213  1.0000
  O   O58       1.0  0.05289  0.65690  0.68787  1.0000
  O   O59       1.0  0.44711  0.15690  0.81213  1.0000
  O   O60       1.0  0.55289  0.15690  0.68787  1.0000
  O   O61       1.0  0.05289  0.34310  0.18787  1.0000
  O   O62       1.0  0.94711  0.34310  0.31213  1.0000
  O   O63       1.0  0.55289  0.84310  0.18787  1.0000
  O   O64       1.0  0.44711  0.84310  0.31213  1.0000
  O   O65       1.0  0.10242  0.88170  0.89586  1.0000
  O   O66       1.0  0.89758  0.88170  0.60414  1.0000
  O   O67       1.0  0.60242  0.38170  0.89586  1.0000
  O   O68       1.0  0.39758  0.38170  0.60414  1.0000
  O   O69       1.0  0.89758  0.11830  0.10414  1.0000
  O   O70       1.0  0.10242  0.11830  0.39586  1.0000
  O   O71       1.0  0.39758  0.61830  0.10414  1.0000
  O   O72       1.0  0.60242  0.61830  0.39586  1.0000
  H   H1        1.0  0.12380  0.92260  0.89780  1.0000
  H   H2        1.0  0.87620  0.92260  0.60220  1.0000
  H   H3        1.0  0.62380  0.42260  0.89780  1.0000
  H   H4        1.0  0.37620  0.42260  0.60220  1.0000
  H   H5        1.0  0.87620  0.07740  0.10220  1.0000
  H   H6        1.0  0.12380  0.07740  0.39780  1.0000
  H   H7        1.0  0.37620  0.57740  0.10220  1.0000
  H   H8        1.0  0.62380  0.57740  0.39780  1.0000
  O   O73       1.0  0.94272  0.54126  0.86322  1.0000
  O   O74       1.0  0.05728  0.54126  0.63678  1.0000
  O   O75       1.0  0.44272  0.04126  0.86322  1.0000
  O   O76       1.0  0.55728  0.04126  0.63678  1.0000
  O   O77       1.0  0.05728  0.45874  0.13678  1.0000
  O   O78       1.0  0.94272  0.45874  0.36322  1.0000
  O   O79       1.0  0.55728  0.95874  0.13678  1.0000
  O   O80       1.0  0.44272  0.95874  0.36322  1.0000
  O   O81       1.0  0.06119  0.53560  0.05244  1.0000
  O   O82       1.0  0.93881  0.53560  0.44756  1.0000
  O   O83       1.0  0.56119  0.03560  0.05244  1.0000
  O   O84       1.0  0.43881  0.03560  0.44756  1.0000
  O   O85       1.0  0.93881  0.46440  0.94756  1.0000
  O   O86       1.0  0.06119  0.46440  0.55244  1.0000
  O   O87       1.0  0.43881  0.96440  0.94756  1.0000
  O   O88       1.0  0.56119  0.96440  0.55244  1.0000
  O   O89       1.0  0.38485  0.11850  0.25161  1.0000
  O   O90       1.0  0.61515  0.11850  0.24839  1.0000
  O   O91       1.0  0.88485  0.61850  0.25161  1.0000
  O   O92       1.0  0.11515  0.61850  0.24839  1.0000
  O   O93       1.0  0.61515  0.88150  0.74839  1.0000
  O   O94       1.0  0.38485  0.88150  0.75161  1.0000
  O   O95       1.0  0.11515  0.38150  0.74839  1.0000
  O   O96       1.0  0.88485  0.38150  0.75161  1.0000
  N   N1        1.0  0.10859  0.08480  0.11115  1.0000
  N   N2        1.0  0.89141  0.08480  0.38885  1.0000
  N   N3        1.0  0.60859  0.58480  0.11115  1.0000
  N   N4        1.0  0.39141  0.58480  0.38885  1.0000
  N   N5        1.0  0.89141  0.91520  0.88885  1.0000
  N   N6        1.0  0.10859  0.91520  0.61115  1.0000
  N   N7        1.0  0.39141  0.41520  0.88885  1.0000
  N   N8        1.0  0.60859  0.41520  0.61115  1.0000
  N   N9        1.0  0.21434  0.11500  0.28707  1.0000
  N   N10       1.0  0.78566  0.11500  0.21293  1.0000
  N   N11       1.0  0.71434  0.61500  0.28707  1.0000
  N   N12       1.0  0.28566  0.61500  0.21293  1.0000
  N   N13       1.0  0.78566  0.88500  0.71293  1.0000
  N   N14       1.0  0.21434  0.88500  0.78707  1.0000
  N   N15       1.0  0.28566  0.38500  0.71293  1.0000
  N   N16       1.0  0.71434  0.38500  0.78707  1.0000
  N   N17       1.0  0.31427  0.38420  0.99197  1.0000
  N   N18       1.0  0.68573  0.38420  0.50803  1.0000
  N   N19       1.0  0.81427  0.88420  0.99197  1.0000
  N   N20       1.0  0.18573  0.88420  0.50803  1.0000
  N   N21       1.0  0.68573  0.61580  0.00803  1.0000
  N   N22       1.0  0.31427  0.61580  0.49197  1.0000
  N   N23       1.0  0.18573  0.11580  0.00803  1.0000
  N   N24       1.0  0.81427  0.11580  0.49197  1.0000
  N   N25       1.0  0.23037  0.43290  0.95485  1.0000
  N   N26       1.0  0.76963  0.43290  0.54515  1.0000
  N   N27       1.0  0.73037  0.93290  0.95485  1.0000
  N   N28       1.0  0.26963  0.93290  0.54515  1.0000
  N   N29       1.0  0.76963  0.56710  0.04515  1.0000
  N   N30       1.0  0.23037  0.56710  0.45485  1.0000
  N   N31       1.0  0.26963  0.06710  0.04515  1.0000
  N   N32       1.0  0.73037  0.06710  0.45485  1.0000
  N   N33       1.0  0.19284  0.79320  0.15191  1.0000
  N   N34       1.0  0.80716  0.79320  0.34809  1.0000
  N   N35       1.0  0.69284  0.29320  0.15191  1.0000
  N   N36       1.0  0.30716  0.29320  0.34809  1.0000
  N   N37       1.0  0.80716  0.20680  0.84809  1.0000
  N   N38       1.0  0.19284  0.20680  0.65191  1.0000
  N   N39       1.0  0.30716  0.70680  0.84809  1.0000
  N   N40       1.0  0.69284  0.70680  0.65191  1.0000
  N   N41       1.0  0.06881  0.96700  0.15102  1.0000
  N   N42       1.0  0.93119  0.96700  0.34898  1.0000
  N   N43       1.0  0.56881  0.46700  0.15102  1.0000
  N   N44       1.0  0.43119  0.46700  0.34898  1.0000
  N   N45       1.0  0.93119  0.03300  0.84898  1.0000
  N   N46       1.0  0.06881  0.03300  0.65102  1.0000
  N   N47       1.0  0.43119  0.53300  0.84898  1.0000
  N   N48       1.0  0.56881  0.53300  0.65102  1.0000
  N   N49       1.0  0.13586  0.42260  0.93714  1.0000
  N   N50       1.0  0.86414  0.42260  0.56286  1.0000
  N   N51       1.0  0.63586  0.92260  0.93714  1.0000
  N   N52       1.0  0.36414  0.92260  0.56286  1.0000
  N   N53       1.0  0.86414  0.57740  0.06286  1.0000
  N   N54       1.0  0.13586  0.57740  0.43714  1.0000
  N   N55       1.0  0.36414  0.07740  0.06286  1.0000
  N   N56       1.0  0.63586  0.07740  0.43714  1.0000
  N   N57       1.0  0.20305  0.61310  0.07204  1.0000
  N   N58       1.0  0.79695  0.61310  0.42796  1.0000
  N   N59       1.0  0.70305  0.11310  0.07204  1.0000
  N   N60       1.0  0.29695  0.11310  0.42796  1.0000
  N   N61       1.0  0.79695  0.38690  0.92796  1.0000
  N   N62       1.0  0.20305  0.38690  0.57204  1.0000
  N   N63       1.0  0.29695  0.88690  0.92796  1.0000
  N   N64       1.0  0.70305  0.88690  0.57204  1.0000
  N   N65       1.0  0.19263  0.55960  0.99217  1.0000
  N   N66       1.0  0.80737  0.55960  0.50783  1.0000
  N   N67       1.0  0.69263  0.05960  0.99217  1.0000
  N   N68       1.0  0.30737  0.05960  0.50783  1.0000
  N   N69       1.0  0.80737  0.44040  0.00783  1.0000
  N   N70       1.0  0.19263  0.44040  0.49217  1.0000
  N   N71       1.0  0.30737  0.94040  0.00783  1.0000
  N   N72       1.0  0.69263  0.94040  0.49217  1.0000
  N   N73       1.0  0.14890  0.06090  0.21200  1.0000
  N   N74       1.0  0.85110  0.06090  0.28800  1.0000
  N   N75       1.0  0.64890  0.56090  0.21200  1.0000
  N   N76       1.0  0.35110  0.56090  0.28800  1.0000
  N   N77       1.0  0.85110  0.93910  0.78800  1.0000
  N   N78       1.0  0.14890  0.93910  0.71200  1.0000
  N   N79       1.0  0.35110  0.43910  0.78800  1.0000
  N   N80       1.0  0.64890  0.43910  0.71200  1.0000
  N   N81       1.0  0.08361  0.13460  0.02706  1.0000
  N   N82       1.0  0.91639  0.13460  0.47294  1.0000
  N   N83       1.0  0.58361  0.63460  0.02706  1.0000
  N   N84       1.0  0.41639  0.63460  0.47294  1.0000
  N   N85       1.0  0.91639  0.86540  0.97294  1.0000
  N   N86       1.0  0.08361  0.86540  0.52706  1.0000
  N   N87       1.0  0.41639  0.36540  0.97294  1.0000
  N   N88       1.0  0.58361  0.36540  0.52706  1.0000
  N   N89       1.0  0.16344  0.55160  0.89225  1.0000
  N   N90       1.0  0.83656  0.55160  0.60775  1.0000
  N   N91       1.0  0.66344  0.05160  0.89225  1.0000
  N   N92       1.0  0.33656  0.05160  0.60775  1.0000
  N   N93       1.0  0.83656  0.44840  0.10775  1.0000
  N   N94       1.0  0.16344  0.44840  0.39225  1.0000
  N   N95       1.0  0.33656  0.94840  0.10775  1.0000
  N   N96       1.0  0.66344  0.94840  0.39225  1.0000
  N   N97       1.0  0.15704  0.93480  0.15074  1.0000
  N   N98       1.0  0.84296  0.93480  0.34926  1.0000
  N   N99       1.0  0.65704  0.43480  0.15074  1.0000
  N   N100      1.0  0.34296  0.43480  0.34926  1.0000
  N   N101      1.0  0.84296  0.06520  0.84926  1.0000
  N   N102      1.0  0.15704  0.06520  0.65074  1.0000
  N   N103      1.0  0.34296  0.56520  0.84926  1.0000
  N   N104      1.0  0.65704  0.56520  0.65074  1.0000
  N   N105      1.0  0.98734  0.90810  0.11247  1.0000
  N   N106      1.0  0.01266  0.90810  0.38753  1.0000
  N   N107      1.0  0.48734  0.40810  0.11247  1.0000
  N   N108      1.0  0.51266  0.40810  0.38753  1.0000
  N   N109      1.0  0.01266  0.09190  0.88753  1.0000
  N   N110      1.0  0.98734  0.09190  0.61247  1.0000
  N   N111      1.0  0.51266  0.59190  0.88753  1.0000
  N   N112      1.0  0.48734  0.59190  0.61247  1.0000
  N   N113      1.0  0.13723  0.57640  0.80465  1.0000
  N   N114      1.0  0.86277  0.57640  0.69535  1.0000
  N   N115      1.0  0.63723  0.07640  0.80465  1.0000
  N   N116      1.0  0.36277  0.07640  0.69535  1.0000
  N   N117      1.0  0.86277  0.42360  0.19535  1.0000
  N   N118      1.0  0.13723  0.42360  0.30465  1.0000
  N   N119      1.0  0.36277  0.92360  0.19535  1.0000
  N   N120      1.0  0.63723  0.92360  0.30465  1.0000
  N   N121      1.0  0.09590  0.28950  0.94339  1.0000
  N   N122      1.0  0.90410  0.28950  0.55661  1.0000
  N   N123      1.0  0.59590  0.78950  0.94339  1.0000
  N   N124      1.0  0.40410  0.78950  0.55661  1.0000
  N   N125      1.0  0.90410  0.71050  0.05661  1.0000
  N   N126      1.0  0.09590  0.71050  0.44339  1.0000
  N   N127      1.0  0.40410  0.21050  0.05661  1.0000
  N   N128      1.0  0.59590  0.21050  0.44339  1.0000
  C   C1        1.0  0.06882  0.79260  0.94508  1.0000
  C   C2        1.0  0.93118  0.79260  0.55492  1.0000
  C   C3        1.0  0.56882  0.29260  0.94508  1.0000
  C   C4        1.0  0.43118  0.29260  0.55492  1.0000
  C   C5        1.0  0.93118  0.20740  0.05492  1.0000
  C   C6        1.0  0.06882  0.20740  0.44508  1.0000
  C   C7        1.0  0.43118  0.70740  0.05492  1.0000
  C   C8        1.0  0.56882  0.70740  0.44508  1.0000
  C   C9        1.0  0.22414  0.86260  0.14536  1.0000
  C   C10       1.0  0.77586  0.86260  0.35464  1.0000
  C   C11       1.0  0.72414  0.36260  0.14536  1.0000
  C   C12       1.0  0.27586  0.36260  0.35464  1.0000
  C   C13       1.0  0.77586  0.13740  0.85464  1.0000
  C   C14       1.0  0.22414  0.13740  0.64536  1.0000
  C   C15       1.0  0.27586  0.63740  0.85464  1.0000
  C   C16       1.0  0.72414  0.63740  0.64536  1.0000
  H   H9        1.0  0.25530  0.85160  0.14250  1.0000
  H   H10       1.0  0.74470  0.85160  0.35750  1.0000
  H   H11       1.0  0.75530  0.35160  0.14250  1.0000
  H   H12       1.0  0.24470  0.35160  0.35750  1.0000
  H   H13       1.0  0.74470  0.14840  0.85750  1.0000
  H   H14       1.0  0.25530  0.14840  0.64250  1.0000
  H   H15       1.0  0.24470  0.64840  0.85750  1.0000
  H   H16       1.0  0.75530  0.64840  0.64250  1.0000
  C   C17       1.0  0.01123  0.87950  0.16522  1.0000
  C   C18       1.0  0.98877  0.87950  0.33478  1.0000
  C   C19       1.0  0.51123  0.37950  0.16522  1.0000
  C   C20       1.0  0.48877  0.37950  0.33478  1.0000
  C   C21       1.0  0.98877  0.12050  0.83478  1.0000
  C   C22       1.0  0.01123  0.12050  0.66522  1.0000
  C   C23       1.0  0.48877  0.62050  0.83478  1.0000
  C   C24       1.0  0.51123  0.62050  0.66522  1.0000
  H   H17       1.0  0.99580  0.84160  0.18190  1.0000
  H   H18       1.0  0.00420  0.84160  0.31810  1.0000
  H   H19       1.0  0.49580  0.34160  0.18190  1.0000
  H   H20       1.0  0.50420  0.34160  0.31810  1.0000
  H   H21       1.0  0.00420  0.15840  0.81810  1.0000
  H   H22       1.0  0.99580  0.15840  0.68190  1.0000
  H   H23       1.0  0.50420  0.65840  0.81810  1.0000
  H   H24       1.0  0.49580  0.65840  0.68190  1.0000
  C   C25       1.0  0.27247  0.27840  0.21360  1.0000
  C   C26       1.0  0.72753  0.27840  0.28640  1.0000
  C   C27       1.0  0.77247  0.77840  0.21360  1.0000
  C   C28       1.0  0.22753  0.77840  0.28640  1.0000
  C   C29       1.0  0.72753  0.72160  0.78640  1.0000
  C   C30       1.0  0.27247  0.72160  0.71360  1.0000
  C   C31       1.0  0.22753  0.22160  0.78640  1.0000
  C   C32       1.0  0.77247  0.22160  0.71360  1.0000
  H   H25       1.0  0.25520  0.24930  0.23160  1.0000
  H   H26       1.0  0.74480  0.24930  0.26840  1.0000
  H   H27       1.0  0.75520  0.74930  0.23160  1.0000
  H   H28       1.0  0.24480  0.74930  0.26840  1.0000
  H   H29       1.0  0.74480  0.75070  0.76840  1.0000
  H   H30       1.0  0.25520  0.75070  0.73160  1.0000
  H   H31       1.0  0.24480  0.25070  0.76840  1.0000
  H   H32       1.0  0.75520  0.25070  0.73160  1.0000
  C   C33       1.0  0.32494  0.36690  0.16114  1.0000
  C   C34       1.0  0.67506  0.36690  0.33886  1.0000
  C   C35       1.0  0.82494  0.86690  0.16114  1.0000
  C   C36       1.0  0.17506  0.86690  0.33886  1.0000
  C   C37       1.0  0.67506  0.63310  0.83886  1.0000
  C   C38       1.0  0.32494  0.63310  0.66114  1.0000
  C   C39       1.0  0.17506  0.13310  0.83886  1.0000
  C   C40       1.0  0.82494  0.13310  0.66114  1.0000
  C   C41       1.0  0.31987  0.24090  0.21799  1.0000
  C   C42       1.0  0.68013  0.24090  0.28201  1.0000
  C   C43       1.0  0.81987  0.74090  0.21799  1.0000
  C   C44       1.0  0.18013  0.74090  0.28201  1.0000
  C   C45       1.0  0.68013  0.75910  0.78201  1.0000
  C   C46       1.0  0.31987  0.75910  0.71799  1.0000
  C   C47       1.0  0.18013  0.25910  0.78201  1.0000
  C   C48       1.0  0.81987  0.25910  0.71799  1.0000
  C   C49       1.0  0.09391  0.88280  0.93767  1.0000
  C   C50       1.0  0.90609  0.88280  0.56233  1.0000
  C   C51       1.0  0.59391  0.38280  0.93767  1.0000
  C   C52       1.0  0.40609  0.38280  0.56233  1.0000
  C   C53       1.0  0.90609  0.11720  0.06233  1.0000
  C   C54       1.0  0.09391  0.11720  0.43767  1.0000
  C   C55       1.0  0.40609  0.61720  0.06233  1.0000
  C   C56       1.0  0.59391  0.61720  0.43767  1.0000
  C   C57       1.0  0.02344  0.62350  0.95571  1.0000
  C   C58       1.0  0.97656  0.62350  0.54429  1.0000
  C   C59       1.0  0.52344  0.12350  0.95571  1.0000
  C   C60       1.0  0.47656  0.12350  0.54429  1.0000
  C   C61       1.0  0.97656  0.37650  0.04429  1.0000
  C   C62       1.0  0.02344  0.37650  0.45571  1.0000
  C   C63       1.0  0.47656  0.87650  0.04429  1.0000
  C   C64       1.0  0.52344  0.87650  0.45571  1.0000
  H   H33       1.0  0.00900  0.56570  0.95940  1.0000
  H   H34       1.0  0.99100  0.56570  0.54060  1.0000
  H   H35       1.0  0.50900  0.06570  0.95940  1.0000
  H   H36       1.0  0.49100  0.06570  0.54060  1.0000
  H   H37       1.0  0.99100  0.43430  0.04060  1.0000
  H   H38       1.0  0.00900  0.43430  0.45940  1.0000
  H   H39       1.0  0.49100  0.93430  0.04060  1.0000
  H   H40       1.0  0.50900  0.93430  0.45940  1.0000
  C   C65       1.0  0.23478  0.35700  0.92494  1.0000
  C   C66       1.0  0.76522  0.35700  0.57506  1.0000
  C   C67       1.0  0.73478  0.85700  0.92494  1.0000
  C   C68       1.0  0.26522  0.85700  0.57506  1.0000
  C   C69       1.0  0.76522  0.64300  0.07506  1.0000
  C   C70       1.0  0.23478  0.64300  0.42494  1.0000
  C   C71       1.0  0.26522  0.14300  0.07506  1.0000
  C   C72       1.0  0.73478  0.14300  0.42494  1.0000
  H   H41       1.0  0.20740  0.33020  0.89470  1.0000
  H   H42       1.0  0.79260  0.33020  0.60530  1.0000
  H   H43       1.0  0.70740  0.83020  0.89470  1.0000
  H   H44       1.0  0.29260  0.83020  0.60530  1.0000
  H   H45       1.0  0.79260  0.66980  0.10530  1.0000
  H   H46       1.0  0.20740  0.66980  0.39470  1.0000
  H   H47       1.0  0.29260  0.16980  0.10530  1.0000
  H   H48       1.0  0.70740  0.16980  0.39470  1.0000
  C   C73       1.0  0.06121  0.66890  0.00129  1.0000
  C   C74       1.0  0.93879  0.66890  0.49871  1.0000
  C   C75       1.0  0.56121  0.16890  0.00129  1.0000
  C   C76       1.0  0.43879  0.16890  0.49871  1.0000
  C   C77       1.0  0.93879  0.33110  0.99871  1.0000
  C   C78       1.0  0.06121  0.33110  0.50129  1.0000
  C   C79       1.0  0.43879  0.83110  0.99871  1.0000
  C   C80       1.0  0.56121  0.83110  0.50129  1.0000
  C   C81       1.0  0.34284  0.15110  0.24974  1.0000
  C   C82       1.0  0.65716  0.15110  0.25026  1.0000
  C   C83       1.0  0.84284  0.65110  0.24974  1.0000
  C   C84       1.0  0.15716  0.65110  0.25026  1.0000
  C   C85       1.0  0.65716  0.84890  0.75026  1.0000
  C   C86       1.0  0.34284  0.84890  0.74974  1.0000
  C   C87       1.0  0.15716  0.34890  0.75026  1.0000
  C   C88       1.0  0.84284  0.34890  0.74974  1.0000
  C   C89       1.0  0.03089  0.74690  0.89959  1.0000
  C   C90       1.0  0.96911  0.74690  0.60041  1.0000
  C   C91       1.0  0.53089  0.24690  0.89959  1.0000
  C   C92       1.0  0.46911  0.24690  0.60041  1.0000
  C   C93       1.0  0.96911  0.25310  0.10041  1.0000
  C   C94       1.0  0.03089  0.25310  0.39959  1.0000
  C   C95       1.0  0.46911  0.75310  0.10041  1.0000
  C   C96       1.0  0.53089  0.75310  0.39959  1.0000
  H   H49       1.0  0.02150  0.77250  0.86550  1.0000
  H   H50       1.0  0.97850  0.77250  0.63450  1.0000
  H   H51       1.0  0.52150  0.27250  0.86550  1.0000
  H   H52       1.0  0.47850  0.27250  0.63450  1.0000
  H   H53       1.0  0.97850  0.22750  0.13450  1.0000
  H   H54       1.0  0.02150  0.22750  0.36550  1.0000
  H   H55       1.0  0.47850  0.72750  0.13450  1.0000
  H   H56       1.0  0.52150  0.72750  0.36550  1.0000
  C   C97       1.0  0.35338  0.41520  0.13283  1.0000
  C   C98       1.0  0.64662  0.41520  0.36717  1.0000
  C   C99       1.0  0.85338  0.91520  0.13283  1.0000
  C   C100      1.0  0.14662  0.91520  0.36717  1.0000
  C   C101      1.0  0.64662  0.58480  0.86717  1.0000
  C   C102      1.0  0.35338  0.58480  0.63283  1.0000
  C   C103      1.0  0.14662  0.08480  0.86717  1.0000
  C   C104      1.0  0.85338  0.08480  0.63283  1.0000
  C   C105      1.0  0.20082  0.40460  0.17956  1.0000
  C   C106      1.0  0.79918  0.40460  0.32044  1.0000
  C   C107      1.0  0.70082  0.90460  0.17956  1.0000
  C   C108      1.0  0.29918  0.90460  0.32044  1.0000
  C   C109      1.0  0.79918  0.59540  0.82044  1.0000
  C   C110      1.0  0.20082  0.59540  0.67956  1.0000
  C   C111      1.0  0.29918  0.09540  0.82044  1.0000
  C   C112      1.0  0.70082  0.09540  0.67956  1.0000
  C   C113      1.0  0.96363  0.61850  0.85702  1.0000
  C   C114      1.0  0.03637  0.61850  0.64298  1.0000
  C   C115      1.0  0.46363  0.11850  0.85702  1.0000
  C   C116      1.0  0.53637  0.11850  0.64298  1.0000
  C   C117      1.0  0.03637  0.38150  0.14298  1.0000
  C   C118      1.0  0.96363  0.38150  0.35702  1.0000
  C   C119      1.0  0.53637  0.88150  0.14298  1.0000
  C   C120      1.0  0.46363  0.88150  0.35702  1.0000
  C   C121      1.0  0.06079  0.91520  0.18914  1.0000
  C   C122      1.0  0.93921  0.91520  0.31086  1.0000
  C   C123      1.0  0.56079  0.41520  0.18914  1.0000
  C   C124      1.0  0.43921  0.41520  0.31086  1.0000
  C   C125      1.0  0.93921  0.08480  0.81086  1.0000
  C   C126      1.0  0.06079  0.08480  0.68914  1.0000
  C   C127      1.0  0.43921  0.58480  0.81086  1.0000
  C   C128      1.0  0.56079  0.58480  0.68914  1.0000
  H   H57       1.0  0.08510  0.90640  0.22490  1.0000
  H   H58       1.0  0.91490  0.90640  0.27510  1.0000
  H   H59       1.0  0.58510  0.40640  0.22490  1.0000
  H   H60       1.0  0.41490  0.40640  0.27510  1.0000
  H   H61       1.0  0.91490  0.09360  0.77510  1.0000
  H   H62       1.0  0.08510  0.09360  0.72490  1.0000
  H   H63       1.0  0.41490  0.59360  0.77510  1.0000
  H   H64       1.0  0.58510  0.59360  0.72490  1.0000
  C   C129      1.0  0.02312  0.95880  0.10596  1.0000
  C   C130      1.0  0.97688  0.95880  0.39404  1.0000
  C   C131      1.0  0.52312  0.45880  0.10596  1.0000
  C   C132      1.0  0.47688  0.45880  0.39404  1.0000
  C   C133      1.0  0.97688  0.04120  0.89404  1.0000
  C   C134      1.0  0.02312  0.04120  0.60596  1.0000
  C   C135      1.0  0.47688  0.54120  0.89404  1.0000
  C   C136      1.0  0.52312  0.54120  0.60596  1.0000
  H   H65       1.0  0.01750  0.98650  0.07330  1.0000
  H   H66       1.0  0.98250  0.98650  0.42670  1.0000
  H   H67       1.0  0.51750  0.48650  0.07330  1.0000
  H   H68       1.0  0.48250  0.48650  0.42670  1.0000
  H   H69       1.0  0.98250  0.01350  0.92670  1.0000
  H   H70       1.0  0.01750  0.01350  0.57330  1.0000
  H   H71       1.0  0.48250  0.51350  0.92670  1.0000
  H   H72       1.0  0.51750  0.51350  0.57330  1.0000
  C   C137      1.0  0.34585  0.28520  0.19148  1.0000
  C   C138      1.0  0.65415  0.28520  0.30852  1.0000
  C   C139      1.0  0.84585  0.78520  0.19148  1.0000
  C   C140      1.0  0.15415  0.78520  0.30852  1.0000
  C   C141      1.0  0.65415  0.71480  0.80852  1.0000
  C   C142      1.0  0.34585  0.71480  0.69148  1.0000
  C   C143      1.0  0.15415  0.21480  0.80852  1.0000
  C   C144      1.0  0.84585  0.21480  0.69148  1.0000
  H   H73       1.0  0.37740  0.25990  0.19410  1.0000
  H   H74       1.0  0.62260  0.25990  0.30590  1.0000
  H   H75       1.0  0.87740  0.75990  0.19410  1.0000
  H   H76       1.0  0.12260  0.75990  0.30590  1.0000
  H   H77       1.0  0.62260  0.74010  0.80590  1.0000
  H   H78       1.0  0.37740  0.74010  0.69410  1.0000
  H   H79       1.0  0.12260  0.24010  0.80590  1.0000
  H   H80       1.0  0.87740  0.24010  0.69410  1.0000
  C   C145      1.0  0.16373  0.52100  0.84634  1.0000
  C   C146      1.0  0.83627  0.52100  0.65366  1.0000
  C   C147      1.0  0.66373  0.02100  0.84634  1.0000
  C   C148      1.0  0.33627  0.02100  0.65366  1.0000
  C   C149      1.0  0.83627  0.47900  0.15366  1.0000
  C   C150      1.0  0.16373  0.47900  0.34634  1.0000
  C   C151      1.0  0.33627  0.97900  0.15366  1.0000
  C   C152      1.0  0.66373  0.97900  0.34634  1.0000
  H   H81       1.0  0.18110  0.46570  0.84420  1.0000
  H   H82       1.0  0.81890  0.46570  0.65580  1.0000
  H   H83       1.0  0.68110  0.96570  0.84420  1.0000
  H   H84       1.0  0.31890  0.96570  0.65580  1.0000
  H   H85       1.0  0.81890  0.53430  0.15580  1.0000
  H   H86       1.0  0.18110  0.53430  0.34420  1.0000
  H   H87       1.0  0.31890  0.03430  0.15580  1.0000
  H   H88       1.0  0.68110  0.03430  0.34420  1.0000
  C   C153      1.0  0.07690  0.62430  0.05517  1.0000
  C   C154      1.0  0.92310  0.62430  0.44483  1.0000
  C   C155      1.0  0.57690  0.12430  0.05517  1.0000
  C   C156      1.0  0.42310  0.12430  0.44483  1.0000
  C   C157      1.0  0.92310  0.37570  0.94483  1.0000
  C   C158      1.0  0.07690  0.37570  0.55517  1.0000
  C   C159      1.0  0.42310  0.87570  0.94483  1.0000
  C   C160      1.0  0.57690  0.87570  0.55517  1.0000
  C   C161      1.0  0.05854  0.35390  0.91250  1.0000
  C   C162      1.0  0.94146  0.35390  0.58750  1.0000
  C   C163      1.0  0.55854  0.85390  0.91250  1.0000
  C   C164      1.0  0.44146  0.85390  0.58750  1.0000
  C   C165      1.0  0.94146  0.64610  0.08750  1.0000
  C   C166      1.0  0.05854  0.64610  0.41250  1.0000
  C   C167      1.0  0.44146  0.14610  0.08750  1.0000
  C   C168      1.0  0.55854  0.14610  0.41250  1.0000
  H   H89       1.0  0.02220  0.34330  0.89680  1.0000
  H   H90       1.0  0.97780  0.34330  0.60320  1.0000
  H   H91       1.0  0.52220  0.84330  0.89680  1.0000
  H   H92       1.0  0.47780  0.84330  0.60320  1.0000
  H   H93       1.0  0.97780  0.65670  0.10320  1.0000
  H   H94       1.0  0.02220  0.65670  0.39680  1.0000
  H   H95       1.0  0.47780  0.15670  0.10320  1.0000
  H   H96       1.0  0.52220  0.15670  0.39680  1.0000
  C   C169      1.0  0.08288  0.75490  0.99596  1.0000
  C   C170      1.0  0.91712  0.75490  0.50404  1.0000
  C   C171      1.0  0.58288  0.25490  0.99596  1.0000
  C   C172      1.0  0.41712  0.25490  0.50404  1.0000
  C   C173      1.0  0.91712  0.24510  0.00404  1.0000
  C   C174      1.0  0.08288  0.24510  0.49596  1.0000
  C   C175      1.0  0.41712  0.74510  0.00404  1.0000
  C   C176      1.0  0.58288  0.74510  0.49596  1.0000
  H   H97       1.0  0.10680  0.78710  0.02640  1.0000
  H   H98       1.0  0.89320  0.78710  0.47360  1.0000
  H   H99       1.0  0.60680  0.28710  0.02640  1.0000
  H   H100      1.0  0.39320  0.28710  0.47360  1.0000
  H   H101      1.0  0.89320  0.21290  0.97360  1.0000
  H   H102      1.0  0.10680  0.21290  0.52640  1.0000
  H   H103      1.0  0.39320  0.71290  0.97360  1.0000
  H   H104      1.0  0.60680  0.71290  0.52640  1.0000
  C   C177      1.0  0.18272  0.54630  0.03522  1.0000
  C   C178      1.0  0.81728  0.54630  0.46478  1.0000
  C   C179      1.0  0.68272  0.04630  0.03522  1.0000
  C   C180      1.0  0.31728  0.04630  0.46478  1.0000
  C   C181      1.0  0.81728  0.45370  0.96478  1.0000
  C   C182      1.0  0.18272  0.45370  0.53522  1.0000
  C   C183      1.0  0.31728  0.95370  0.96478  1.0000
  C   C184      1.0  0.68272  0.95370  0.53522  1.0000
  H   H105      1.0  0.16340  0.49490  0.03850  1.0000
  H   H106      1.0  0.83660  0.49490  0.46150  1.0000
  H   H107      1.0  0.66340  0.99490  0.03850  1.0000
  H   H108      1.0  0.33660  0.99490  0.46150  1.0000
  H   H109      1.0  0.83660  0.50510  0.96150  1.0000
  H   H110      1.0  0.16340  0.50510  0.53850  1.0000
  H   H111      1.0  0.33660  0.00510  0.96150  1.0000
  H   H112      1.0  0.66340  0.00510  0.53850  1.0000
  C   C185      1.0  0.00711  0.66330  0.90507  1.0000
  C   C186      1.0  0.99289  0.66330  0.59493  1.0000
  C   C187      1.0  0.50711  0.16330  0.90507  1.0000
  C   C188      1.0  0.49289  0.16330  0.59493  1.0000
  C   C189      1.0  0.99289  0.33670  0.09493  1.0000
  C   C190      1.0  0.00711  0.33670  0.40507  1.0000
  C   C191      1.0  0.49289  0.83670  0.09493  1.0000
  C   C192      1.0  0.50711  0.83670  0.40507  1.0000
  C   C193      1.0  0.20241  0.94960  0.14378  1.0000
  C   C194      1.0  0.79759  0.94960  0.35622  1.0000
  C   C195      1.0  0.70241  0.44960  0.14378  1.0000
  C   C196      1.0  0.29759  0.44960  0.35622  1.0000
  C   C197      1.0  0.79759  0.05040  0.85622  1.0000
  C   C198      1.0  0.20241  0.05040  0.64378  1.0000
  C   C199      1.0  0.29759  0.55040  0.85622  1.0000
  C   C200      1.0  0.70241  0.55040  0.64378  1.0000
  H   H113      1.0  0.21540  0.00800  0.13900  1.0000
  H   H114      1.0  0.78460  0.00800  0.36100  1.0000
  H   H115      1.0  0.71540  0.50800  0.13900  1.0000
  H   H116      1.0  0.28460  0.50800  0.36100  1.0000
  H   H117      1.0  0.78460  0.99200  0.86100  1.0000
  H   H118      1.0  0.21540  0.99200  0.63900  1.0000
  H   H119      1.0  0.28460  0.49200  0.86100  1.0000
  H   H120      1.0  0.71540  0.49200  0.63900  1.0000
  C   C201      1.0  0.27710  0.40360  0.15609  1.0000
  C   C202      1.0  0.72290  0.40360  0.34391  1.0000
  C   C203      1.0  0.77710  0.90360  0.15609  1.0000
  C   C204      1.0  0.22290  0.90360  0.34391  1.0000
  C   C205      1.0  0.72290  0.59640  0.84391  1.0000
  C   C206      1.0  0.27710  0.59640  0.65609  1.0000
  C   C207      1.0  0.22290  0.09640  0.84391  1.0000
  C   C208      1.0  0.77710  0.09640  0.65609  1.0000
  H   H121      1.0  0.26270  0.45760  0.13510  1.0000
  H   H122      1.0  0.73730  0.45760  0.36490  1.0000
  H   H123      1.0  0.76270  0.95760  0.13510  1.0000
  H   H124      1.0  0.23730  0.95760  0.36490  1.0000
  H   H125      1.0  0.73730  0.54240  0.86490  1.0000
  H   H126      1.0  0.26270  0.54240  0.63510  1.0000
  H   H127      1.0  0.23730  0.04240  0.86490  1.0000
  H   H128      1.0  0.76270  0.04240  0.63510  1.0000
  C   C209      1.0  0.13370  0.63430  0.87777  1.0000
  C   C210      1.0  0.86630  0.63430  0.62223  1.0000
  C   C211      1.0  0.63370  0.13430  0.87777  1.0000
  C   C212      1.0  0.36630  0.13430  0.62223  1.0000
  C   C213      1.0  0.86630  0.36570  0.12223  1.0000
  C   C214      1.0  0.13370  0.36570  0.37777  1.0000
  C   C215      1.0  0.36630  0.86570  0.12223  1.0000
  C   C216      1.0  0.63370  0.86570  0.37777  1.0000
  H   H129      1.0  0.12580  0.67310  0.90050  1.0000
  H   H130      1.0  0.87420  0.67310  0.59950  1.0000
  H   H131      1.0  0.62580  0.17310  0.90050  1.0000
  H   H132      1.0  0.37420  0.17310  0.59950  1.0000
  H   H133      1.0  0.87420  0.32690  0.09950  1.0000
  H   H134      1.0  0.12580  0.32690  0.40050  1.0000
  H   H135      1.0  0.37420  0.82690  0.09950  1.0000
  H   H136      1.0  0.62580  0.82690  0.40050  1.0000
  C   C217      1.0  0.15366  0.83980  0.15504  1.0000
  C   C218      1.0  0.84634  0.83980  0.34496  1.0000
  C   C219      1.0  0.65366  0.33980  0.15504  1.0000
  C   C220      1.0  0.34634  0.33980  0.34496  1.0000
  C   C221      1.0  0.84634  0.16020  0.84496  1.0000
  C   C222      1.0  0.15366  0.16020  0.65504  1.0000
  C   C223      1.0  0.34634  0.66020  0.84496  1.0000
  C   C224      1.0  0.65366  0.66020  0.65504  1.0000
  H   H137      1.0  0.12650  0.81000  0.15970  1.0000
  H   H138      1.0  0.87350  0.81000  0.34030  1.0000
  H   H139      1.0  0.62650  0.31000  0.15970  1.0000
  H   H140      1.0  0.37350  0.31000  0.34030  1.0000
  H   H141      1.0  0.87350  0.19000  0.84030  1.0000
  H   H142      1.0  0.12650  0.19000  0.65970  1.0000
  H   H143      1.0  0.37350  0.69000  0.84030  1.0000
  H   H144      1.0  0.62650  0.69000  0.65970  1.0000
  C   C225      1.0  0.09803  0.06140  0.05999  1.0000
  C   C226      1.0  0.90197  0.06140  0.44001  1.0000
  C   C227      1.0  0.59803  0.56140  0.05999  1.0000
  C   C228      1.0  0.40197  0.56140  0.44001  1.0000
  C   C229      1.0  0.90197  0.93860  0.94001  1.0000
  C   C230      1.0  0.09803  0.93860  0.55999  1.0000
  C   C231      1.0  0.40197  0.43860  0.94001  1.0000
  C   C232      1.0  0.59803  0.43860  0.55999  1.0000
  H   H145      1.0  0.10070  0.99950  0.04920  1.0000
  H   H146      1.0  0.89930  0.99950  0.45080  1.0000
  H   H147      1.0  0.60070  0.49950  0.04920  1.0000
  H   H148      1.0  0.39930  0.49950  0.45080  1.0000
  H   H149      1.0  0.89930  0.00050  0.95080  1.0000
  H   H150      1.0  0.10070  0.00050  0.54920  1.0000
  H   H151      1.0  0.39930  0.50050  0.95080  1.0000
  H   H152      1.0  0.60070  0.50050  0.54920  1.0000
  C   C233      1.0  0.20135  0.06550  0.24256  1.0000
  C   C234      1.0  0.79865  0.06550  0.25744  1.0000
  C   C235      1.0  0.70135  0.56550  0.24256  1.0000
  C   C236      1.0  0.29865  0.56550  0.25744  1.0000
  C   C237      1.0  0.79865  0.93450  0.75744  1.0000
  C   C238      1.0  0.20135  0.93450  0.74256  1.0000
  C   C239      1.0  0.29865  0.43450  0.75744  1.0000
  C   C240      1.0  0.70135  0.43450  0.74256  1.0000
  H   H153      1.0  0.22590  0.03680  0.23330  1.0000
  H   H154      1.0  0.77410  0.03680  0.26670  1.0000
  H   H155      1.0  0.72590  0.53680  0.23330  1.0000
  H   H156      1.0  0.27410  0.53680  0.26670  1.0000
  H   H157      1.0  0.77410  0.96320  0.76670  1.0000
  H   H158      1.0  0.22590  0.96320  0.73330  1.0000
  H   H159      1.0  0.27410  0.46320  0.76670  1.0000
  H   H160      1.0  0.72590  0.46320  0.73330  1.0000
  C   C241      1.0  0.12742  0.11330  0.23943  1.0000
  C   C242      1.0  0.87258  0.11330  0.26057  1.0000
  C   C243      1.0  0.62742  0.61330  0.23943  1.0000
  C   C244      1.0  0.37258  0.61330  0.26057  1.0000
  C   C245      1.0  0.87258  0.88670  0.76057  1.0000
  C   C246      1.0  0.12742  0.88670  0.73943  1.0000
  C   C247      1.0  0.37258  0.38670  0.76057  1.0000
  C   C248      1.0  0.62742  0.38670  0.73943  1.0000
  H   H161      1.0  0.09170  0.12550  0.22840  1.0000
  H   H162      1.0  0.90830  0.12550  0.27160  1.0000
  H   H163      1.0  0.59170  0.62550  0.22840  1.0000
  H   H164      1.0  0.40830  0.62550  0.27160  1.0000
  H   H165      1.0  0.90830  0.87450  0.77160  1.0000
  H   H166      1.0  0.09170  0.87450  0.72840  1.0000
  H   H167      1.0  0.40830  0.37450  0.77160  1.0000
  H   H168      1.0  0.59170  0.37450  0.72840  1.0000
  C   C249      1.0  0.11834  0.64860  0.82464  1.0000
  C   C250      1.0  0.88166  0.64860  0.67536  1.0000
  C   C251      1.0  0.61834  0.14860  0.82464  1.0000
  C   C252      1.0  0.38166  0.14860  0.67536  1.0000
  C   C253      1.0  0.88166  0.35140  0.17536  1.0000
  C   C254      1.0  0.11834  0.35140  0.32464  1.0000
  C   C255      1.0  0.38166  0.85140  0.17536  1.0000
  C   C256      1.0  0.61834  0.85140  0.32464  1.0000
  H   H169      1.0  0.09800  0.69970  0.80470  1.0000
  H   H170      1.0  0.90200  0.69970  0.69530  1.0000
  H   H171      1.0  0.59800  0.19970  0.80470  1.0000
  H   H172      1.0  0.40200  0.19970  0.69530  1.0000
  H   H173      1.0  0.90200  0.30030  0.19530  1.0000
  H   H174      1.0  0.09800  0.30030  0.30470  1.0000
  H   H175      1.0  0.40200  0.80030  0.19530  1.0000
  H   H176      1.0  0.59800  0.80030  0.30470  1.0000
  C   C257      1.0  0.28582  0.32880  0.94740  1.0000
  C   C258      1.0  0.71418  0.32880  0.55260  1.0000
  C   C259      1.0  0.78582  0.82880  0.94740  1.0000
  C   C260      1.0  0.21418  0.82880  0.55260  1.0000
  C   C261      1.0  0.71418  0.67120  0.05260  1.0000
  C   C262      1.0  0.28582  0.67120  0.44740  1.0000
  C   C263      1.0  0.21418  0.17120  0.05260  1.0000
  C   C264      1.0  0.78582  0.17120  0.44740  1.0000
  H   H177      1.0  0.29960  0.27970  0.93470  1.0000
  H   H178      1.0  0.70040  0.27970  0.56530  1.0000
  H   H179      1.0  0.79960  0.77970  0.93470  1.0000
  H   H180      1.0  0.20040  0.77970  0.56530  1.0000
  H   H181      1.0  0.70040  0.72030  0.06530  1.0000
  H   H182      1.0  0.29960  0.72030  0.43470  1.0000
  H   H183      1.0  0.20040  0.22030  0.06530  1.0000
  H   H184      1.0  0.79960  0.22030  0.43470  1.0000
  C   C265      1.0  0.10082  0.18180  0.11014  1.0000
  C   C266      1.0  0.89918  0.18180  0.38986  1.0000
  C   C267      1.0  0.60082  0.68180  0.11014  1.0000
  C   C268      1.0  0.39918  0.68180  0.38986  1.0000
  C   C269      1.0  0.89918  0.81820  0.88986  1.0000
  C   C270      1.0  0.10082  0.81820  0.61014  1.0000
  C   C271      1.0  0.39918  0.31820  0.88986  1.0000
  C   C272      1.0  0.60082  0.31820  0.61014  1.0000
  H   H185      1.0  0.10480  0.21990  0.13920  1.0000
  H   H186      1.0  0.89520  0.21990  0.36080  1.0000
  H   H187      1.0  0.60480  0.71990  0.13920  1.0000
  H   H188      1.0  0.39520  0.71990  0.36080  1.0000
  H   H189      1.0  0.89520  0.78010  0.86080  1.0000
  H   H190      1.0  0.10480  0.78010  0.63920  1.0000
  H   H191      1.0  0.39520  0.28010  0.86080  1.0000
  H   H192      1.0  0.60480  0.28010  0.63920  1.0000
  C   C273      1.0  0.27985  0.44440  0.99458  1.0000
  C   C274      1.0  0.72015  0.44440  0.50542  1.0000
  C   C275      1.0  0.77985  0.94440  0.99458  1.0000
  C   C276      1.0  0.22015  0.94440  0.50542  1.0000
  C   C277      1.0  0.72015  0.55560  0.00542  1.0000
  C   C278      1.0  0.27985  0.55560  0.49458  1.0000
  C   C279      1.0  0.22015  0.05560  0.00542  1.0000
  C   C280      1.0  0.77985  0.05560  0.49458  1.0000
  H   H193      1.0  0.28870  0.49080  0.02130  1.0000
  H   H194      1.0  0.71130  0.49080  0.47870  1.0000
  H   H195      1.0  0.78870  0.99080  0.02130  1.0000
  H   H196      1.0  0.21130  0.99080  0.47870  1.0000
  H   H197      1.0  0.71130  0.50920  0.97870  1.0000
  H   H198      1.0  0.28870  0.50920  0.52130  1.0000
  H   H199      1.0  0.21130  0.00920  0.97870  1.0000
  H   H200      1.0  0.78870  0.00920  0.52130  1.0000
  C   C281      1.0  0.22300  0.64080  0.00401  1.0000
  C   C282      1.0  0.77700  0.64080  0.49599  1.0000
  C   C283      1.0  0.72300  0.14080  0.00401  1.0000
  C   C284      1.0  0.27700  0.14080  0.49599  1.0000
  C   C285      1.0  0.77700  0.35920  0.99599  1.0000
  C   C286      1.0  0.22300  0.35920  0.50401  1.0000
  C   C287      1.0  0.27700  0.85920  0.99599  1.0000
  C   C288      1.0  0.72300  0.85920  0.50401  1.0000
  H   H201      1.0  0.23700  0.66880  0.98260  1.0000
  H   H202      1.0  0.76300  0.66880  0.51740  1.0000
  H   H203      1.0  0.73700  0.16880  0.98260  1.0000
  H   H204      1.0  0.26300  0.16880  0.51740  1.0000
  H   H205      1.0  0.76300  0.33120  0.01740  1.0000
  H   H206      1.0  0.23700  0.33120  0.48260  1.0000
  H   H207      1.0  0.26300  0.83120  0.01740  1.0000
  H   H208      1.0  0.73700  0.83120  0.48260  1.0000
  C   C289      1.0  0.14156  0.33330  0.95700  1.0000
  C   C290      1.0  0.85844  0.33330  0.54300  1.0000
  C   C291      1.0  0.64156  0.83330  0.95700  1.0000
  C   C292      1.0  0.35844  0.83330  0.54300  1.0000
  C   C293      1.0  0.85844  0.66670  0.04300  1.0000
  C   C294      1.0  0.14156  0.66670  0.45700  1.0000
  C   C295      1.0  0.35844  0.16670  0.04300  1.0000
  C   C296      1.0  0.64156  0.16670  0.45700  1.0000
  H   H209      1.0  0.17420  0.30540  0.97810  1.0000
  H   H210      1.0  0.82580  0.30540  0.52190  1.0000
  H   H211      1.0  0.67420  0.80540  0.97810  1.0000
  H   H212      1.0  0.32580  0.80540  0.52190  1.0000
  H   H213      1.0  0.82580  0.69460  0.02190  1.0000
  H   H214      1.0  0.17420  0.69460  0.47810  1.0000
  H   H215      1.0  0.32580  0.19460  0.02190  1.0000
  H   H216      1.0  0.67420  0.19460  0.47810  1.0000
  C   C297      1.0  0.08201  0.43520  0.90800  1.0000
  C   C298      1.0  0.91799  0.43520  0.59200  1.0000
  C   C299      1.0  0.58201  0.93520  0.90800  1.0000
  C   C300      1.0  0.41799  0.93520  0.59200  1.0000
  C   C301      1.0  0.91799  0.56480  0.09200  1.0000
  C   C302      1.0  0.08201  0.56480  0.40800  1.0000
  C   C303      1.0  0.41799  0.06480  0.09200  1.0000
  C   C304      1.0  0.58201  0.06480  0.40800  1.0000
  H   H217      1.0  0.06500  0.48950  0.88880  1.0000
  H   H218      1.0  0.93500  0.48950  0.61120  1.0000
  H   H219      1.0  0.56500  0.98950  0.88880  1.0000
  H   H220      1.0  0.43500  0.98950  0.61120  1.0000
  H   H221      1.0  0.93500  0.51050  0.11120  1.0000
  H   H222      1.0  0.06500  0.51050  0.38880  1.0000
  H   H223      1.0  0.43500  0.01050  0.11120  1.0000
  H   H224      1.0  0.56500  0.01050  0.38880  1.0000
  C   C305      1.0  0.22880  0.67250  0.05242  1.0000
  C   C306      1.0  0.77120  0.67250  0.44758  1.0000
  C   C307      1.0  0.72880  0.17250  0.05242  1.0000
  C   C308      1.0  0.27120  0.17250  0.44758  1.0000
  C   C309      1.0  0.77120  0.32750  0.94758  1.0000
  C   C310      1.0  0.22880  0.32750  0.55242  1.0000
  C   C311      1.0  0.27120  0.82750  0.94758  1.0000
  C   C312      1.0  0.72880  0.82750  0.55242  1.0000
  H   H225      1.0  0.24760  0.72680  0.06980  1.0000
  H   H226      1.0  0.75240  0.72680  0.43020  1.0000
  H   H227      1.0  0.74760  0.22680  0.06980  1.0000
  H   H228      1.0  0.25240  0.22680  0.43020  1.0000
  H   H229      1.0  0.75240  0.27320  0.93020  1.0000
  H   H230      1.0  0.24760  0.27320  0.56980  1.0000
  H   H231      1.0  0.25240  0.77320  0.93020  1.0000
  H   H232      1.0  0.74760  0.77320  0.56980  1.0000
  C   C313      1.0  0.16788  0.14380  0.28543  1.0000
  C   C314      1.0  0.83212  0.14380  0.21457  1.0000
  C   C315      1.0  0.66788  0.64380  0.28543  1.0000
  C   C316      1.0  0.33212  0.64380  0.21457  1.0000
  C   C317      1.0  0.83212  0.85620  0.71457  1.0000
  C   C318      1.0  0.16788  0.85620  0.78543  1.0000
  C   C319      1.0  0.33212  0.35620  0.71457  1.0000
  C   C320      1.0  0.66788  0.35620  0.78543  1.0000
  H   H233      1.0  0.16440  0.17940  0.31200  1.0000
  H   H234      1.0  0.83560  0.17940  0.18800  1.0000
  H   H235      1.0  0.66440  0.67940  0.31200  1.0000
  H   H236      1.0  0.33560  0.67940  0.18800  1.0000
  H   H237      1.0  0.83560  0.82060  0.68800  1.0000
  H   H238      1.0  0.16440  0.82060  0.81200  1.0000
  H   H239      1.0  0.33560  0.32060  0.68800  1.0000
  H   H240      1.0  0.66440  0.32060  0.81200  1.0000
  C   C321      1.0  0.08640  0.21160  0.05926  1.0000
  C   C322      1.0  0.91360  0.21160  0.44074  1.0000
  C   C323      1.0  0.58640  0.71160  0.05926  1.0000
  C   C324      1.0  0.41360  0.71160  0.44074  1.0000
  C   C325      1.0  0.91360  0.78840  0.94074  1.0000
  C   C326      1.0  0.08640  0.78840  0.55926  1.0000
  C   C327      1.0  0.41360  0.28840  0.94074  1.0000
  C   C328      1.0  0.58640  0.28840  0.55926  1.0000
  H   H241      1.0  0.07940  0.27460  0.04760  1.0000
  H   H242      1.0  0.92060  0.27460  0.45240  1.0000
  H   H243      1.0  0.57940  0.77460  0.04760  1.0000
  H   H244      1.0  0.42060  0.77460  0.45240  1.0000
  H   H245      1.0  0.92060  0.72540  0.95240  1.0000
  H   H246      1.0  0.07940  0.72540  0.54760  1.0000
  H   H247      1.0  0.42060  0.22540  0.95240  1.0000
  H   H248      1.0  0.57940  0.22540  0.54760  1.0000
  C   C329      1.0  0.25078  0.35960  0.18235  1.0000
  C   C330      1.0  0.74922  0.35960  0.31765  1.0000
  C   C331      1.0  0.75078  0.85960  0.18235  1.0000
  C   C332      1.0  0.24922  0.85960  0.31765  1.0000
  C   C333      1.0  0.74922  0.64040  0.81765  1.0000
  C   C334      1.0  0.25078  0.64040  0.68235  1.0000
  C   C335      1.0  0.24922  0.14040  0.81765  1.0000
  C   C336      1.0  0.75078  0.14040  0.68235  1.0000
  B   B1        1.0  0.18059  0.49210  0.94440  1.0000
  B   B2        1.0  0.81941  0.49210  0.55560  1.0000
  B   B3        1.0  0.68059  0.99210  0.94440  1.0000
  B   B4        1.0  0.31941  0.99210  0.55560  1.0000
  B   B5        1.0  0.81941  0.50790  0.05560  1.0000
  B   B6        1.0  0.18059  0.50790  0.44440  1.0000
  B   B7        1.0  0.31941  0.00790  0.05560  1.0000
  B   B8        1.0  0.68059  0.00790  0.44440  1.0000
  B   B9        1.0  0.12084  0.01260  0.15664  1.0000
  B   B10       1.0  0.87916  0.01260  0.34336  1.0000
  B   B11       1.0  0.62084  0.51260  0.15664  1.0000
  B   B12       1.0  0.37916  0.51260  0.34336  1.0000
  B   B13       1.0  0.87916  0.98740  0.84336  1.0000
  B   B14       1.0  0.12084  0.98740  0.65664  1.0000
  B   B15       1.0  0.37916  0.48740  0.84336  1.0000
  B   B16       1.0  0.62084  0.48740  0.65664  1.0000
