data_image0
_chemical_formula_structural       Fe36O216C36H36C36H36C36H36
_chemical_formula_sum              "Fe36 O216 C108 H108"
_cell_length_a       14.2916
_cell_length_b       14.2916
_cell_length_c       41.4795
_cell_angle_alpha    90
_cell_angle_beta     90
_cell_angle_gamma    120

_space_group_name_H-M_alt    "P 1"
_space_group_IT_number       1

loop_
  _space_group_symop_operation_xyz
  'x, y, z'

loop_
  _atom_site_type_symbol
  _atom_site_label
  _atom_site_symmetry_multiplicity
  _atom_site_fract_x
  _atom_site_fract_y
  _atom_site_fract_z
  _atom_site_occupancy
  Fe  Fe1       1.0  0.99279  0.33330  0.08330  1.0000
  Fe  Fe2       1.0  0.66670  0.65949  0.08330  1.0000
  Fe  Fe3       1.0  0.34051  0.00721  0.08330  1.0000
  Fe  Fe4       1.0  0.33330  0.99279  0.41670  1.0000
  Fe  Fe5       1.0  0.65949  0.66670  0.41670  1.0000
  Fe  Fe6       1.0  0.00721  0.34051  0.41670  1.0000
  Fe  Fe7       1.0  0.99997  0.32612  0.75003  1.0000
  Fe  Fe8       1.0  0.32616  0.00003  0.75003  1.0000
  Fe  Fe9       1.0  0.67388  0.67384  0.75003  1.0000
  Fe  Fe10      1.0  0.00721  0.66670  0.91670  1.0000
  Fe  Fe11      1.0  0.33330  0.34051  0.91670  1.0000
  Fe  Fe12      1.0  0.65949  0.99279  0.91670  1.0000
  Fe  Fe13      1.0  0.66670  0.00721  0.58330  1.0000
  Fe  Fe14      1.0  0.34051  0.33330  0.58330  1.0000
  Fe  Fe15      1.0  0.99279  0.65949  0.58330  1.0000
  Fe  Fe16      1.0  0.00003  0.67388  0.24997  1.0000
  Fe  Fe17      1.0  0.67384  0.99997  0.24997  1.0000
  Fe  Fe18      1.0  0.32612  0.32616  0.24997  1.0000
  Fe  Fe19      1.0  0.00000  0.00000  0.00000  1.0000
  Fe  Fe20      1.0  0.00000  0.00000  0.50000  1.0000
  Fe  Fe21      1.0  0.66667  0.33333  0.33333  1.0000
  Fe  Fe22      1.0  0.66667  0.33333  0.83333  1.0000
  Fe  Fe23      1.0  0.33333  0.66667  0.66667  1.0000
  Fe  Fe24      1.0  0.33333  0.66667  0.16667  1.0000
  Fe  Fe25      1.0  0.66670  0.33330  0.99741  1.0000
  Fe  Fe26      1.0  0.33330  0.66670  0.50259  1.0000
  Fe  Fe27      1.0  0.33337  0.66663  0.33074  1.0000
  Fe  Fe28      1.0  0.99997  0.00003  0.83592  1.0000
  Fe  Fe29      1.0  0.00003  0.99997  0.66408  1.0000
  Fe  Fe30      1.0  0.66663  0.33337  0.16926  1.0000
  Fe  Fe31      1.0  0.33330  0.66670  0.00259  1.0000
  Fe  Fe32      1.0  0.66670  0.33330  0.49741  1.0000
  Fe  Fe33      1.0  0.66663  0.33337  0.66926  1.0000
  Fe  Fe34      1.0  0.00003  0.99997  0.16408  1.0000
  Fe  Fe35      1.0  0.99997  0.00003  0.33592  1.0000
  Fe  Fe36      1.0  0.33337  0.66663  0.83074  1.0000
  O   O1        1.0  0.05888  0.47776  0.05491  1.0000
  O   O2        1.0  0.52224  0.58112  0.05491  1.0000
  O   O3        1.0  0.41888  0.94112  0.05491  1.0000
  O   O4        1.0  0.47776  0.05888  0.44509  1.0000
  O   O5        1.0  0.58112  0.52224  0.44509  1.0000
  O   O6        1.0  0.94112  0.41888  0.44509  1.0000
  O   O7        1.0  0.72555  0.81109  0.38824  1.0000
  O   O8        1.0  0.18891  0.91445  0.38824  1.0000
  O   O9        1.0  0.08555  0.27445  0.38824  1.0000
  O   O10       1.0  0.14443  0.39221  0.77842  1.0000
  O   O11       1.0  0.24779  0.85557  0.77842  1.0000
  O   O12       1.0  0.60779  0.75221  0.77842  1.0000
  O   O13       1.0  0.39221  0.14443  0.72158  1.0000
  O   O14       1.0  0.85557  0.24779  0.72158  1.0000
  O   O15       1.0  0.75221  0.60779  0.72158  1.0000
  O   O16       1.0  0.81109  0.72555  0.11176  1.0000
  O   O17       1.0  0.91445  0.18891  0.11176  1.0000
  O   O18       1.0  0.27445  0.08555  0.11176  1.0000
  O   O19       1.0  0.94112  0.52224  0.94509  1.0000
  O   O20       1.0  0.47776  0.41888  0.94509  1.0000
  O   O21       1.0  0.58112  0.05888  0.94509  1.0000
  O   O22       1.0  0.52224  0.94112  0.55491  1.0000
  O   O23       1.0  0.41888  0.47776  0.55491  1.0000
  O   O24       1.0  0.05888  0.58112  0.55491  1.0000
  O   O25       1.0  0.27445  0.18891  0.61176  1.0000
  O   O26       1.0  0.81109  0.08555  0.61176  1.0000
  O   O27       1.0  0.91445  0.72555  0.61176  1.0000
  O   O28       1.0  0.85557  0.60779  0.22158  1.0000
  O   O29       1.0  0.75221  0.14443  0.22158  1.0000
  O   O30       1.0  0.39221  0.24779  0.22158  1.0000
  O   O31       1.0  0.60779  0.85557  0.27842  1.0000
  O   O32       1.0  0.14443  0.75221  0.27842  1.0000
  O   O33       1.0  0.24779  0.39221  0.27842  1.0000
  O   O34       1.0  0.18891  0.27445  0.88824  1.0000
  O   O35       1.0  0.08555  0.81109  0.88824  1.0000
  O   O36       1.0  0.72555  0.91445  0.88824  1.0000
  O   O37       1.0  0.84418  0.25295  0.05745  1.0000
  O   O38       1.0  0.74705  0.59123  0.05745  1.0000
  O   O39       1.0  0.40877  0.15582  0.05745  1.0000
  O   O40       1.0  0.25295  0.84418  0.44255  1.0000
  O   O41       1.0  0.59123  0.74705  0.44255  1.0000
  O   O42       1.0  0.15582  0.40877  0.44255  1.0000
  O   O43       1.0  0.51085  0.58628  0.39078  1.0000
  O   O44       1.0  0.41372  0.92456  0.39078  1.0000
  O   O45       1.0  0.07544  0.48915  0.39078  1.0000
  O   O46       1.0  0.91962  0.17751  0.77588  1.0000
  O   O47       1.0  0.25790  0.08038  0.77588  1.0000
  O   O48       1.0  0.82249  0.74210  0.77588  1.0000
  O   O49       1.0  0.17751  0.91962  0.72412  1.0000
  O   O50       1.0  0.08038  0.25790  0.72412  1.0000
  O   O51       1.0  0.74210  0.82249  0.72412  1.0000
  O   O52       1.0  0.58628  0.51085  0.10922  1.0000
  O   O53       1.0  0.92456  0.41372  0.10922  1.0000
  O   O54       1.0  0.48915  0.07544  0.10922  1.0000
  O   O55       1.0  0.15582  0.74705  0.94255  1.0000
  O   O56       1.0  0.25295  0.40877  0.94255  1.0000
  O   O57       1.0  0.59123  0.84418  0.94255  1.0000
  O   O58       1.0  0.74705  0.15582  0.55745  1.0000
  O   O59       1.0  0.40877  0.25295  0.55745  1.0000
  O   O60       1.0  0.84418  0.59123  0.55745  1.0000
  O   O61       1.0  0.48915  0.41372  0.60922  1.0000
  O   O62       1.0  0.58628  0.07544  0.60922  1.0000
  O   O63       1.0  0.92456  0.51085  0.60922  1.0000
  O   O64       1.0  0.08038  0.82249  0.22412  1.0000
  O   O65       1.0  0.74210  0.91962  0.22412  1.0000
  O   O66       1.0  0.17751  0.25790  0.22412  1.0000
  O   O67       1.0  0.82249  0.08038  0.27588  1.0000
  O   O68       1.0  0.91962  0.74210  0.27588  1.0000
  O   O69       1.0  0.25790  0.17751  0.27588  1.0000
  O   O70       1.0  0.41372  0.48915  0.89078  1.0000
  O   O71       1.0  0.07544  0.58628  0.89078  1.0000
  O   O72       1.0  0.51085  0.92456  0.89078  1.0000
  O   O73       1.0  0.19873  0.60886  0.02896  1.0000
  O   O74       1.0  0.39114  0.58987  0.02896  1.0000
  O   O75       1.0  0.41013  0.80127  0.02896  1.0000
  O   O76       1.0  0.60886  0.19873  0.47104  1.0000
  O   O77       1.0  0.58987  0.39114  0.47104  1.0000
  O   O78       1.0  0.80127  0.41013  0.47104  1.0000
  O   O79       1.0  0.86540  0.94219  0.36229  1.0000
  O   O80       1.0  0.05781  0.92320  0.36229  1.0000
  O   O81       1.0  0.07680  0.13460  0.36229  1.0000
  O   O82       1.0  0.27553  0.53206  0.80437  1.0000
  O   O83       1.0  0.25654  0.72447  0.80437  1.0000
  O   O84       1.0  0.46794  0.74346  0.80437  1.0000
  O   O85       1.0  0.53206  0.27553  0.69563  1.0000
  O   O86       1.0  0.72447  0.25654  0.69563  1.0000
  O   O87       1.0  0.74346  0.46794  0.69563  1.0000
  O   O88       1.0  0.94219  0.86540  0.13771  1.0000
  O   O89       1.0  0.92320  0.05781  0.13771  1.0000
  O   O90       1.0  0.13460  0.07680  0.13771  1.0000
  O   O91       1.0  0.80127  0.39114  0.97104  1.0000
  O   O92       1.0  0.60886  0.41013  0.97104  1.0000
  O   O93       1.0  0.58987  0.19873  0.97104  1.0000
  O   O94       1.0  0.39114  0.80127  0.52896  1.0000
  O   O95       1.0  0.41013  0.60886  0.52896  1.0000
  O   O96       1.0  0.19873  0.58987  0.52896  1.0000
  O   O97       1.0  0.13460  0.05781  0.63771  1.0000
  O   O98       1.0  0.94219  0.07680  0.63771  1.0000
  O   O99       1.0  0.92320  0.86540  0.63771  1.0000
  O   O100      1.0  0.72447  0.46794  0.19563  1.0000
  O   O101      1.0  0.74346  0.27553  0.19563  1.0000
  O   O102      1.0  0.53206  0.25654  0.19563  1.0000
  O   O103      1.0  0.46794  0.72447  0.30437  1.0000
  O   O104      1.0  0.27553  0.74346  0.30437  1.0000
  O   O105      1.0  0.25654  0.53206  0.30437  1.0000
  O   O106      1.0  0.05781  0.13460  0.86229  1.0000
  O   O107      1.0  0.07680  0.94219  0.86229  1.0000
  O   O108      1.0  0.86540  0.92320  0.86229  1.0000
  O   O109      1.0  0.06326  0.26548  0.05435  1.0000
  O   O110      1.0  0.73452  0.79778  0.05435  1.0000
  O   O111      1.0  0.20222  0.93674  0.05435  1.0000
  O   O112      1.0  0.26548  0.06326  0.44565  1.0000
  O   O113      1.0  0.79778  0.73452  0.44565  1.0000
  O   O114      1.0  0.93674  0.20222  0.44565  1.0000
  O   O115      1.0  0.72993  0.59881  0.38768  1.0000
  O   O116      1.0  0.40119  0.13111  0.38768  1.0000
  O   O117      1.0  0.86889  0.27007  0.38768  1.0000
  O   O118      1.0  0.93215  0.39659  0.77898  1.0000
  O   O119      1.0  0.46445  0.06785  0.77898  1.0000
  O   O120      1.0  0.60341  0.53555  0.77898  1.0000
  O   O121      1.0  0.39659  0.93215  0.72102  1.0000
  O   O122      1.0  0.06785  0.46445  0.72102  1.0000
  O   O123      1.0  0.53555  0.60341  0.72102  1.0000
  O   O124      1.0  0.59881  0.72993  0.11232  1.0000
  O   O125      1.0  0.13111  0.40119  0.11232  1.0000
  O   O126      1.0  0.27007  0.86889  0.11232  1.0000
  O   O127      1.0  0.93674  0.73452  0.94565  1.0000
  O   O128      1.0  0.26548  0.20222  0.94565  1.0000
  O   O129      1.0  0.79778  0.06326  0.94565  1.0000
  O   O130      1.0  0.73452  0.93674  0.55435  1.0000
  O   O131      1.0  0.20222  0.26548  0.55435  1.0000
  O   O132      1.0  0.06326  0.79778  0.55435  1.0000
  O   O133      1.0  0.27007  0.40119  0.61232  1.0000
  O   O134      1.0  0.59881  0.86889  0.61232  1.0000
  O   O135      1.0  0.13111  0.72993  0.61232  1.0000
  O   O136      1.0  0.06785  0.60341  0.22102  1.0000
  O   O137      1.0  0.53555  0.93215  0.22102  1.0000
  O   O138      1.0  0.39659  0.46445  0.22102  1.0000
  O   O139      1.0  0.60341  0.06785  0.27898  1.0000
  O   O140      1.0  0.93215  0.53555  0.27898  1.0000
  O   O141      1.0  0.46445  0.39659  0.27898  1.0000
  O   O142      1.0  0.40119  0.27007  0.88768  1.0000
  O   O143      1.0  0.86889  0.59881  0.88768  1.0000
  O   O144      1.0  0.72993  0.13111  0.88768  1.0000
  O   O145      1.0  0.72055  0.25565  0.02592  1.0000
  O   O146      1.0  0.74435  0.46490  0.02592  1.0000
  O   O147      1.0  0.53510  0.27945  0.02592  1.0000
  O   O148      1.0  0.25565  0.72055  0.47408  1.0000
  O   O149      1.0  0.46490  0.74435  0.47408  1.0000
  O   O150      1.0  0.27945  0.53510  0.47408  1.0000
  O   O151      1.0  0.38722  0.58898  0.35925  1.0000
  O   O152      1.0  0.41102  0.79823  0.35925  1.0000
  O   O153      1.0  0.20177  0.61278  0.35925  1.0000
  O   O154      1.0  0.92232  0.05388  0.80741  1.0000
  O   O155      1.0  0.13157  0.07768  0.80741  1.0000
  O   O156      1.0  0.94612  0.86843  0.80741  1.0000
  O   O157      1.0  0.05388  0.92232  0.69259  1.0000
  O   O158      1.0  0.07768  0.13157  0.69259  1.0000
  O   O159      1.0  0.86843  0.94612  0.69259  1.0000
  O   O160      1.0  0.58898  0.38722  0.14075  1.0000
  O   O161      1.0  0.79823  0.41102  0.14075  1.0000
  O   O162      1.0  0.61278  0.20177  0.14075  1.0000
  O   O163      1.0  0.27945  0.74435  0.97408  1.0000
  O   O164      1.0  0.25565  0.53510  0.97408  1.0000
  O   O165      1.0  0.46490  0.72055  0.97408  1.0000
  O   O166      1.0  0.74435  0.27945  0.52592  1.0000
  O   O167      1.0  0.53510  0.25565  0.52592  1.0000
  O   O168      1.0  0.72055  0.46490  0.52592  1.0000
  O   O169      1.0  0.61278  0.41102  0.64075  1.0000
  O   O170      1.0  0.58898  0.20177  0.64075  1.0000
  O   O171      1.0  0.79823  0.38722  0.64075  1.0000
  O   O172      1.0  0.07768  0.94612  0.19259  1.0000
  O   O173      1.0  0.86843  0.92232  0.19259  1.0000
  O   O174      1.0  0.05388  0.13157  0.19259  1.0000
  O   O175      1.0  0.94612  0.07768  0.30741  1.0000
  O   O176      1.0  0.92232  0.86843  0.30741  1.0000
  O   O177      1.0  0.13157  0.05388  0.30741  1.0000
  O   O178      1.0  0.41102  0.61278  0.85925  1.0000
  O   O179      1.0  0.20177  0.58898  0.85925  1.0000
  O   O180      1.0  0.38722  0.79823  0.85925  1.0000
  O   O181      1.0  0.06712  0.13435  0.02712  1.0000
  O   O182      1.0  0.86565  0.93277  0.02712  1.0000
  O   O183      1.0  0.06723  0.93288  0.02712  1.0000
  O   O184      1.0  0.13435  0.06712  0.47288  1.0000
  O   O185      1.0  0.93277  0.86565  0.47288  1.0000
  O   O186      1.0  0.93288  0.06723  0.47288  1.0000
  O   O187      1.0  0.73379  0.46768  0.36045  1.0000
  O   O188      1.0  0.53232  0.26610  0.36045  1.0000
  O   O189      1.0  0.73390  0.26621  0.36045  1.0000
  O   O190      1.0  0.80102  0.40045  0.80621  1.0000
  O   O191      1.0  0.59944  0.19898  0.80621  1.0000
  O   O192      1.0  0.59955  0.40056  0.80621  1.0000
  O   O193      1.0  0.40045  0.80102  0.69379  1.0000
  O   O194      1.0  0.19898  0.59944  0.69379  1.0000
  O   O195      1.0  0.40056  0.59955  0.69379  1.0000
  O   O196      1.0  0.46768  0.73379  0.13955  1.0000
  O   O197      1.0  0.26610  0.53232  0.13955  1.0000
  O   O198      1.0  0.26621  0.73390  0.13955  1.0000
  O   O199      1.0  0.93288  0.86565  0.97288  1.0000
  O   O200      1.0  0.13435  0.06723  0.97288  1.0000
  O   O201      1.0  0.93277  0.06712  0.97288  1.0000
  O   O202      1.0  0.86565  0.93288  0.52712  1.0000
  O   O203      1.0  0.06723  0.13435  0.52712  1.0000
  O   O204      1.0  0.06712  0.93277  0.52712  1.0000
  O   O205      1.0  0.26621  0.53232  0.63955  1.0000
  O   O206      1.0  0.46768  0.73390  0.63955  1.0000
  O   O207      1.0  0.26610  0.73379  0.63955  1.0000
  O   O208      1.0  0.19898  0.59955  0.19379  1.0000
  O   O209      1.0  0.40056  0.80102  0.19379  1.0000
  O   O210      1.0  0.40045  0.59944  0.19379  1.0000
  O   O211      1.0  0.59955  0.19898  0.30621  1.0000
  O   O212      1.0  0.80102  0.40056  0.30621  1.0000
  O   O213      1.0  0.59944  0.40045  0.30621  1.0000
  O   O214      1.0  0.53232  0.26621  0.86045  1.0000
  O   O215      1.0  0.73390  0.46768  0.86045  1.0000
  O   O216      1.0  0.73379  0.26610  0.86045  1.0000
  C   C1        1.0  0.01846  0.17875  0.03964  1.0000
  C   C2        1.0  0.82125  0.83971  0.03964  1.0000
  C   C3        1.0  0.16029  0.98154  0.03964  1.0000
  C   C4        1.0  0.17875  0.01846  0.46036  1.0000
  C   C5        1.0  0.83971  0.82125  0.46036  1.0000
  C   C6        1.0  0.98154  0.16029  0.46036  1.0000
  C   C7        1.0  0.68513  0.51208  0.37297  1.0000
  C   C8        1.0  0.48792  0.17304  0.37297  1.0000
  C   C9        1.0  0.82696  0.31487  0.37297  1.0000
  C   C10       1.0  0.84542  0.35179  0.79369  1.0000
  C   C11       1.0  0.50638  0.15458  0.79369  1.0000
  C   C12       1.0  0.64821  0.49362  0.79369  1.0000
  C   C13       1.0  0.35179  0.84542  0.70631  1.0000
  C   C14       1.0  0.15458  0.50638  0.70631  1.0000
  C   C15       1.0  0.49362  0.64821  0.70631  1.0000
  C   C16       1.0  0.51208  0.68513  0.12703  1.0000
  C   C17       1.0  0.17304  0.48792  0.12703  1.0000
  C   C18       1.0  0.31487  0.82696  0.12703  1.0000
  C   C19       1.0  0.98154  0.82125  0.96036  1.0000
  C   C20       1.0  0.17875  0.16029  0.96036  1.0000
  C   C21       1.0  0.83971  0.01846  0.96036  1.0000
  C   C22       1.0  0.82125  0.98154  0.53964  1.0000
  C   C23       1.0  0.16029  0.17875  0.53964  1.0000
  C   C24       1.0  0.01846  0.83971  0.53964  1.0000
  C   C25       1.0  0.31487  0.48792  0.62703  1.0000
  C   C26       1.0  0.51208  0.82696  0.62703  1.0000
  C   C27       1.0  0.17304  0.68513  0.62703  1.0000
  C   C28       1.0  0.15458  0.64821  0.20631  1.0000
  C   C29       1.0  0.49362  0.84542  0.20631  1.0000
  C   C30       1.0  0.35179  0.50638  0.20631  1.0000
  C   C31       1.0  0.64821  0.15458  0.29369  1.0000
  C   C32       1.0  0.84542  0.49362  0.29369  1.0000
  C   C33       1.0  0.50638  0.35179  0.29369  1.0000
  C   C34       1.0  0.48792  0.31487  0.87297  1.0000
  C   C35       1.0  0.82696  0.51208  0.87297  1.0000
  C   C36       1.0  0.68513  0.17304  0.87297  1.0000
  H   H1        1.0  0.94370  0.14360  0.03760  1.0000
  H   H2        1.0  0.85640  0.80010  0.03760  1.0000
  H   H3        1.0  0.19990  0.05630  0.03760  1.0000
  H   H4        1.0  0.14360  0.94370  0.46240  1.0000
  H   H5        1.0  0.80010  0.85640  0.46240  1.0000
  H   H6        1.0  0.05630  0.19990  0.46240  1.0000
  H   H7        1.0  0.61037  0.47693  0.37093  1.0000
  H   H8        1.0  0.52307  0.13343  0.37093  1.0000
  H   H9        1.0  0.86657  0.38963  0.37093  1.0000
  H   H10       1.0  0.81027  0.27703  0.79573  1.0000
  H   H11       1.0  0.46677  0.18973  0.79573  1.0000
  H   H12       1.0  0.72297  0.53323  0.79573  1.0000
  H   H13       1.0  0.27703  0.81027  0.70427  1.0000
  H   H14       1.0  0.18973  0.46677  0.70427  1.0000
  H   H15       1.0  0.53323  0.72297  0.70427  1.0000
  H   H16       1.0  0.47693  0.61037  0.12907  1.0000
  H   H17       1.0  0.13343  0.52307  0.12907  1.0000
  H   H18       1.0  0.38963  0.86657  0.12907  1.0000
  H   H19       1.0  0.05630  0.85640  0.96240  1.0000
  H   H20       1.0  0.14360  0.19990  0.96240  1.0000
  H   H21       1.0  0.80010  0.94370  0.96240  1.0000
  H   H22       1.0  0.85640  0.05630  0.53760  1.0000
  H   H23       1.0  0.19990  0.14360  0.53760  1.0000
  H   H24       1.0  0.94370  0.80010  0.53760  1.0000
  H   H25       1.0  0.38963  0.52307  0.62907  1.0000
  H   H26       1.0  0.47693  0.86657  0.62907  1.0000
  H   H27       1.0  0.13343  0.61037  0.62907  1.0000
  H   H28       1.0  0.18973  0.72297  0.20427  1.0000
  H   H29       1.0  0.53323  0.81027  0.20427  1.0000
  H   H30       1.0  0.27703  0.46677  0.20427  1.0000
  H   H31       1.0  0.72297  0.18973  0.29573  1.0000
  H   H32       1.0  0.81027  0.53323  0.29573  1.0000
  H   H33       1.0  0.46677  0.27703  0.29573  1.0000
  H   H34       1.0  0.52307  0.38963  0.87093  1.0000
  H   H35       1.0  0.86657  0.47693  0.87093  1.0000
  H   H36       1.0  0.61037  0.13343  0.87093  1.0000
  C   C37       1.0  0.81487  0.29802  0.03735  1.0000
  C   C38       1.0  0.70198  0.51685  0.03735  1.0000
  C   C39       1.0  0.48315  0.18513  0.03735  1.0000
  C   C40       1.0  0.29802  0.81487  0.46265  1.0000
  C   C41       1.0  0.51685  0.70198  0.46265  1.0000
  C   C42       1.0  0.18513  0.48315  0.46265  1.0000
  C   C43       1.0  0.48154  0.63135  0.37068  1.0000
  C   C44       1.0  0.36865  0.85018  0.37068  1.0000
  C   C45       1.0  0.14982  0.51846  0.37068  1.0000
  C   C46       1.0  0.96469  0.14820  0.79598  1.0000
  C   C47       1.0  0.18352  0.03531  0.79598  1.0000
  C   C48       1.0  0.85180  0.81648  0.79598  1.0000
  C   C49       1.0  0.14820  0.96469  0.70402  1.0000
  C   C50       1.0  0.03531  0.18352  0.70402  1.0000
  C   C51       1.0  0.81648  0.85180  0.70402  1.0000
  C   C52       1.0  0.63135  0.48154  0.12932  1.0000
  C   C53       1.0  0.85018  0.36865  0.12932  1.0000
  C   C54       1.0  0.51846  0.14982  0.12932  1.0000
  C   C55       1.0  0.18513  0.70198  0.96265  1.0000
  C   C56       1.0  0.29802  0.48315  0.96265  1.0000
  C   C57       1.0  0.51685  0.81487  0.96265  1.0000
  C   C58       1.0  0.70198  0.18513  0.53735  1.0000
  C   C59       1.0  0.48315  0.29802  0.53735  1.0000
  C   C60       1.0  0.81487  0.51685  0.53735  1.0000
  C   C61       1.0  0.51846  0.36865  0.62932  1.0000
  C   C62       1.0  0.63135  0.14982  0.62932  1.0000
  C   C63       1.0  0.85018  0.48154  0.62932  1.0000
  C   C64       1.0  0.03531  0.85180  0.20402  1.0000
  C   C65       1.0  0.81648  0.96469  0.20402  1.0000
  C   C66       1.0  0.14820  0.18352  0.20402  1.0000
  C   C67       1.0  0.85180  0.03531  0.29598  1.0000
  C   C68       1.0  0.96469  0.81648  0.29598  1.0000
  C   C69       1.0  0.18352  0.14820  0.29598  1.0000
  C   C70       1.0  0.36865  0.51846  0.87068  1.0000
  C   C71       1.0  0.14982  0.63135  0.87068  1.0000
  C   C72       1.0  0.48154  0.85018  0.87068  1.0000
  H   H37       1.0  0.86550  0.36690  0.03040  1.0000
  H   H38       1.0  0.63310  0.49860  0.03040  1.0000
  H   H39       1.0  0.50140  0.13450  0.03040  1.0000
  H   H40       1.0  0.36690  0.86550  0.46960  1.0000
  H   H41       1.0  0.49860  0.63310  0.46960  1.0000
  H   H42       1.0  0.13450  0.50140  0.46960  1.0000
  H   H43       1.0  0.53217  0.70023  0.36373  1.0000
  H   H44       1.0  0.29977  0.83193  0.36373  1.0000
  H   H45       1.0  0.16807  0.46783  0.36373  1.0000
  H   H46       1.0  0.03357  0.19883  0.80293  1.0000
  H   H47       1.0  0.16527  0.96643  0.80293  1.0000
  H   H48       1.0  0.80117  0.83473  0.80293  1.0000
  H   H49       1.0  0.19883  0.03357  0.69707  1.0000
  H   H50       1.0  0.96643  0.16527  0.69707  1.0000
  H   H51       1.0  0.83473  0.80117  0.69707  1.0000
  H   H52       1.0  0.70023  0.53217  0.13627  1.0000
  H   H53       1.0  0.83193  0.29977  0.13627  1.0000
  H   H54       1.0  0.46783  0.16807  0.13627  1.0000
  H   H55       1.0  0.13450  0.63310  0.96960  1.0000
  H   H56       1.0  0.36690  0.50140  0.96960  1.0000
  H   H57       1.0  0.49860  0.86550  0.96960  1.0000
  H   H58       1.0  0.63310  0.13450  0.53040  1.0000
  H   H59       1.0  0.50140  0.36690  0.53040  1.0000
  H   H60       1.0  0.86550  0.49860  0.53040  1.0000
  H   H61       1.0  0.46783  0.29977  0.63627  1.0000
  H   H62       1.0  0.70023  0.16807  0.63627  1.0000
  H   H63       1.0  0.83193  0.53217  0.63627  1.0000
  H   H64       1.0  0.96643  0.80117  0.19707  1.0000
  H   H65       1.0  0.83473  0.03357  0.19707  1.0000
  H   H66       1.0  0.19883  0.16527  0.19707  1.0000
  H   H67       1.0  0.80117  0.96643  0.30293  1.0000
  H   H68       1.0  0.03357  0.83473  0.30293  1.0000
  H   H69       1.0  0.16527  0.19883  0.30293  1.0000
  H   H70       1.0  0.29977  0.46783  0.86373  1.0000
  H   H71       1.0  0.16807  0.70023  0.86373  1.0000
  H   H72       1.0  0.53217  0.83193  0.86373  1.0000
  C   C73       1.0  0.14795  0.51540  0.04117  1.0000
  C   C74       1.0  0.48460  0.63255  0.04117  1.0000
  C   C75       1.0  0.36745  0.85205  0.04117  1.0000
  C   C76       1.0  0.51540  0.14795  0.45883  1.0000
  C   C77       1.0  0.63255  0.48460  0.45883  1.0000
  C   C78       1.0  0.85205  0.36745  0.45883  1.0000
  C   C79       1.0  0.81462  0.84873  0.37450  1.0000
  C   C80       1.0  0.15127  0.96588  0.37450  1.0000
  C   C81       1.0  0.03412  0.18538  0.37450  1.0000
  C   C82       1.0  0.18207  0.48128  0.79216  1.0000
  C   C83       1.0  0.29922  0.81793  0.79216  1.0000
  C   C84       1.0  0.51872  0.70078  0.79216  1.0000
  C   C85       1.0  0.48128  0.18207  0.70784  1.0000
  C   C86       1.0  0.81793  0.29922  0.70784  1.0000
  C   C87       1.0  0.70078  0.51872  0.70784  1.0000
  C   C88       1.0  0.84873  0.81462  0.12550  1.0000
  C   C89       1.0  0.96588  0.15127  0.12550  1.0000
  C   C90       1.0  0.18538  0.03412  0.12550  1.0000
  C   C91       1.0  0.85205  0.48460  0.95883  1.0000
  C   C92       1.0  0.51540  0.36745  0.95883  1.0000
  C   C93       1.0  0.63255  0.14795  0.95883  1.0000
  C   C94       1.0  0.48460  0.85205  0.54117  1.0000
  C   C95       1.0  0.36745  0.51540  0.54117  1.0000
  C   C96       1.0  0.14795  0.63255  0.54117  1.0000
  C   C97       1.0  0.18538  0.15127  0.62550  1.0000
  C   C98       1.0  0.84873  0.03412  0.62550  1.0000
  C   C99       1.0  0.96588  0.81462  0.62550  1.0000
  C   C100      1.0  0.81793  0.51872  0.20784  1.0000
  C   C101      1.0  0.70078  0.18207  0.20784  1.0000
  C   C102      1.0  0.48128  0.29922  0.20784  1.0000
  C   C103      1.0  0.51872  0.81793  0.29216  1.0000
  C   C104      1.0  0.18207  0.70078  0.29216  1.0000
  C   C105      1.0  0.29922  0.48128  0.29216  1.0000
  C   C106      1.0  0.15127  0.18538  0.87450  1.0000
  C   C107      1.0  0.03412  0.84873  0.87450  1.0000
  C   C108      1.0  0.81462  0.96588  0.87450  1.0000
  H   H73       1.0  0.17920  0.47190  0.03980  1.0000
  H   H74       1.0  0.52810  0.70730  0.03980  1.0000
  H   H75       1.0  0.29270  0.82080  0.03980  1.0000
  H   H76       1.0  0.47190  0.17920  0.46020  1.0000
  H   H77       1.0  0.70730  0.52810  0.46020  1.0000
  H   H78       1.0  0.82080  0.29270  0.46020  1.0000
  H   H79       1.0  0.84587  0.80523  0.37313  1.0000
  H   H80       1.0  0.19477  0.04063  0.37313  1.0000
  H   H81       1.0  0.95937  0.15413  0.37313  1.0000
  H   H82       1.0  0.13857  0.51253  0.79353  1.0000
  H   H83       1.0  0.37397  0.86143  0.79353  1.0000
  H   H84       1.0  0.48747  0.62603  0.79353  1.0000
  H   H85       1.0  0.51253  0.13857  0.70647  1.0000
  H   H86       1.0  0.86143  0.37397  0.70647  1.0000
  H   H87       1.0  0.62603  0.48747  0.70647  1.0000
  H   H88       1.0  0.80523  0.84587  0.12687  1.0000
  H   H89       1.0  0.04063  0.19477  0.12687  1.0000
  H   H90       1.0  0.15413  0.95937  0.12687  1.0000
  H   H91       1.0  0.82080  0.52810  0.96020  1.0000
  H   H92       1.0  0.47190  0.29270  0.96020  1.0000
  H   H93       1.0  0.70730  0.17920  0.96020  1.0000
  H   H94       1.0  0.52810  0.82080  0.53980  1.0000
  H   H95       1.0  0.29270  0.47190  0.53980  1.0000
  H   H96       1.0  0.17920  0.70730  0.53980  1.0000
  H   H97       1.0  0.15413  0.19477  0.62687  1.0000
  H   H98       1.0  0.80523  0.95937  0.62687  1.0000
  H   H99       1.0  0.04063  0.84587  0.62687  1.0000
  H   H100      1.0  0.86143  0.48747  0.20647  1.0000
  H   H101      1.0  0.62603  0.13857  0.20647  1.0000
  H   H102      1.0  0.51253  0.37397  0.20647  1.0000
  H   H103      1.0  0.48747  0.86143  0.29353  1.0000
  H   H104      1.0  0.13857  0.62603  0.29353  1.0000
  H   H105      1.0  0.37397  0.51253  0.29353  1.0000
  H   H106      1.0  0.19477  0.15413  0.87313  1.0000
  H   H107      1.0  0.95937  0.80523  0.87313  1.0000
  H   H108      1.0  0.84587  0.04063  0.87313  1.0000
