data_image0
_chemical_formula_structural       Cu2N2O14C10H2C4H2C2
_chemical_formula_sum              "Cu2 N2 O14 C16 H4"
_cell_length_a       5.0936
_cell_length_b       9.832
_cell_length_c       12.8114
_cell_angle_alpha    73.952
_cell_angle_beta     78.679
_cell_angle_gamma    83.706

_space_group_name_H-M_alt    "P 1"
_space_group_IT_number       1

loop_
  _space_group_symop_operation_xyz
  'x, y, z'

loop_
  _atom_site_type_symbol
  _atom_site_label
  _atom_site_symmetry_multiplicity
  _atom_site_fract_x
  _atom_site_fract_y
  _atom_site_fract_z
  _atom_site_occupancy
  Cu  Cu1       1.0  0.95470  0.51350  0.88570  1.0000
  Cu  Cu2       1.0  0.04530  0.48650  0.11430  1.0000
  N   N1        1.0  0.19430  0.94650  0.18710  1.0000
  N   N2        1.0  0.80570  0.05350  0.81290  1.0000
  O   O1        1.0  0.83390  0.40930  0.03640  1.0000
  O   O2        1.0  0.16610  0.59070  0.96360  1.0000
  O   O3        1.0  0.94330  0.34920  0.24790  1.0000
  O   O4        1.0  0.05670  0.65080  0.75210  1.0000
  O   O5        1.0  0.75310  0.16500  0.36420  1.0000
  O   O6        1.0  0.24690  0.83500  0.63580  1.0000
  O   O7        1.0  0.68600  0.44420  0.83300  1.0000
  O   O8        1.0  0.31400  0.55580  0.16700  1.0000
  O   O9        1.0  0.30800  0.34550  0.84730  1.0000
  O   O10       1.0  0.69200  0.65450  0.15270  1.0000
  O   O11       1.0  0.21700  0.86650  0.27810  1.0000
  O   O12       1.0  0.78300  0.13350  0.72190  1.0000
  O   O13       1.0  0.05260  0.92570  0.12840  1.0000
  O   O14       1.0  0.94740  0.07430  0.87160  1.0000
  C   C1        1.0  0.79470  0.24570  0.26970  1.0000
  C   C2        1.0  0.20530  0.75430  0.73030  1.0000
  C   C3        1.0  0.50490  0.35870  0.88750  1.0000
  C   C4        1.0  0.49510  0.64130  0.11250  1.0000
  C   C5        1.0  0.67680  0.30130  0.07360  1.0000
  C   C6        1.0  0.32320  0.69870  0.92640  1.0000
  C   C7        1.0  0.65660  0.21760  0.18380  1.0000
  C   C8        1.0  0.34340  0.78240  0.81620  1.0000
  C   C9        1.0  0.49780  0.10160  0.21820  1.0000
  C   C10       1.0  0.50220  0.89840  0.78180  1.0000
  H   H1        1.0  0.48780  0.04390  0.28970  1.0000
  H   H2        1.0  0.51220  0.95610  0.71030  1.0000
  C   C11       1.0  0.35650  0.07140  0.14810  1.0000
  C   C12       1.0  0.64350  0.92860  0.85190  1.0000
  C   C13       1.0  0.35650  0.15540  0.04240  1.0000
  C   C14       1.0  0.64350  0.84460  0.95760  1.0000
  H   H3        1.0  0.25130  0.13510  0.99760  1.0000
  H   H4        1.0  0.74870  0.86490  0.00240  1.0000
  C   C15       1.0  0.51710  0.27170  0.00360  1.0000
  C   C16       1.0  0.48290  0.72830  0.99640  1.0000
