data_image0
_chemical_formula_structural       C24H8C8H8C16H8C32H8C8H8C16H8C8H8C8H8C8H8C32H8C8H8C16H8C8H8N8O48H8O16H16Zn4
_chemical_formula_sum              "C192 H128 N8 O64 Zn4"
_cell_length_a       20.076
_cell_length_b       11.329
_cell_length_c       23.937
_cell_angle_alpha    90
_cell_angle_beta     95.272
_cell_angle_gamma    90

_space_group_name_H-M_alt    "P 1"
_space_group_IT_number       1

loop_
  _space_group_symop_operation_xyz
  'x, y, z'

loop_
  _atom_site_type_symbol
  _atom_site_label
  _atom_site_symmetry_multiplicity
  _atom_site_fract_x
  _atom_site_fract_y
  _atom_site_fract_z
  _atom_site_occupancy
  C   C1        1.0  0.22080  0.16050  0.32900  1.0000
  C   C2        1.0  0.77920  0.16050  0.17100  1.0000
  C   C3        1.0  0.72080  0.66050  0.32900  1.0000
  C   C4        1.0  0.27920  0.66050  0.17100  1.0000
  C   C5        1.0  0.77920  0.83950  0.67100  1.0000
  C   C6        1.0  0.22080  0.83950  0.82900  1.0000
  C   C7        1.0  0.27920  0.33950  0.67100  1.0000
  C   C8        1.0  0.72080  0.33950  0.82900  1.0000
  C   C9        1.0  0.28950  0.15120  0.35780  1.0000
  C   C10       1.0  0.71050  0.15120  0.14220  1.0000
  C   C11       1.0  0.78950  0.65120  0.35780  1.0000
  C   C12       1.0  0.21050  0.65120  0.14220  1.0000
  C   C13       1.0  0.71050  0.84880  0.64220  1.0000
  C   C14       1.0  0.28950  0.84880  0.85780  1.0000
  C   C15       1.0  0.21050  0.34880  0.64220  1.0000
  C   C16       1.0  0.78950  0.34880  0.85780  1.0000
  C   C17       1.0  0.29880  0.04960  0.39050  1.0000
  C   C18       1.0  0.70120  0.04960  0.10950  1.0000
  C   C19       1.0  0.79880  0.54960  0.39050  1.0000
  C   C20       1.0  0.20120  0.54960  0.10950  1.0000
  C   C21       1.0  0.70120  0.95040  0.60950  1.0000
  C   C22       1.0  0.29880  0.95040  0.89050  1.0000
  C   C23       1.0  0.20120  0.45040  0.60950  1.0000
  C   C24       1.0  0.79880  0.45040  0.89050  1.0000
  H   H1        1.0  0.26380  0.99590  0.39080  1.0000
  H   H2        1.0  0.73620  0.99590  0.10920  1.0000
  H   H3        1.0  0.76380  0.49590  0.39080  1.0000
  H   H4        1.0  0.23620  0.49590  0.10920  1.0000
  H   H5        1.0  0.73620  0.00410  0.60920  1.0000
  H   H6        1.0  0.26380  0.00410  0.89080  1.0000
  H   H7        1.0  0.23620  0.50410  0.60920  1.0000
  H   H8        1.0  0.76380  0.50410  0.89080  1.0000
  C   C25       1.0  0.35850  0.02560  0.42240  1.0000
  C   C26       1.0  0.64150  0.02560  0.07760  1.0000
  C   C27       1.0  0.85850  0.52560  0.42240  1.0000
  C   C28       1.0  0.14150  0.52560  0.07760  1.0000
  C   C29       1.0  0.64150  0.97440  0.57760  1.0000
  C   C30       1.0  0.35850  0.97440  0.92240  1.0000
  C   C31       1.0  0.14150  0.47440  0.57760  1.0000
  C   C32       1.0  0.85850  0.47440  0.92240  1.0000
  H   H9        1.0  0.36370  0.95660  0.44340  1.0000
  H   H10       1.0  0.63630  0.95660  0.05660  1.0000
  H   H11       1.0  0.86370  0.45660  0.44340  1.0000
  H   H12       1.0  0.13630  0.45660  0.05660  1.0000
  H   H13       1.0  0.63630  0.04340  0.55660  1.0000
  H   H14       1.0  0.36370  0.04340  0.94340  1.0000
  H   H15       1.0  0.13630  0.54340  0.55660  1.0000
  H   H16       1.0  0.86370  0.54340  0.94340  1.0000
  C   C33       1.0  0.41040  0.10690  0.42240  1.0000
  C   C34       1.0  0.58960  0.10690  0.07760  1.0000
  C   C35       1.0  0.91040  0.60690  0.42240  1.0000
  C   C36       1.0  0.08960  0.60690  0.07760  1.0000
  C   C37       1.0  0.58960  0.89310  0.57760  1.0000
  C   C38       1.0  0.41040  0.89310  0.92240  1.0000
  C   C39       1.0  0.08960  0.39310  0.57760  1.0000
  C   C40       1.0  0.91040  0.39310  0.92240  1.0000
  C   C41       1.0  0.40370  0.20680  0.38970  1.0000
  C   C42       1.0  0.59630  0.20680  0.11030  1.0000
  C   C43       1.0  0.90370  0.70680  0.38970  1.0000
  C   C44       1.0  0.09630  0.70680  0.11030  1.0000
  C   C45       1.0  0.59630  0.79320  0.61030  1.0000
  C   C46       1.0  0.40370  0.79320  0.88970  1.0000
  C   C47       1.0  0.09630  0.29320  0.61030  1.0000
  C   C48       1.0  0.90370  0.29320  0.88970  1.0000
  H   H17       1.0  0.43970  0.25840  0.38930  1.0000
  H   H18       1.0  0.56030  0.25840  0.11070  1.0000
  H   H19       1.0  0.93970  0.75840  0.38930  1.0000
  H   H20       1.0  0.06030  0.75840  0.11070  1.0000
  H   H21       1.0  0.56030  0.74160  0.61070  1.0000
  H   H22       1.0  0.43970  0.74160  0.88930  1.0000
  H   H23       1.0  0.06030  0.24160  0.61070  1.0000
  H   H24       1.0  0.93970  0.24160  0.88930  1.0000
  C   C49       1.0  0.34380  0.23260  0.35710  1.0000
  C   C50       1.0  0.65620  0.23260  0.14290  1.0000
  C   C51       1.0  0.84380  0.73260  0.35710  1.0000
  C   C52       1.0  0.15620  0.73260  0.14290  1.0000
  C   C53       1.0  0.65620  0.76740  0.64290  1.0000
  C   C54       1.0  0.34380  0.76740  0.85710  1.0000
  C   C55       1.0  0.15620  0.26740  0.64290  1.0000
  C   C56       1.0  0.84380  0.26740  0.85710  1.0000
  C   C57       1.0  0.34330  0.34760  0.32510  1.0000
  C   C58       1.0  0.65670  0.34760  0.17490  1.0000
  C   C59       1.0  0.84330  0.84760  0.32510  1.0000
  C   C60       1.0  0.15670  0.84760  0.17490  1.0000
  C   C61       1.0  0.65670  0.65240  0.67490  1.0000
  C   C62       1.0  0.34330  0.65240  0.82510  1.0000
  C   C63       1.0  0.15670  0.15240  0.67490  1.0000
  C   C64       1.0  0.84330  0.15240  0.82510  1.0000
  C   C65       1.0  0.52750  0.07770  0.43340  1.0000
  C   C66       1.0  0.47250  0.07770  0.06660  1.0000
  C   C67       1.0  0.02750  0.57770  0.43340  1.0000
  C   C68       1.0  0.97250  0.57770  0.06660  1.0000
  C   C69       1.0  0.47250  0.92230  0.56660  1.0000
  C   C70       1.0  0.52750  0.92230  0.93340  1.0000
  C   C71       1.0  0.97250  0.42230  0.56660  1.0000
  C   C72       1.0  0.02750  0.42230  0.93340  1.0000
  C   C73       1.0  0.53640  0.97980  0.39850  1.0000
  C   C74       1.0  0.46360  0.97980  0.10150  1.0000
  C   C75       1.0  0.03640  0.47980  0.39850  1.0000
  C   C76       1.0  0.96360  0.47980  0.10150  1.0000
  C   C77       1.0  0.46360  0.02020  0.60150  1.0000
  C   C78       1.0  0.53640  0.02020  0.89850  1.0000
  C   C79       1.0  0.96360  0.52020  0.60150  1.0000
  C   C80       1.0  0.03640  0.52020  0.89850  1.0000
  H   H25       1.0  0.50300  0.92320  0.39260  1.0000
  H   H26       1.0  0.49700  0.92320  0.10740  1.0000
  H   H27       1.0  0.00300  0.42320  0.39260  1.0000
  H   H28       1.0  0.99700  0.42320  0.10740  1.0000
  H   H29       1.0  0.49700  0.07680  0.60740  1.0000
  H   H30       1.0  0.50300  0.07680  0.89260  1.0000
  H   H31       1.0  0.99700  0.57680  0.60740  1.0000
  H   H32       1.0  0.00300  0.57680  0.89260  1.0000
  C   C81       1.0  0.59440  0.96880  0.37360  1.0000
  C   C82       1.0  0.40560  0.96880  0.12640  1.0000
  C   C83       1.0  0.09440  0.46880  0.37360  1.0000
  C   C84       1.0  0.90560  0.46880  0.12640  1.0000
  C   C85       1.0  0.40560  0.03120  0.62640  1.0000
  C   C86       1.0  0.59440  0.03120  0.87360  1.0000
  C   C87       1.0  0.90560  0.53120  0.62640  1.0000
  C   C88       1.0  0.09440  0.53120  0.87360  1.0000
  H   H33       1.0  0.60020  0.90470  0.35020  1.0000
  H   H34       1.0  0.39980  0.90470  0.14980  1.0000
  H   H35       1.0  0.10020  0.40470  0.35020  1.0000
  H   H36       1.0  0.89980  0.40470  0.14980  1.0000
  H   H37       1.0  0.39980  0.09530  0.64980  1.0000
  H   H38       1.0  0.60020  0.09530  0.85020  1.0000
  H   H39       1.0  0.89980  0.59530  0.64980  1.0000
  H   H40       1.0  0.10020  0.59530  0.85020  1.0000
  C   C89       1.0  0.64610  0.05400  0.38280  1.0000
  C   C90       1.0  0.35390  0.05400  0.11720  1.0000
  C   C91       1.0  0.14610  0.55400  0.38280  1.0000
  C   C92       1.0  0.85390  0.55400  0.11720  1.0000
  C   C93       1.0  0.35390  0.94600  0.61720  1.0000
  C   C94       1.0  0.64610  0.94600  0.88280  1.0000
  C   C95       1.0  0.85390  0.44600  0.61720  1.0000
  C   C96       1.0  0.14610  0.44600  0.88280  1.0000
  C   C97       1.0  0.70570  0.04800  0.35570  1.0000
  C   C98       1.0  0.29430  0.04800  0.14430  1.0000
  C   C99       1.0  0.20570  0.54800  0.35570  1.0000
  C   C100      1.0  0.79430  0.54800  0.14430  1.0000
  C   C101      1.0  0.29430  0.95200  0.64430  1.0000
  C   C102      1.0  0.70570  0.95200  0.85570  1.0000
  C   C103      1.0  0.79430  0.45200  0.64430  1.0000
  C   C104      1.0  0.20570  0.45200  0.85570  1.0000
  H   H41       1.0  0.71090  0.98740  0.33020  1.0000
  H   H42       1.0  0.28910  0.98740  0.16980  1.0000
  H   H43       1.0  0.21090  0.48740  0.33020  1.0000
  H   H44       1.0  0.78910  0.48740  0.16980  1.0000
  H   H45       1.0  0.28910  0.01260  0.66980  1.0000
  H   H46       1.0  0.71090  0.01260  0.83020  1.0000
  H   H47       1.0  0.78910  0.51260  0.66980  1.0000
  H   H48       1.0  0.21090  0.51260  0.83020  1.0000
  C   C105      1.0  0.75490  0.12730  0.36570  1.0000
  C   C106      1.0  0.24510  0.12730  0.13430  1.0000
  C   C107      1.0  0.25490  0.62730  0.36570  1.0000
  C   C108      1.0  0.74510  0.62730  0.13430  1.0000
  C   C109      1.0  0.24510  0.87270  0.63430  1.0000
  C   C110      1.0  0.75490  0.87270  0.86570  1.0000
  C   C111      1.0  0.74510  0.37270  0.63430  1.0000
  C   C112      1.0  0.25490  0.37270  0.86570  1.0000
  H   H49       1.0  0.79330  0.12090  0.34700  1.0000
  H   H50       1.0  0.20670  0.12090  0.15300  1.0000
  H   H51       1.0  0.29330  0.62090  0.34700  1.0000
  H   H52       1.0  0.70670  0.62090  0.15300  1.0000
  H   H53       1.0  0.20670  0.87910  0.65300  1.0000
  H   H54       1.0  0.79330  0.87910  0.84700  1.0000
  H   H55       1.0  0.70670  0.37910  0.65300  1.0000
  H   H56       1.0  0.29330  0.37910  0.84700  1.0000
  C   C113      1.0  0.74950  0.22050  0.40430  1.0000
  C   C114      1.0  0.25050  0.22050  0.09570  1.0000
  C   C115      1.0  0.24950  0.72050  0.40430  1.0000
  C   C116      1.0  0.75050  0.72050  0.09570  1.0000
  C   C117      1.0  0.25050  0.77950  0.59570  1.0000
  C   C118      1.0  0.74950  0.77950  0.90430  1.0000
  C   C119      1.0  0.75050  0.27950  0.59570  1.0000
  C   C120      1.0  0.24950  0.27950  0.90430  1.0000
  H   H57       1.0  0.78440  0.27400  0.41160  1.0000
  H   H58       1.0  0.21560  0.27400  0.08840  1.0000
  H   H59       1.0  0.28440  0.77400  0.41160  1.0000
  H   H60       1.0  0.71560  0.77400  0.08840  1.0000
  H   H61       1.0  0.21560  0.72600  0.58840  1.0000
  H   H62       1.0  0.78440  0.72600  0.91160  1.0000
  H   H63       1.0  0.71560  0.22600  0.58840  1.0000
  H   H64       1.0  0.28440  0.22600  0.91160  1.0000
  C   C121      1.0  0.69130  0.23110  0.43120  1.0000
  C   C122      1.0  0.30870  0.23110  0.06880  1.0000
  C   C123      1.0  0.19130  0.73110  0.43120  1.0000
  C   C124      1.0  0.80870  0.73110  0.06880  1.0000
  C   C125      1.0  0.30870  0.76890  0.56880  1.0000
  C   C126      1.0  0.69130  0.76890  0.93120  1.0000
  C   C127      1.0  0.80870  0.26890  0.56880  1.0000
  C   C128      1.0  0.19130  0.26890  0.93120  1.0000
  H   H65       1.0  0.68720  0.29270  0.45630  1.0000
  H   H66       1.0  0.31280  0.29270  0.04370  1.0000
  H   H67       1.0  0.18720  0.79270  0.45630  1.0000
  H   H68       1.0  0.81280  0.79270  0.04370  1.0000
  H   H69       1.0  0.31280  0.70730  0.54370  1.0000
  H   H70       1.0  0.68720  0.70730  0.95630  1.0000
  H   H71       1.0  0.81280  0.20730  0.54370  1.0000
  H   H72       1.0  0.18720  0.20730  0.95630  1.0000
  C   C129      1.0  0.63820  0.14990  0.42090  1.0000
  C   C130      1.0  0.36180  0.14990  0.07910  1.0000
  C   C131      1.0  0.13820  0.64990  0.42090  1.0000
  C   C132      1.0  0.86180  0.64990  0.07910  1.0000
  C   C133      1.0  0.36180  0.85010  0.57910  1.0000
  C   C134      1.0  0.63820  0.85010  0.92090  1.0000
  C   C135      1.0  0.86180  0.35010  0.57910  1.0000
  C   C136      1.0  0.13820  0.35010  0.92090  1.0000
  C   C137      1.0  0.57660  0.16100  0.44590  1.0000
  C   C138      1.0  0.42340  0.16100  0.05410  1.0000
  C   C139      1.0  0.07660  0.66100  0.44590  1.0000
  C   C140      1.0  0.92340  0.66100  0.05410  1.0000
  C   C141      1.0  0.42340  0.83900  0.55410  1.0000
  C   C142      1.0  0.57660  0.83900  0.94590  1.0000
  C   C143      1.0  0.92340  0.33900  0.55410  1.0000
  C   C144      1.0  0.07660  0.33900  0.94590  1.0000
  C   C145      1.0  0.56390  0.26070  0.48480  1.0000
  C   C146      1.0  0.43610  0.26070  0.01520  1.0000
  C   C147      1.0  0.06390  0.76070  0.48480  1.0000
  C   C148      1.0  0.93610  0.76070  0.01520  1.0000
  C   C149      1.0  0.43610  0.73930  0.51520  1.0000
  C   C150      1.0  0.56390  0.73930  0.98480  1.0000
  C   C151      1.0  0.93610  0.23930  0.51520  1.0000
  C   C152      1.0  0.06390  0.23930  0.98480  1.0000
  C   C153      1.0  0.65490  0.54130  0.51440  1.0000
  C   C154      1.0  0.34510  0.54130  0.98560  1.0000
  C   C155      1.0  0.15490  0.04130  0.51440  1.0000
  C   C156      1.0  0.84510  0.04130  0.98560  1.0000
  C   C157      1.0  0.34510  0.45870  0.48560  1.0000
  C   C158      1.0  0.65490  0.45870  0.01440  1.0000
  C   C159      1.0  0.84510  0.95870  0.48560  1.0000
  C   C160      1.0  0.15490  0.95870  0.01440  1.0000
  H   H73       1.0  0.65470  0.46420  0.52780  1.0000
  H   H74       1.0  0.34530  0.46420  0.97220  1.0000
  H   H75       1.0  0.15470  0.96420  0.52780  1.0000
  H   H76       1.0  0.84530  0.96420  0.97220  1.0000
  H   H77       1.0  0.34530  0.53580  0.47220  1.0000
  H   H78       1.0  0.65470  0.53580  0.02780  1.0000
  H   H79       1.0  0.84530  0.03580  0.47220  1.0000
  H   H80       1.0  0.15470  0.03580  0.02780  1.0000
  C   C161      1.0  0.71510  0.59950  0.51750  1.0000
  C   C162      1.0  0.28490  0.59950  0.98250  1.0000
  C   C163      1.0  0.21510  0.09950  0.51750  1.0000
  C   C164      1.0  0.78490  0.09950  0.98250  1.0000
  C   C165      1.0  0.28490  0.40050  0.48250  1.0000
  C   C166      1.0  0.71510  0.40050  0.01750  1.0000
  C   C167      1.0  0.78490  0.90050  0.48250  1.0000
  C   C168      1.0  0.21510  0.90050  0.01750  1.0000
  H   H81       1.0  0.75390  0.56190  0.53250  1.0000
  H   H82       1.0  0.24610  0.56190  0.96750  1.0000
  H   H83       1.0  0.25390  0.06190  0.53250  1.0000
  H   H84       1.0  0.74610  0.06190  0.96750  1.0000
  H   H85       1.0  0.24610  0.43810  0.46750  1.0000
  H   H86       1.0  0.75390  0.43810  0.03250  1.0000
  H   H87       1.0  0.74610  0.93810  0.46750  1.0000
  H   H88       1.0  0.25390  0.93810  0.03250  1.0000
  C   C169      1.0  0.71790  0.71570  0.49810  1.0000
  C   C170      1.0  0.28210  0.71570  0.00190  1.0000
  C   C171      1.0  0.21790  0.21570  0.49810  1.0000
  C   C172      1.0  0.78210  0.21570  0.00190  1.0000
  C   C173      1.0  0.28210  0.28430  0.50190  1.0000
  C   C174      1.0  0.71790  0.28430  0.99810  1.0000
  C   C175      1.0  0.78210  0.78430  0.50190  1.0000
  C   C176      1.0  0.21790  0.78430  0.99810  1.0000
  C   C177      1.0  0.65800  0.76310  0.47490  1.0000
  C   C178      1.0  0.34200  0.76310  0.02510  1.0000
  C   C179      1.0  0.15800  0.26310  0.47490  1.0000
  C   C180      1.0  0.84200  0.26310  0.02510  1.0000
  C   C181      1.0  0.34200  0.23690  0.52510  1.0000
  C   C182      1.0  0.65800  0.23690  0.97490  1.0000
  C   C183      1.0  0.84200  0.73690  0.52510  1.0000
  C   C184      1.0  0.15800  0.73690  0.97490  1.0000
  H   H89       1.0  0.65710  0.83910  0.46010  1.0000
  H   H90       1.0  0.34290  0.83910  0.03990  1.0000
  H   H91       1.0  0.15710  0.33910  0.46010  1.0000
  H   H92       1.0  0.84290  0.33910  0.03990  1.0000
  H   H93       1.0  0.34290  0.16090  0.53990  1.0000
  H   H94       1.0  0.65710  0.16090  0.96010  1.0000
  H   H95       1.0  0.84290  0.66090  0.53990  1.0000
  H   H96       1.0  0.15710  0.66090  0.96010  1.0000
  C   C185      1.0  0.59940  0.69790  0.47360  1.0000
  C   C186      1.0  0.40060  0.69790  0.02640  1.0000
  C   C187      1.0  0.09940  0.19790  0.47360  1.0000
  C   C188      1.0  0.90060  0.19790  0.02640  1.0000
  C   C189      1.0  0.40060  0.30210  0.52640  1.0000
  C   C190      1.0  0.59940  0.30210  0.97360  1.0000
  C   C191      1.0  0.90060  0.80210  0.52640  1.0000
  C   C192      1.0  0.09940  0.80210  0.97360  1.0000
  H   H97       1.0  0.55990  0.73270  0.45820  1.0000
  H   H98       1.0  0.44010  0.73270  0.04180  1.0000
  H   H99       1.0  0.05990  0.23270  0.45820  1.0000
  H   H100      1.0  0.94010  0.23270  0.04180  1.0000
  H   H101      1.0  0.44010  0.26730  0.54180  1.0000
  H   H102      1.0  0.55990  0.26730  0.95820  1.0000
  H   H103      1.0  0.94010  0.76730  0.54180  1.0000
  H   H104      1.0  0.05990  0.76730  0.95820  1.0000
  N   N1        1.0  0.59660  0.58710  0.49352  1.0000
  N   N2        1.0  0.40340  0.58710  0.00648  1.0000
  N   N3        1.0  0.09660  0.08710  0.49352  1.0000
  N   N4        1.0  0.90340  0.08710  0.00648  1.0000
  N   N5        1.0  0.40340  0.41290  0.50648  1.0000
  N   N6        1.0  0.59660  0.41290  0.99352  1.0000
  N   N7        1.0  0.90340  0.91290  0.50648  1.0000
  N   N8        1.0  0.09660  0.91290  0.99352  1.0000
  O   O1        1.0  0.53322  0.34860  0.46287  1.0000
  O   O2        1.0  0.46678  0.34860  0.03713  1.0000
  O   O3        1.0  0.03322  0.84860  0.46287  1.0000
  O   O4        1.0  0.96678  0.84860  0.03713  1.0000
  O   O5        1.0  0.46678  0.65140  0.53713  1.0000
  O   O6        1.0  0.53322  0.65140  0.96287  1.0000
  O   O7        1.0  0.96678  0.15140  0.53713  1.0000
  O   O8        1.0  0.03322  0.15140  0.96287  1.0000
  O   O9        1.0  0.58670  0.25330  0.53556  1.0000
  O   O10       1.0  0.41330  0.25330  0.96444  1.0000
  O   O11       1.0  0.08670  0.75330  0.53556  1.0000
  O   O12       1.0  0.91330  0.75330  0.96444  1.0000
  O   O13       1.0  0.41330  0.74670  0.46444  1.0000
  O   O14       1.0  0.58670  0.74670  0.03556  1.0000
  O   O15       1.0  0.91330  0.24670  0.46444  1.0000
  O   O16       1.0  0.08670  0.24670  0.03556  1.0000
  O   O17       1.0  0.46777  0.08720  0.45865  1.0000
  O   O18       1.0  0.53223  0.08720  0.04135  1.0000
  O   O19       1.0  0.96777  0.58720  0.45865  1.0000
  O   O20       1.0  0.03223  0.58720  0.04135  1.0000
  O   O21       1.0  0.53223  0.91280  0.54135  1.0000
  O   O22       1.0  0.46777  0.91280  0.95865  1.0000
  O   O23       1.0  0.03223  0.41280  0.54135  1.0000
  O   O24       1.0  0.96777  0.41280  0.95865  1.0000
  O   O25       1.0  0.30160  0.36130  0.28139  1.0000
  O   O26       1.0  0.69840  0.36130  0.21861  1.0000
  O   O27       1.0  0.80160  0.86130  0.28139  1.0000
  O   O28       1.0  0.19840  0.86130  0.21861  1.0000
  O   O29       1.0  0.69840  0.63870  0.71861  1.0000
  O   O30       1.0  0.30160  0.63870  0.78139  1.0000
  O   O31       1.0  0.19840  0.13870  0.71861  1.0000
  O   O32       1.0  0.80160  0.13870  0.78139  1.0000
  O   O33       1.0  0.38540  0.42420  0.33994  1.0000
  O   O34       1.0  0.61460  0.42420  0.16006  1.0000
  O   O35       1.0  0.88540  0.92420  0.33994  1.0000
  O   O36       1.0  0.11460  0.92420  0.16006  1.0000
  O   O37       1.0  0.61460  0.57580  0.66006  1.0000
  O   O38       1.0  0.38540  0.57580  0.83994  1.0000
  O   O39       1.0  0.11460  0.07580  0.66006  1.0000
  O   O40       1.0  0.88540  0.07580  0.83994  1.0000
  O   O41       1.0  0.21100  0.22620  0.28490  1.0000
  O   O42       1.0  0.78900  0.22620  0.21510  1.0000
  O   O43       1.0  0.71100  0.72620  0.28490  1.0000
  O   O44       1.0  0.28900  0.72620  0.21510  1.0000
  O   O45       1.0  0.78900  0.77380  0.71510  1.0000
  O   O46       1.0  0.21100  0.77380  0.78490  1.0000
  O   O47       1.0  0.28900  0.27380  0.71510  1.0000
  O   O48       1.0  0.71100  0.27380  0.78490  1.0000
  H   H105      1.0  0.17280  0.21620  0.27040  1.0000
  H   H106      1.0  0.82720  0.21620  0.22960  1.0000
  H   H107      1.0  0.67280  0.71620  0.27040  1.0000
  H   H108      1.0  0.32720  0.71620  0.22960  1.0000
  H   H109      1.0  0.82720  0.78380  0.72960  1.0000
  H   H110      1.0  0.17280  0.78380  0.77040  1.0000
  H   H111      1.0  0.32720  0.28380  0.72960  1.0000
  H   H112      1.0  0.67280  0.28380  0.77040  1.0000
  O   O49       1.0  0.17430  0.10380  0.34710  1.0000
  O   O50       1.0  0.82570  0.10380  0.15290  1.0000
  O   O51       1.0  0.67430  0.60380  0.34710  1.0000
  O   O52       1.0  0.32570  0.60380  0.15290  1.0000
  O   O53       1.0  0.82570  0.89620  0.65290  1.0000
  O   O54       1.0  0.17430  0.89620  0.84710  1.0000
  O   O55       1.0  0.32570  0.39620  0.65290  1.0000
  O   O56       1.0  0.67430  0.39620  0.84710  1.0000
  O   O57       1.0  0.46502  0.56390  0.41675  1.0000
  O   O58       1.0  0.53498  0.56390  0.08325  1.0000
  O   O59       1.0  0.96502  0.06390  0.41675  1.0000
  O   O60       1.0  0.03498  0.06390  0.08325  1.0000
  O   O61       1.0  0.53498  0.43610  0.58325  1.0000
  O   O62       1.0  0.46502  0.43610  0.91675  1.0000
  O   O63       1.0  0.03498  0.93610  0.58325  1.0000
  O   O64       1.0  0.96502  0.93610  0.91675  1.0000
  H   H113      1.0  0.42510  0.54040  0.40840  1.0000
  H   H114      1.0  0.57490  0.54040  0.09160  1.0000
  H   H115      1.0  0.92510  0.04040  0.40840  1.0000
  H   H116      1.0  0.07490  0.04040  0.09160  1.0000
  H   H117      1.0  0.57490  0.45960  0.59160  1.0000
  H   H118      1.0  0.42510  0.45960  0.90840  1.0000
  H   H119      1.0  0.07490  0.95960  0.59160  1.0000
  H   H120      1.0  0.92510  0.95960  0.90840  1.0000
  H   H121      1.0  0.46600  0.63890  0.41650  1.0000
  H   H122      1.0  0.53400  0.63890  0.08350  1.0000
  H   H123      1.0  0.96600  0.13890  0.41650  1.0000
  H   H124      1.0  0.03400  0.13890  0.08350  1.0000
  H   H125      1.0  0.53400  0.36110  0.58350  1.0000
  H   H126      1.0  0.46600  0.36110  0.91650  1.0000
  H   H127      1.0  0.03400  0.86110  0.58350  1.0000
  H   H128      1.0  0.96600  0.86110  0.91650  1.0000
  Zn  Zn1       1.0  0.50000  0.50000  0.50000  1.0000
  Zn  Zn2       1.0  0.50000  0.50000  0.00000  1.0000
  Zn  Zn3       1.0  0.00000  0.00000  0.50000  1.0000
  Zn  Zn4       1.0  0.00000  0.00000  0.00000  1.0000
