data_image0
_chemical_formula_structural       Co4O32C40H8
_chemical_formula_sum              "Co4 O32 C40 H8"
_cell_length_a       10.6592
_cell_length_b       15.6897
_cell_length_c       11.4088
_cell_angle_alpha    90
_cell_angle_beta     90.101
_cell_angle_gamma    90

_space_group_name_H-M_alt    "P 1"
_space_group_IT_number       1

loop_
  _space_group_symop_operation_xyz
  'x, y, z'

loop_
  _atom_site_type_symbol
  _atom_site_label
  _atom_site_symmetry_multiplicity
  _atom_site_fract_x
  _atom_site_fract_y
  _atom_site_fract_z
  _atom_site_occupancy
  Co  Co1       1.0  0.00000  0.00288  0.25000  1.0000
  Co  Co2       1.0  0.50000  0.50288  0.25000  1.0000
  Co  Co3       1.0  0.00000  0.99712  0.75000  1.0000
  Co  Co4       1.0  0.50000  0.49712  0.75000  1.0000
  O   O1        1.0  0.90603  0.93884  0.37420  1.0000
  O   O2        1.0  0.40603  0.43884  0.37420  1.0000
  O   O3        1.0  0.90603  0.06116  0.87420  1.0000
  O   O4        1.0  0.40603  0.56116  0.87420  1.0000
  O   O5        1.0  0.09397  0.06116  0.62580  1.0000
  O   O6        1.0  0.59397  0.56116  0.62580  1.0000
  O   O7        1.0  0.09397  0.93884  0.12580  1.0000
  O   O8        1.0  0.59397  0.43884  0.12580  1.0000
  O   O9        1.0  0.83391  0.85978  0.22825  1.0000
  O   O10       1.0  0.33391  0.35978  0.22825  1.0000
  O   O11       1.0  0.83391  0.14022  0.72825  1.0000
  O   O12       1.0  0.33391  0.64022  0.72825  1.0000
  O   O13       1.0  0.16609  0.14022  0.77175  1.0000
  O   O14       1.0  0.66609  0.64022  0.77175  1.0000
  O   O15       1.0  0.16609  0.85978  0.27175  1.0000
  O   O16       1.0  0.66609  0.35978  0.27175  1.0000
  O   O17       1.0  0.87375  0.93611  0.65426  1.0000
  O   O18       1.0  0.37375  0.43611  0.65426  1.0000
  O   O19       1.0  0.87375  0.06389  0.15426  1.0000
  O   O20       1.0  0.37375  0.56389  0.15426  1.0000
  O   O21       1.0  0.12625  0.06389  0.34574  1.0000
  O   O22       1.0  0.62625  0.56389  0.34574  1.0000
  O   O23       1.0  0.12625  0.93611  0.84574  1.0000
  O   O24       1.0  0.62625  0.43611  0.84574  1.0000
  O   O25       1.0  0.03645  0.85952  0.59206  1.0000
  O   O26       1.0  0.53645  0.35952  0.59206  1.0000
  O   O27       1.0  0.03645  0.14048  0.09206  1.0000
  O   O28       1.0  0.53645  0.64048  0.09206  1.0000
  O   O29       1.0  0.96355  0.14048  0.40794  1.0000
  O   O30       1.0  0.46355  0.64048  0.40794  1.0000
  O   O31       1.0  0.96355  0.85952  0.90794  1.0000
  O   O32       1.0  0.46355  0.35952  0.90794  1.0000
  C   C1        1.0  0.80050  0.81024  0.42218  1.0000
  C   C2        1.0  0.30050  0.31024  0.42218  1.0000
  C   C3        1.0  0.80050  0.18976  0.92218  1.0000
  C   C4        1.0  0.30050  0.68976  0.92218  1.0000
  C   C5        1.0  0.19950  0.18976  0.57782  1.0000
  C   C6        1.0  0.69950  0.68976  0.57782  1.0000
  C   C7        1.0  0.19950  0.81024  0.07782  1.0000
  C   C8        1.0  0.69950  0.31024  0.07782  1.0000
  C   C9        1.0  0.83150  0.81333  0.54177  1.0000
  C   C10       1.0  0.33150  0.31333  0.54177  1.0000
  C   C11       1.0  0.83150  0.18667  0.04177  1.0000
  C   C12       1.0  0.33150  0.68667  0.04177  1.0000
  C   C13       1.0  0.16850  0.18667  0.45823  1.0000
  C   C14       1.0  0.66850  0.68667  0.45823  1.0000
  C   C15       1.0  0.16850  0.81333  0.95823  1.0000
  C   C16       1.0  0.66850  0.31333  0.95823  1.0000
  C   C17       1.0  0.71970  0.74678  0.38299  1.0000
  C   C18       1.0  0.21970  0.24678  0.38299  1.0000
  C   C19       1.0  0.71970  0.25322  0.88299  1.0000
  C   C20       1.0  0.21970  0.75322  0.88299  1.0000
  C   C21       1.0  0.28030  0.25322  0.61701  1.0000
  C   C22       1.0  0.78030  0.75322  0.61701  1.0000
  C   C23       1.0  0.28030  0.74678  0.11701  1.0000
  C   C24       1.0  0.78030  0.24678  0.11701  1.0000
  C   C25       1.0  0.85040  0.87331  0.33454  1.0000
  C   C26       1.0  0.35040  0.37331  0.33454  1.0000
  C   C27       1.0  0.85040  0.12669  0.83454  1.0000
  C   C28       1.0  0.35040  0.62669  0.83454  1.0000
  C   C29       1.0  0.14960  0.12669  0.66546  1.0000
  C   C30       1.0  0.64960  0.62669  0.66546  1.0000
  C   C31       1.0  0.14960  0.87331  0.16546  1.0000
  C   C32       1.0  0.64960  0.37331  0.16546  1.0000
  C   C33       1.0  0.92270  0.87520  0.59659  1.0000
  C   C34       1.0  0.42270  0.37520  0.59659  1.0000
  C   C35       1.0  0.92270  0.12480  0.09659  1.0000
  C   C36       1.0  0.42270  0.62480  0.09659  1.0000
  C   C37       1.0  0.07730  0.12480  0.40341  1.0000
  C   C38       1.0  0.57730  0.62480  0.40341  1.0000
  C   C39       1.0  0.07730  0.87520  0.90341  1.0000
  C   C40       1.0  0.57730  0.37520  0.90341  1.0000
  H   H1        1.0  0.69950  0.74490  0.30010  1.0000
  H   H2        1.0  0.19950  0.24490  0.30010  1.0000
  H   H3        1.0  0.69950  0.25510  0.80010  1.0000
  H   H4        1.0  0.19950  0.75510  0.80010  1.0000
  H   H5        1.0  0.30050  0.25510  0.69990  1.0000
  H   H6        1.0  0.80050  0.75510  0.69990  1.0000
  H   H7        1.0  0.30050  0.74490  0.19990  1.0000
  H   H8        1.0  0.80050  0.24490  0.19990  1.0000
