data_image0
_chemical_formula_structural       Cd12C40H8C16H8C16H8C16H8C8H8N12O56N8C16H24C8H24C8H24
_chemical_formula_sum              "Cd12 C128 H112 N20 O56"
_cell_length_a       21.7899
_cell_length_b       16.6337
_cell_length_c       13.5149
_cell_angle_alpha    90
_cell_angle_beta     93.816
_cell_angle_gamma    90

_space_group_name_H-M_alt    "P 1"
_space_group_IT_number       1

loop_
  _space_group_symop_operation_xyz
  'x, y, z'

loop_
  _atom_site_type_symbol
  _atom_site_label
  _atom_site_symmetry_multiplicity
  _atom_site_fract_x
  _atom_site_fract_y
  _atom_site_fract_z
  _atom_site_occupancy
  Cd  Cd1       1.0  0.50000  0.13271  0.25000  1.0000
  Cd  Cd2       1.0  0.00000  0.63271  0.25000  1.0000
  Cd  Cd3       1.0  0.50000  0.86729  0.75000  1.0000
  Cd  Cd4       1.0  0.00000  0.36729  0.75000  1.0000
  Cd  Cd5       1.0  0.64332  0.24955  0.26697  1.0000
  Cd  Cd6       1.0  0.35668  0.24955  0.23303  1.0000
  Cd  Cd7       1.0  0.14332  0.74955  0.26697  1.0000
  Cd  Cd8       1.0  0.85668  0.74955  0.23303  1.0000
  Cd  Cd9       1.0  0.35668  0.75045  0.73303  1.0000
  Cd  Cd10      1.0  0.64332  0.75045  0.76697  1.0000
  Cd  Cd11      1.0  0.85668  0.25045  0.73303  1.0000
  Cd  Cd12      1.0  0.14332  0.25045  0.76697  1.0000
  C   C1        1.0  0.58457  0.11110  0.41470  1.0000
  C   C2        1.0  0.41543  0.11110  0.08530  1.0000
  C   C3        1.0  0.08457  0.61110  0.41470  1.0000
  C   C4        1.0  0.91543  0.61110  0.08530  1.0000
  C   C5        1.0  0.41543  0.88890  0.58530  1.0000
  C   C6        1.0  0.58457  0.88890  0.91470  1.0000
  C   C7        1.0  0.91543  0.38890  0.58530  1.0000
  C   C8        1.0  0.08457  0.38890  0.91470  1.0000
  C   C9        1.0  0.63600  0.90460  0.67990  1.0000
  C   C10       1.0  0.36400  0.90460  0.82010  1.0000
  C   C11       1.0  0.13600  0.40460  0.67990  1.0000
  C   C12       1.0  0.86400  0.40460  0.82010  1.0000
  C   C13       1.0  0.36400  0.09540  0.32010  1.0000
  C   C14       1.0  0.63600  0.09540  0.17990  1.0000
  C   C15       1.0  0.86400  0.59540  0.32010  1.0000
  C   C16       1.0  0.13600  0.59540  0.17990  1.0000
  C   C17       1.0  0.76770  0.14960  0.65490  1.0000
  C   C18       1.0  0.23230  0.14960  0.84510  1.0000
  C   C19       1.0  0.26770  0.64960  0.65490  1.0000
  C   C20       1.0  0.73230  0.64960  0.84510  1.0000
  C   C21       1.0  0.23230  0.85040  0.34510  1.0000
  C   C22       1.0  0.76770  0.85040  0.15490  1.0000
  C   C23       1.0  0.73230  0.35040  0.34510  1.0000
  C   C24       1.0  0.26770  0.35040  0.15490  1.0000
  C   C25       1.0  0.62431  0.08250  0.50470  1.0000
  C   C26       1.0  0.37569  0.08250  0.99530  1.0000
  C   C27       1.0  0.12431  0.58250  0.50470  1.0000
  C   C28       1.0  0.87569  0.58250  0.99530  1.0000
  C   C29       1.0  0.37569  0.91750  0.49530  1.0000
  C   C30       1.0  0.62431  0.91750  0.00470  1.0000
  C   C31       1.0  0.87569  0.41750  0.49530  1.0000
  C   C32       1.0  0.12431  0.41750  0.00470  1.0000
  C   C33       1.0  0.61005  0.01060  0.55200  1.0000
  C   C34       1.0  0.38995  0.01060  0.94800  1.0000
  C   C35       1.0  0.11005  0.51060  0.55200  1.0000
  C   C36       1.0  0.88995  0.51060  0.94800  1.0000
  C   C37       1.0  0.38995  0.98940  0.44800  1.0000
  C   C38       1.0  0.61005  0.98940  0.05200  1.0000
  C   C39       1.0  0.88995  0.48940  0.44800  1.0000
  C   C40       1.0  0.11005  0.48940  0.05200  1.0000
  H   H1        1.0  0.57570  0.98080  0.52980  1.0000
  H   H2        1.0  0.42430  0.98080  0.97020  1.0000
  H   H3        1.0  0.07570  0.48080  0.52980  1.0000
  H   H4        1.0  0.92430  0.48080  0.97020  1.0000
  H   H5        1.0  0.42430  0.01920  0.47020  1.0000
  H   H6        1.0  0.57570  0.01920  0.02980  1.0000
  H   H7        1.0  0.92430  0.51920  0.47020  1.0000
  H   H8        1.0  0.07570  0.51920  0.02980  1.0000
  C   C41       1.0  0.64778  0.98430  0.63260  1.0000
  C   C42       1.0  0.35222  0.98430  0.86740  1.0000
  C   C43       1.0  0.14778  0.48430  0.63260  1.0000
  C   C44       1.0  0.85222  0.48430  0.86740  1.0000
  C   C45       1.0  0.35222  0.01570  0.36740  1.0000
  C   C46       1.0  0.64778  0.01570  0.13260  1.0000
  C   C47       1.0  0.85222  0.51570  0.36740  1.0000
  C   C48       1.0  0.14778  0.51570  0.13260  1.0000
  C   C49       1.0  0.69830  0.02960  0.66460  1.0000
  C   C50       1.0  0.30170  0.02960  0.83540  1.0000
  C   C51       1.0  0.19830  0.52960  0.66460  1.0000
  C   C52       1.0  0.80170  0.52960  0.83540  1.0000
  C   C53       1.0  0.30170  0.97040  0.33540  1.0000
  C   C54       1.0  0.69830  0.97040  0.16460  1.0000
  C   C55       1.0  0.80170  0.47040  0.33540  1.0000
  C   C56       1.0  0.19830  0.47040  0.16460  1.0000
  H   H9        1.0  0.72370  0.01140  0.71790  1.0000
  H   H10       1.0  0.27630  0.01140  0.78210  1.0000
  H   H11       1.0  0.22370  0.51140  0.71790  1.0000
  H   H12       1.0  0.77630  0.51140  0.78210  1.0000
  H   H13       1.0  0.27630  0.98860  0.28210  1.0000
  H   H14       1.0  0.72370  0.98860  0.21790  1.0000
  H   H15       1.0  0.77630  0.48860  0.28210  1.0000
  H   H16       1.0  0.22370  0.48860  0.21790  1.0000
  C   C57       1.0  0.71218  0.10150  0.61950  1.0000
  C   C58       1.0  0.28782  0.10150  0.88050  1.0000
  C   C59       1.0  0.21218  0.60150  0.61950  1.0000
  C   C60       1.0  0.78782  0.60150  0.88050  1.0000
  C   C61       1.0  0.28782  0.89850  0.38050  1.0000
  C   C62       1.0  0.71218  0.89850  0.11950  1.0000
  C   C63       1.0  0.78782  0.39850  0.38050  1.0000
  C   C64       1.0  0.21218  0.39850  0.11950  1.0000
  C   C65       1.0  0.67440  0.12780  0.53900  1.0000
  C   C66       1.0  0.32560  0.12780  0.96100  1.0000
  C   C67       1.0  0.17440  0.62780  0.53900  1.0000
  C   C68       1.0  0.82560  0.62780  0.96100  1.0000
  C   C69       1.0  0.32560  0.87220  0.46100  1.0000
  C   C70       1.0  0.67440  0.87220  0.03900  1.0000
  C   C71       1.0  0.82560  0.37220  0.46100  1.0000
  C   C72       1.0  0.17440  0.37220  0.03900  1.0000
  H   H17       1.0  0.68290  0.17620  0.50820  1.0000
  H   H18       1.0  0.31710  0.17620  0.99180  1.0000
  H   H19       1.0  0.18290  0.67620  0.50820  1.0000
  H   H20       1.0  0.81710  0.67620  0.99180  1.0000
  H   H21       1.0  0.31710  0.82380  0.49180  1.0000
  H   H22       1.0  0.68290  0.82380  0.00820  1.0000
  H   H23       1.0  0.81710  0.32380  0.49180  1.0000
  H   H24       1.0  0.18290  0.32380  0.00820  1.0000
  C   C73       1.0  0.53140  0.39180  0.25090  1.0000
  C   C74       1.0  0.46860  0.39180  0.24910  1.0000
  C   C75       1.0  0.03140  0.89180  0.25090  1.0000
  C   C76       1.0  0.96860  0.89180  0.24910  1.0000
  C   C77       1.0  0.46860  0.60820  0.74910  1.0000
  C   C78       1.0  0.53140  0.60820  0.75090  1.0000
  C   C79       1.0  0.96860  0.10820  0.74910  1.0000
  C   C80       1.0  0.03140  0.10820  0.75090  1.0000
  C   C81       1.0  0.56590  0.46410  0.25090  1.0000
  C   C82       1.0  0.43410  0.46410  0.24910  1.0000
  C   C83       1.0  0.06590  0.96410  0.25090  1.0000
  C   C84       1.0  0.93410  0.96410  0.24910  1.0000
  C   C85       1.0  0.43410  0.53590  0.74910  1.0000
  C   C86       1.0  0.56590  0.53590  0.75090  1.0000
  C   C87       1.0  0.93410  0.03590  0.74910  1.0000
  C   C88       1.0  0.06590  0.03590  0.75090  1.0000
  H   H25       1.0  0.60860  0.46410  0.25140  1.0000
  H   H26       1.0  0.39140  0.46410  0.24860  1.0000
  H   H27       1.0  0.10860  0.96410  0.25140  1.0000
  H   H28       1.0  0.89140  0.96410  0.24860  1.0000
  H   H29       1.0  0.39140  0.53590  0.74860  1.0000
  H   H30       1.0  0.60860  0.53590  0.75140  1.0000
  H   H31       1.0  0.89140  0.03590  0.74860  1.0000
  H   H32       1.0  0.10860  0.03590  0.75140  1.0000
  C   C89       1.0  0.53290  0.53330  0.25000  1.0000
  C   C90       1.0  0.46710  0.53330  0.25000  1.0000
  C   C91       1.0  0.03290  0.03330  0.25000  1.0000
  C   C92       1.0  0.96710  0.03330  0.25000  1.0000
  C   C93       1.0  0.46710  0.46670  0.75000  1.0000
  C   C94       1.0  0.53290  0.46670  0.75000  1.0000
  C   C95       1.0  0.96710  0.96670  0.75000  1.0000
  C   C96       1.0  0.03290  0.96670  0.75000  1.0000
  H   H33       1.0  0.55360  0.58220  0.24940  1.0000
  H   H34       1.0  0.44640  0.58220  0.25060  1.0000
  H   H35       1.0  0.05360  0.08220  0.24940  1.0000
  H   H36       1.0  0.94640  0.08220  0.25060  1.0000
  H   H37       1.0  0.44640  0.41780  0.75060  1.0000
  H   H38       1.0  0.55360  0.41780  0.74940  1.0000
  H   H39       1.0  0.94640  0.91780  0.75060  1.0000
  H   H40       1.0  0.05360  0.91780  0.74940  1.0000
  N   N1        1.0  0.50000  0.27040  0.25000  1.0000
  N   N2        1.0  0.00000  0.77040  0.25000  1.0000
  N   N3        1.0  0.50000  0.72960  0.75000  1.0000
  N   N4        1.0  0.00000  0.22960  0.75000  1.0000
  N   N5        1.0  0.55048  0.31430  0.25110  1.0000
  N   N6        1.0  0.44952  0.31430  0.24890  1.0000
  N   N7        1.0  0.05048  0.81430  0.25110  1.0000
  N   N8        1.0  0.94952  0.81430  0.24890  1.0000
  N   N9        1.0  0.44952  0.68570  0.74890  1.0000
  N   N10       1.0  0.55048  0.68570  0.75110  1.0000
  N   N11       1.0  0.94952  0.18570  0.74890  1.0000
  N   N12       1.0  0.05048  0.18570  0.75110  1.0000
  O   O1        1.0  0.58995  0.18290  0.38940  1.0000
  O   O2        1.0  0.41005  0.18290  0.11060  1.0000
  O   O3        1.0  0.08995  0.68290  0.38940  1.0000
  O   O4        1.0  0.91005  0.68290  0.11060  1.0000
  O   O5        1.0  0.41005  0.81710  0.61060  1.0000
  O   O6        1.0  0.58995  0.81710  0.88940  1.0000
  O   O7        1.0  0.91005  0.31710  0.61060  1.0000
  O   O8        1.0  0.08995  0.31710  0.88940  1.0000
  O   O9        1.0  0.54867  0.06210  0.37270  1.0000
  O   O10       1.0  0.45133  0.06210  0.12730  1.0000
  O   O11       1.0  0.04867  0.56210  0.37270  1.0000
  O   O12       1.0  0.95133  0.56210  0.12730  1.0000
  O   O13       1.0  0.45133  0.93790  0.62730  1.0000
  O   O14       1.0  0.54867  0.93790  0.87270  1.0000
  O   O15       1.0  0.95133  0.43790  0.62730  1.0000
  O   O16       1.0  0.04867  0.43790  0.87270  1.0000
  O   O17       1.0  0.58608  0.86880  0.65930  1.0000
  O   O18       1.0  0.41392  0.86880  0.84070  1.0000
  O   O19       1.0  0.08608  0.36880  0.65930  1.0000
  O   O20       1.0  0.91392  0.36880  0.84070  1.0000
  O   O21       1.0  0.41392  0.13120  0.34070  1.0000
  O   O22       1.0  0.58608  0.13120  0.15930  1.0000
  O   O23       1.0  0.91392  0.63120  0.34070  1.0000
  O   O24       1.0  0.08608  0.63120  0.15930  1.0000
  O   O25       1.0  0.67820  0.87540  0.73590  1.0000
  O   O26       1.0  0.32180  0.87540  0.76410  1.0000
  O   O27       1.0  0.17820  0.37540  0.73590  1.0000
  O   O28       1.0  0.82180  0.37540  0.76410  1.0000
  O   O29       1.0  0.32180  0.12460  0.26410  1.0000
  O   O30       1.0  0.67820  0.12460  0.23590  1.0000
  O   O31       1.0  0.82180  0.62460  0.26410  1.0000
  O   O32       1.0  0.17820  0.62460  0.23590  1.0000
  O   O33       1.0  0.80588  0.11680  0.71540  1.0000
  O   O34       1.0  0.19412  0.11680  0.78460  1.0000
  O   O35       1.0  0.30588  0.61680  0.71540  1.0000
  O   O36       1.0  0.69412  0.61680  0.78460  1.0000
  O   O37       1.0  0.19412  0.88320  0.28460  1.0000
  O   O38       1.0  0.80588  0.88320  0.21540  1.0000
  O   O39       1.0  0.69412  0.38320  0.28460  1.0000
  O   O40       1.0  0.30588  0.38320  0.21540  1.0000
  O   O41       1.0  0.77364  0.21840  0.62580  1.0000
  O   O42       1.0  0.22636  0.21840  0.87420  1.0000
  O   O43       1.0  0.27364  0.71840  0.62580  1.0000
  O   O44       1.0  0.72636  0.71840  0.87420  1.0000
  O   O45       1.0  0.22636  0.78160  0.37420  1.0000
  O   O46       1.0  0.77364  0.78160  0.12580  1.0000
  O   O47       1.0  0.72636  0.28160  0.37420  1.0000
  O   O48       1.0  0.27364  0.28160  0.12580  1.0000
  O   O49       1.0  0.68030  0.27490  0.11730  1.0000
  O   O50       1.0  0.31970  0.27490  0.38270  1.0000
  O   O51       1.0  0.18030  0.77490  0.11730  1.0000
  O   O52       1.0  0.81970  0.77490  0.38270  1.0000
  O   O53       1.0  0.31970  0.72510  0.88270  1.0000
  O   O54       1.0  0.68030  0.72510  0.61730  1.0000
  O   O55       1.0  0.81970  0.22510  0.88270  1.0000
  O   O56       1.0  0.18030  0.22510  0.61730  1.0000
  N   N13       1.0  0.69240  0.37360  0.01280  1.0000
  N   N14       1.0  0.30760  0.37360  0.48720  1.0000
  N   N15       1.0  0.19240  0.87360  0.01280  1.0000
  N   N16       1.0  0.80760  0.87360  0.48720  1.0000
  N   N17       1.0  0.30760  0.62640  0.98720  1.0000
  N   N18       1.0  0.69240  0.62640  0.51280  1.0000
  N   N19       1.0  0.80760  0.12640  0.98720  1.0000
  N   N20       1.0  0.19240  0.12640  0.51280  1.0000
  C   C97       1.0  0.66220  0.30910  0.06730  1.0000
  C   C98       1.0  0.33780  0.30910  0.43270  1.0000
  C   C99       1.0  0.16220  0.80910  0.06730  1.0000
  C   C100      1.0  0.83780  0.80910  0.43270  1.0000
  C   C101      1.0  0.33780  0.69090  0.93270  1.0000
  C   C102      1.0  0.66220  0.69090  0.56730  1.0000
  C   C103      1.0  0.83780  0.19090  0.93270  1.0000
  C   C104      1.0  0.16220  0.19090  0.56730  1.0000
  C   C105      1.0  0.60390  0.34090  0.00780  1.0000
  C   C106      1.0  0.39610  0.34090  0.49220  1.0000
  C   C107      1.0  0.10390  0.84090  0.00780  1.0000
  C   C108      1.0  0.89610  0.84090  0.49220  1.0000
  C   C109      1.0  0.39610  0.65910  0.99220  1.0000
  C   C110      1.0  0.60390  0.65910  0.50780  1.0000
  C   C111      1.0  0.89610  0.15910  0.99220  1.0000
  C   C112      1.0  0.10390  0.15910  0.50780  1.0000
  H   H41       1.0  0.56890  0.30980  0.02420  1.0000
  H   H42       1.0  0.43110  0.30980  0.47580  1.0000
  H   H43       1.0  0.06890  0.80980  0.02420  1.0000
  H   H44       1.0  0.93110  0.80980  0.47580  1.0000
  H   H45       1.0  0.43110  0.69020  0.97580  1.0000
  H   H46       1.0  0.56890  0.69020  0.52420  1.0000
  H   H47       1.0  0.93110  0.19020  0.97580  1.0000
  H   H48       1.0  0.06890  0.19020  0.52420  1.0000
  H   H49       1.0  0.60920  0.33620  0.93800  1.0000
  H   H50       1.0  0.39080  0.33620  0.56200  1.0000
  H   H51       1.0  0.10920  0.83620  0.93800  1.0000
  H   H52       1.0  0.89080  0.83620  0.56200  1.0000
  H   H53       1.0  0.39080  0.66380  0.06200  1.0000
  H   H54       1.0  0.60920  0.66380  0.43800  1.0000
  H   H55       1.0  0.89080  0.16380  0.06200  1.0000
  H   H56       1.0  0.10920  0.16380  0.43800  1.0000
  H   H57       1.0  0.59750  0.39630  0.02410  1.0000
  H   H58       1.0  0.40250  0.39630  0.47590  1.0000
  H   H59       1.0  0.09750  0.89630  0.02410  1.0000
  H   H60       1.0  0.90250  0.89630  0.47590  1.0000
  H   H61       1.0  0.40250  0.60370  0.97590  1.0000
  H   H62       1.0  0.59750  0.60370  0.52410  1.0000
  H   H63       1.0  0.90250  0.10370  0.97590  1.0000
  H   H64       1.0  0.09750  0.10370  0.52410  1.0000
  C   C113      1.0  0.68650  0.42500  0.92330  1.0000
  C   C114      1.0  0.31350  0.42500  0.57670  1.0000
  C   C115      1.0  0.18650  0.92500  0.92330  1.0000
  C   C116      1.0  0.81350  0.92500  0.57670  1.0000
  C   C117      1.0  0.31350  0.57500  0.07670  1.0000
  C   C118      1.0  0.68650  0.57500  0.42330  1.0000
  C   C119      1.0  0.81350  0.07500  0.07670  1.0000
  C   C120      1.0  0.18650  0.07500  0.42330  1.0000
  H   H65       1.0  0.64420  0.42660  0.89820  1.0000
  H   H66       1.0  0.35580  0.42660  0.60180  1.0000
  H   H67       1.0  0.14420  0.92660  0.89820  1.0000
  H   H68       1.0  0.85580  0.92660  0.60180  1.0000
  H   H69       1.0  0.35580  0.57340  0.10180  1.0000
  H   H70       1.0  0.64420  0.57340  0.39820  1.0000
  H   H71       1.0  0.85580  0.07340  0.10180  1.0000
  H   H72       1.0  0.14420  0.07340  0.39820  1.0000
  H   H73       1.0  0.71120  0.40340  0.87350  1.0000
  H   H74       1.0  0.28880  0.40340  0.62650  1.0000
  H   H75       1.0  0.21120  0.90340  0.87350  1.0000
  H   H76       1.0  0.78880  0.90340  0.62650  1.0000
  H   H77       1.0  0.28880  0.59660  0.12650  1.0000
  H   H78       1.0  0.71120  0.59660  0.37350  1.0000
  H   H79       1.0  0.78880  0.09660  0.12650  1.0000
  H   H80       1.0  0.21120  0.09660  0.37350  1.0000
  H   H81       1.0  0.70010  0.47850  0.94020  1.0000
  H   H82       1.0  0.29990  0.47850  0.55980  1.0000
  H   H83       1.0  0.20010  0.97850  0.94020  1.0000
  H   H84       1.0  0.79990  0.97850  0.55980  1.0000
  H   H85       1.0  0.29990  0.52150  0.05980  1.0000
  H   H86       1.0  0.70010  0.52150  0.44020  1.0000
  H   H87       1.0  0.79990  0.02150  0.05980  1.0000
  H   H88       1.0  0.20010  0.02150  0.44020  1.0000
  C   C121      1.0  0.75610  0.36880  0.05770  1.0000
  C   C122      1.0  0.24390  0.36880  0.44230  1.0000
  C   C123      1.0  0.25610  0.86880  0.05770  1.0000
  C   C124      1.0  0.74390  0.86880  0.44230  1.0000
  C   C125      1.0  0.24390  0.63120  0.94230  1.0000
  C   C126      1.0  0.75610  0.63120  0.55770  1.0000
  C   C127      1.0  0.74390  0.13120  0.94230  1.0000
  C   C128      1.0  0.25610  0.13120  0.55770  1.0000
  H   H89       1.0  0.75720  0.33440  0.11480  1.0000
  H   H90       1.0  0.24280  0.33440  0.38520  1.0000
  H   H91       1.0  0.25720  0.83440  0.11480  1.0000
  H   H92       1.0  0.74280  0.83440  0.38520  1.0000
  H   H93       1.0  0.24280  0.66560  0.88520  1.0000
  H   H94       1.0  0.75720  0.66560  0.61480  1.0000
  H   H95       1.0  0.74280  0.16560  0.88520  1.0000
  H   H96       1.0  0.25720  0.16560  0.61480  1.0000
  H   H97       1.0  0.77000  0.42160  0.07720  1.0000
  H   H98       1.0  0.23000  0.42160  0.42280  1.0000
  H   H99       1.0  0.27000  0.92160  0.07720  1.0000
  H   H100      1.0  0.73000  0.92160  0.42280  1.0000
  H   H101      1.0  0.23000  0.57840  0.92280  1.0000
  H   H102      1.0  0.77000  0.57840  0.57720  1.0000
  H   H103      1.0  0.73000  0.07840  0.92280  1.0000
  H   H104      1.0  0.27000  0.07840  0.57720  1.0000
  H   H105      1.0  0.78250  0.34730  0.01010  1.0000
  H   H106      1.0  0.21750  0.34730  0.48990  1.0000
  H   H107      1.0  0.28250  0.84730  0.01010  1.0000
  H   H108      1.0  0.71750  0.84730  0.48990  1.0000
  H   H109      1.0  0.21750  0.65270  0.98990  1.0000
  H   H110      1.0  0.78250  0.65270  0.51010  1.0000
  H   H111      1.0  0.71750  0.15270  0.98990  1.0000
  H   H112      1.0  0.28250  0.15270  0.51010  1.0000
