data_image0
_chemical_formula_structural       Zn2O20C34H16
_chemical_formula_sum              "Zn2 O20 C34 H16"
_cell_length_a       10.585
_cell_length_b       11.518
_cell_length_c       12.306
_cell_angle_alpha    74.194
_cell_angle_beta     66.054
_cell_angle_gamma    73.692

_space_group_name_H-M_alt    "P 1"
_space_group_IT_number       1

loop_
  _space_group_symop_operation_xyz
  'x, y, z'

loop_
  _atom_site_type_symbol
  _atom_site_label
  _atom_site_symmetry_multiplicity
  _atom_site_fract_x
  _atom_site_fract_y
  _atom_site_fract_z
  _atom_site_occupancy
  Zn  Zn1       1.0  0.65128  0.67450  0.48323  1.0000
  Zn  Zn2       1.0  0.34872  0.32550  0.51677  1.0000
  O   O1        1.0  0.84690  0.62860  0.34610  1.0000
  O   O2        1.0  0.15310  0.37140  0.65390  1.0000
  O   O3        1.0  0.96730  0.62190  0.15240  1.0000
  O   O4        1.0  0.03270  0.37810  0.84760  1.0000
  O   O5        1.0  0.73030  0.81560  0.48340  1.0000
  O   O6        1.0  0.26970  0.18440  0.51660  1.0000
  O   O7        1.0  0.90210  0.92010  0.37830  1.0000
  O   O8        1.0  0.09790  0.07990  0.62170  1.0000
  O   O9        1.0  0.37680  0.41980  0.73160  1.0000
  O   O10       1.0  0.62320  0.58020  0.26840  1.0000
  O   O11       1.0  0.47620  0.27800  0.61190  1.0000
  O   O12       1.0  0.52380  0.72200  0.38810  1.0000
  O   O13       1.0  0.73340  0.55500  0.66760  1.0000
  O   O14       1.0  0.26660  0.44500  0.33240  1.0000
  O   O15       1.0  0.65180  0.49470  0.55820  1.0000
  O   O16       1.0  0.34820  0.50530  0.44180  1.0000
  O   O17       1.0  0.66320  0.91120  0.90890  1.0000
  O   O18       1.0  0.33680  0.08880  0.09110  1.0000
  O   O19       1.0  0.46620  0.73160  0.62940  1.0000
  O   O20       1.0  0.53380  0.26840  0.37060  1.0000
  C   C1        1.0  0.88040  0.67590  0.23430  1.0000
  C   C2        1.0  0.11960  0.32410  0.76570  1.0000
  C   C3        1.0  0.81170  0.80700  0.19960  1.0000
  C   C4        1.0  0.18830  0.19300  0.80040  1.0000
  C   C5        1.0  0.78660  0.83960  0.09160  1.0000
  C   C6        1.0  0.21340  0.16040  0.90840  1.0000
  C   C7        1.0  0.72190  0.96060  0.05490  1.0000
  C   C8        1.0  0.27810  0.03940  0.94510  1.0000
  C   C9        1.0  0.68250  0.04620  0.12770  1.0000
  C   C10       1.0  0.31750  0.95380  0.87230  1.0000
  C   C11       1.0  0.70840  0.01450  0.23500  1.0000
  C   C12       1.0  0.29160  0.98550  0.76500  1.0000
  C   C13       1.0  0.77290  0.89610  0.27170  1.0000
  C   C14       1.0  0.22710  0.10390  0.72830  1.0000
  C   C15       1.0  0.80580  0.87330  0.38570  1.0000
  C   C16       1.0  0.19420  0.12670  0.61430  1.0000
  C   C17       1.0  0.69130  0.98940  0.94060  1.0000
  C   C18       1.0  0.30870  0.01060  0.05940  1.0000
  C   C19       1.0  0.47100  0.33380  0.69020  1.0000
  C   C20       1.0  0.52900  0.66620  0.30980  1.0000
  C   C21       1.0  0.58820  0.28260  0.74150  1.0000
  C   C22       1.0  0.41180  0.71740  0.25850  1.0000
  C   C23       1.0  0.59430  0.16500  0.80980  1.0000
  C   C24       1.0  0.40570  0.83500  0.19020  1.0000
  C   C25       1.0  0.69050  0.11720  0.86860  1.0000
  C   C26       1.0  0.30950  0.88280  0.13140  1.0000
  C   C27       1.0  0.78250  0.18800  0.85880  1.0000
  C   C28       1.0  0.21750  0.81200  0.14120  1.0000
  C   C29       1.0  0.78040  0.30460  0.78710  1.0000
  C   C30       1.0  0.21960  0.69540  0.21290  1.0000
  C   C31       1.0  0.68450  0.35260  0.72860  1.0000
  C   C32       1.0  0.31550  0.64740  0.27140  1.0000
  C   C33       1.0  0.69080  0.47590  0.64750  1.0000
  C   C34       1.0  0.30920  0.52410  0.35250  1.0000
  H   H1        1.0  0.39300  0.71600  0.63000  1.0000
  H   H2        1.0  0.60700  0.28400  0.37000  1.0000
  H   H3        1.0  0.46400  0.69400  0.69800  1.0000
  H   H4        1.0  0.53600  0.30600  0.30200  1.0000
  H   H5        1.0  0.81280  0.78120  0.04320  1.0000
  H   H6        1.0  0.18720  0.21880  0.95680  1.0000
  H   H7        1.0  0.63820  0.12580  0.10490  1.0000
  H   H8        1.0  0.36180  0.87420  0.89510  1.0000
  H   H9        1.0  0.68220  0.07350  0.28280  1.0000
  H   H10       1.0  0.31780  0.92650  0.71720  1.0000
  H   H11       1.0  0.53290  0.11720  0.81650  1.0000
  H   H12       1.0  0.46710  0.88280  0.18350  1.0000
  H   H13       1.0  0.84520  0.15770  0.90000  1.0000
  H   H14       1.0  0.15480  0.84230  0.10000  1.0000
  H   H15       1.0  0.84430  0.35080  0.77840  1.0000
  H   H16       1.0  0.15570  0.64920  0.22160  1.0000
