data_image0
_chemical_formula_structural       Pd2N8C16H4C8H4C4H4C4H4C8H4C4H4C16H4C4H4C4H4C8H4C8H4C4H4P4O12P4O8H4O4Zn4
_chemical_formula_sum              "Pd2 N8 C88 H52 P8 O24 Zn4"
_cell_length_a       16.0299
_cell_length_b       13.4801
_cell_length_c       11.2176
_cell_angle_alpha    90
_cell_angle_beta     98.018
_cell_angle_gamma    90

_space_group_name_H-M_alt    "P 1"
_space_group_IT_number       1

loop_
  _space_group_symop_operation_xyz
  'x, y, z'

loop_
  _atom_site_type_symbol
  _atom_site_label
  _atom_site_symmetry_multiplicity
  _atom_site_fract_x
  _atom_site_fract_y
  _atom_site_fract_z
  _atom_site_occupancy
  Pd  Pd1       1.0  0.50000  0.50000  0.50000  1.0000
  Pd  Pd2       1.0  0.50000  0.00000  0.00000  1.0000
  N   N1        1.0  0.49250  0.63630  0.57900  1.0000
  N   N2        1.0  0.50750  0.13630  0.92100  1.0000
  N   N3        1.0  0.50750  0.36370  0.42100  1.0000
  N   N4        1.0  0.49250  0.86370  0.07900  1.0000
  N   N5        1.0  0.39910  0.45160  0.58420  1.0000
  N   N6        1.0  0.60090  0.95160  0.91580  1.0000
  N   N7        1.0  0.60090  0.54840  0.41580  1.0000
  N   N8        1.0  0.39910  0.04840  0.08420  1.0000
  C   C1        1.0  0.43010  0.67210  0.64110  1.0000
  C   C2        1.0  0.56990  0.17210  0.85890  1.0000
  C   C3        1.0  0.56990  0.32790  0.35890  1.0000
  C   C4        1.0  0.43010  0.82790  0.14110  1.0000
  C   C5        1.0  0.36550  0.61670  0.67840  1.0000
  C   C6        1.0  0.63450  0.11670  0.82160  1.0000
  C   C7        1.0  0.63450  0.38330  0.32160  1.0000
  C   C8        1.0  0.36550  0.88330  0.17840  1.0000
  C   C9        1.0  0.30510  0.66340  0.74980  1.0000
  C   C10       1.0  0.69490  0.16340  0.75020  1.0000
  C   C11       1.0  0.69490  0.33660  0.25020  1.0000
  C   C12       1.0  0.30510  0.83660  0.24980  1.0000
  C   C13       1.0  0.22160  0.68270  0.69770  1.0000
  C   C14       1.0  0.77840  0.18270  0.80230  1.0000
  C   C15       1.0  0.77840  0.31730  0.30230  1.0000
  C   C16       1.0  0.22160  0.81730  0.19770  1.0000
  H   H1        1.0  0.20340  0.66340  0.61880  1.0000
  H   H2        1.0  0.79660  0.16340  0.88120  1.0000
  H   H3        1.0  0.79660  0.33660  0.38120  1.0000
  H   H4        1.0  0.20340  0.83660  0.11880  1.0000
  C   C17       1.0  0.16670  0.72990  0.76280  1.0000
  C   C18       1.0  0.83330  0.22990  0.73720  1.0000
  C   C19       1.0  0.83330  0.27010  0.23720  1.0000
  C   C20       1.0  0.16670  0.77010  0.26280  1.0000
  C   C21       1.0  0.19520  0.76230  0.88040  1.0000
  C   C22       1.0  0.80480  0.26230  0.61960  1.0000
  C   C23       1.0  0.80480  0.23770  0.11960  1.0000
  C   C24       1.0  0.19520  0.73770  0.38040  1.0000
  H   H5        1.0  0.15760  0.79130  0.92610  1.0000
  H   H6        1.0  0.84240  0.29130  0.57390  1.0000
  H   H7        1.0  0.84240  0.20870  0.07390  1.0000
  H   H8        1.0  0.15760  0.70870  0.42610  1.0000
  C   C25       1.0  0.27880  0.75130  0.92830  1.0000
  C   C26       1.0  0.72120  0.25130  0.57170  1.0000
  C   C27       1.0  0.72120  0.24870  0.07170  1.0000
  C   C28       1.0  0.27880  0.74870  0.42830  1.0000
  H   H9        1.0  0.29810  0.77590  0.00460  1.0000
  H   H10       1.0  0.70190  0.27590  0.49540  1.0000
  H   H11       1.0  0.70190  0.22410  0.99540  1.0000
  H   H12       1.0  0.29810  0.72410  0.50460  1.0000
  C   C29       1.0  0.33430  0.70340  0.86240  1.0000
  C   C30       1.0  0.66570  0.20340  0.63760  1.0000
  C   C31       1.0  0.66570  0.29660  0.13760  1.0000
  C   C32       1.0  0.33430  0.79660  0.36240  1.0000
  H   H13       1.0  0.39100  0.69810  0.89360  1.0000
  H   H14       1.0  0.60900  0.19810  0.60640  1.0000
  H   H15       1.0  0.60900  0.30190  0.10640  1.0000
  H   H16       1.0  0.39100  0.80190  0.39360  1.0000
  C   C33       1.0  0.35010  0.50920  0.65270  1.0000
  C   C34       1.0  0.64990  0.00920  0.84730  1.0000
  C   C35       1.0  0.64990  0.49080  0.34730  1.0000
  C   C36       1.0  0.35010  0.99080  0.15270  1.0000
  C   C37       1.0  0.28550  0.44820  0.69240  1.0000
  C   C38       1.0  0.71450  0.94820  0.80760  1.0000
  C   C39       1.0  0.71450  0.55180  0.30760  1.0000
  C   C40       1.0  0.28550  0.05180  0.19240  1.0000
  H   H17       1.0  0.24670  0.46880  0.74160  1.0000
  H   H18       1.0  0.75330  0.96880  0.75840  1.0000
  H   H19       1.0  0.75330  0.53120  0.25840  1.0000
  H   H20       1.0  0.24670  0.03120  0.24160  1.0000
  C   C41       1.0  0.29060  0.35800  0.64720  1.0000
  C   C42       1.0  0.70940  0.85800  0.85280  1.0000
  C   C43       1.0  0.70940  0.64200  0.35280  1.0000
  C   C44       1.0  0.29060  0.14200  0.14720  1.0000
  H   H21       1.0  0.25440  0.30530  0.65520  1.0000
  H   H22       1.0  0.74560  0.80530  0.84480  1.0000
  H   H23       1.0  0.74560  0.69470  0.34480  1.0000
  H   H24       1.0  0.25440  0.19470  0.15520  1.0000
  C   C45       1.0  0.36270  0.35660  0.58330  1.0000
  C   C46       1.0  0.63730  0.85660  0.91670  1.0000
  C   C47       1.0  0.63730  0.64340  0.41670  1.0000
  C   C48       1.0  0.36270  0.14340  0.08330  1.0000
  C   C49       1.0  0.39290  0.27340  0.53460  1.0000
  C   C50       1.0  0.60710  0.77340  0.96540  1.0000
  C   C51       1.0  0.60710  0.72660  0.46540  1.0000
  C   C52       1.0  0.39290  0.22660  0.03460  1.0000
  C   C53       1.0  0.35100  0.17620  0.54940  1.0000
  C   C54       1.0  0.64900  0.67620  0.95060  1.0000
  C   C55       1.0  0.64900  0.82380  0.45060  1.0000
  C   C56       1.0  0.35100  0.32380  0.04940  1.0000
  C   C57       1.0  0.39400  0.09680  0.60710  1.0000
  C   C58       1.0  0.60600  0.59680  0.89290  1.0000
  C   C59       1.0  0.60600  0.90320  0.39290  1.0000
  C   C60       1.0  0.39400  0.40320  0.10710  1.0000
  H   H25       1.0  0.44940  0.10470  0.64350  1.0000
  H   H26       1.0  0.55060  0.60470  0.85650  1.0000
  H   H27       1.0  0.55060  0.89530  0.35650  1.0000
  H   H28       1.0  0.44940  0.39530  0.14350  1.0000
  C   C61       1.0  0.35430  0.00490  0.61080  1.0000
  C   C62       1.0  0.64570  0.50490  0.88920  1.0000
  C   C63       1.0  0.64570  0.99510  0.38920  1.0000
  C   C64       1.0  0.35430  0.49510  0.11080  1.0000
  H   H29       1.0  0.38490  0.95050  0.64400  1.0000
  H   H30       1.0  0.61510  0.45050  0.85600  1.0000
  H   H31       1.0  0.61510  0.04950  0.35600  1.0000
  H   H32       1.0  0.38490  0.54950  0.14400  1.0000
  C   C65       1.0  0.26900  0.99370  0.56500  1.0000
  C   C66       1.0  0.73100  0.49370  0.93500  1.0000
  C   C67       1.0  0.73100  0.00630  0.43500  1.0000
  C   C68       1.0  0.26900  0.50630  0.06500  1.0000
  H   H33       1.0  0.24100  0.93410  0.57220  1.0000
  H   H34       1.0  0.75900  0.43410  0.92780  1.0000
  H   H35       1.0  0.75900  0.06590  0.42780  1.0000
  H   H36       1.0  0.24100  0.56590  0.07220  1.0000
  C   C69       1.0  0.22700  0.07700  0.50720  1.0000
  C   C70       1.0  0.77300  0.57700  0.99280  1.0000
  C   C71       1.0  0.77300  0.92300  0.49280  1.0000
  C   C72       1.0  0.22700  0.42300  0.00720  1.0000
  C   C73       1.0  0.26610  0.16580  0.50170  1.0000
  C   C74       1.0  0.73390  0.66580  0.99830  1.0000
  C   C75       1.0  0.73390  0.83420  0.49830  1.0000
  C   C76       1.0  0.26610  0.33420  0.00170  1.0000
  H   H37       1.0  0.23640  0.21990  0.46610  1.0000
  H   H38       1.0  0.76360  0.71990  0.03390  1.0000
  H   H39       1.0  0.76360  0.78010  0.53390  1.0000
  H   H40       1.0  0.23640  0.28010  0.96610  1.0000
  C   C77       1.0  0.54130  0.71880  0.56250  1.0000
  C   C78       1.0  0.45870  0.21880  0.93750  1.0000
  C   C79       1.0  0.45870  0.28120  0.43750  1.0000
  C   C80       1.0  0.54130  0.78120  0.06250  1.0000
  C   C81       1.0  0.51080  0.80460  0.62110  1.0000
  C   C82       1.0  0.48920  0.30460  0.87890  1.0000
  C   C83       1.0  0.48920  0.19540  0.37890  1.0000
  C   C84       1.0  0.51080  0.69540  0.12110  1.0000
  H   H41       1.0  0.53320  0.86830  0.62310  1.0000
  H   H42       1.0  0.46680  0.36830  0.87690  1.0000
  H   H43       1.0  0.46680  0.13170  0.37690  1.0000
  H   H44       1.0  0.53320  0.63170  0.12310  1.0000
  C   C85       1.0  0.44480  0.77510  0.67160  1.0000
  C   C86       1.0  0.55520  0.27510  0.82840  1.0000
  C   C87       1.0  0.55520  0.22490  0.32840  1.0000
  C   C88       1.0  0.44480  0.72490  0.17160  1.0000
  H   H45       1.0  0.41370  0.81390  0.71810  1.0000
  H   H46       1.0  0.58630  0.31390  0.78190  1.0000
  H   H47       1.0  0.58630  0.18610  0.28190  1.0000
  H   H48       1.0  0.41370  0.68610  0.21810  1.0000
  P   P1        1.0  0.05910  0.75510  0.70430  1.0000
  P   P2        1.0  0.94090  0.25510  0.79570  1.0000
  P   P3        1.0  0.94090  0.24490  0.29570  1.0000
  P   P4        1.0  0.05910  0.74490  0.20430  1.0000
  O   O1        1.0  0.04470  0.86350  0.73410  1.0000
  O   O2        1.0  0.95530  0.36350  0.76590  1.0000
  O   O3        1.0  0.95530  0.13650  0.26590  1.0000
  O   O4        1.0  0.04470  0.63650  0.23410  1.0000
  O   O5        1.0  0.00690  0.68650  0.77230  1.0000
  O   O6        1.0  0.99310  0.18650  0.72770  1.0000
  O   O7        1.0  0.99310  0.31350  0.22770  1.0000
  O   O8        1.0  0.00690  0.81350  0.27230  1.0000
  O   O9        1.0  0.04750  0.73530  0.57230  1.0000
  O   O10       1.0  0.95250  0.23530  0.92770  1.0000
  O   O11       1.0  0.95250  0.26470  0.42770  1.0000
  O   O12       1.0  0.04750  0.76470  0.07230  1.0000
  P   P5        1.0  0.11850  0.04650  0.46510  1.0000
  P   P6        1.0  0.88150  0.54650  0.03490  1.0000
  P   P7        1.0  0.88150  0.95350  0.53490  1.0000
  P   P8        1.0  0.11850  0.45350  0.96510  1.0000
  O   O13       1.0  0.07460  0.10800  0.55120  1.0000
  O   O14       1.0  0.92540  0.60800  0.94880  1.0000
  O   O15       1.0  0.92540  0.89200  0.44880  1.0000
  O   O16       1.0  0.07460  0.39200  0.05120  1.0000
  O   O17       1.0  0.09410  0.07570  0.33590  1.0000
  O   O18       1.0  0.90590  0.57570  0.16410  1.0000
  O   O19       1.0  0.90590  0.92430  0.66410  1.0000
  O   O20       1.0  0.09410  0.42430  0.83590  1.0000
  H   H49       1.0  0.04470  0.06090  0.31420  1.0000
  H   H50       1.0  0.95530  0.56090  0.18580  1.0000
  H   H51       1.0  0.95530  0.93910  0.68580  1.0000
  H   H52       1.0  0.04470  0.43910  0.81420  1.0000
  O   O21       1.0  0.10930  0.93700  0.48630  1.0000
  O   O22       1.0  0.89070  0.43700  0.01370  1.0000
  O   O23       1.0  0.89070  0.06300  0.51370  1.0000
  O   O24       1.0  0.10930  0.56300  0.98630  1.0000
  Zn  Zn1       1.0  0.96810  0.16410  0.55020  1.0000
  Zn  Zn2       1.0  0.03190  0.66410  0.94980  1.0000
  Zn  Zn3       1.0  0.03190  0.83590  0.44980  1.0000
  Zn  Zn4       1.0  0.96810  0.33590  0.05020  1.0000
