data_image0
_chemical_formula_structural       La8Se4O80C24H32
_chemical_formula_sum              "La8 Se4 O80 C24 H32"
_cell_length_a       12.2383
_cell_length_b       15.5094
_cell_length_c       15.0961
_cell_angle_alpha    90
_cell_angle_beta     95.537
_cell_angle_gamma    90

_space_group_name_H-M_alt    "P 1"
_space_group_IT_number       1

loop_
  _space_group_symop_operation_xyz
  'x, y, z'

loop_
  _atom_site_type_symbol
  _atom_site_label
  _atom_site_symmetry_multiplicity
  _atom_site_fract_x
  _atom_site_fract_y
  _atom_site_fract_z
  _atom_site_occupancy
  La  La1       1.0  0.98447  0.95581  0.28593  1.0000
  La  La2       1.0  0.51553  0.45582  0.21407  1.0000
  La  La3       1.0  0.01553  0.04418  0.71407  1.0000
  La  La4       1.0  0.48447  0.54419  0.78593  1.0000
  La  La5       1.0  0.49395  0.03058  0.21458  1.0000
  La  La6       1.0  0.00605  0.53058  0.28542  1.0000
  La  La7       1.0  0.50605  0.96942  0.78542  1.0000
  La  La8       1.0  0.99395  0.46942  0.71458  1.0000
  Se  Se1       1.0  0.76980  0.13430  0.30329  1.0000
  Se  Se2       1.0  0.73020  0.63430  0.19671  1.0000
  Se  Se3       1.0  0.23020  0.86570  0.69671  1.0000
  Se  Se4       1.0  0.26980  0.36570  0.80329  1.0000
  O   O1        1.0  0.80026  0.89663  0.22997  1.0000
  O   O2        1.0  0.69974  0.39663  0.27003  1.0000
  O   O3        1.0  0.19974  0.10337  0.77003  1.0000
  O   O4        1.0  0.30026  0.60337  0.72997  1.0000
  O   O5        1.0  0.98031  0.99743  0.12176  1.0000
  O   O6        1.0  0.51969  0.49743  0.37824  1.0000
  O   O7        1.0  0.01969  0.00257  0.87824  1.0000
  O   O8        1.0  0.48031  0.50257  0.62176  1.0000
  O   O9        1.0  0.89337  0.10159  0.28412  1.0000
  O   O10       1.0  0.60663  0.60159  0.21588  1.0000
  O   O11       1.0  0.10663  0.89841  0.71588  1.0000
  O   O12       1.0  0.39337  0.39841  0.78412  1.0000
  O   O13       1.0  0.12954  0.06837  0.25356  1.0000
  O   O14       1.0  0.37046  0.56837  0.24644  1.0000
  O   O15       1.0  0.87046  0.93163  0.74644  1.0000
  O   O16       1.0  0.62954  0.43163  0.75356  1.0000
  O   O17       1.0  0.17558  0.89918  0.27663  1.0000
  O   O18       1.0  0.32442  0.39918  0.22337  1.0000
  O   O19       1.0  0.82442  0.10082  0.72337  1.0000
  O   O20       1.0  0.67558  0.60082  0.77663  1.0000
  O   O21       1.0  0.99804  0.81337  0.19252  1.0000
  O   O22       1.0  0.50196  0.31337  0.30748  1.0000
  O   O23       1.0  0.00196  0.18663  0.80748  1.0000
  O   O24       1.0  0.49804  0.68663  0.69252  1.0000
  O   O25       1.0  0.96934  0.81222  0.36803  1.0000
  O   O26       1.0  0.53066  0.31222  0.13197  1.0000
  O   O27       1.0  0.03066  0.18778  0.63197  1.0000
  O   O28       1.0  0.46934  0.68778  0.86803  1.0000
  O   O29       1.0  0.10483  0.99546  0.42880  1.0000
  O   O30       1.0  0.39517  0.49546  0.07120  1.0000
  O   O31       1.0  0.89517  0.00454  0.57120  1.0000
  O   O32       1.0  0.60483  0.50454  0.92880  1.0000
  O   O33       1.0  0.11256  0.03138  0.57275  1.0000
  O   O34       1.0  0.38744  0.53138  0.92725  1.0000
  O   O35       1.0  0.88744  0.96862  0.42725  1.0000
  O   O36       1.0  0.61256  0.46862  0.07275  1.0000
  O   O37       1.0  0.50713  0.98188  0.38005  1.0000
  O   O38       1.0  0.99287  0.48188  0.11995  1.0000
  O   O39       1.0  0.49287  0.01812  0.61995  1.0000
  O   O40       1.0  0.00713  0.51812  0.88005  1.0000
  O   O41       1.0  0.56479  0.87771  0.20640  1.0000
  O   O42       1.0  0.93521  0.37771  0.29360  1.0000
  O   O43       1.0  0.43521  0.12229  0.79360  1.0000
  O   O44       1.0  0.06479  0.62229  0.70640  1.0000
  O   O45       1.0  0.68563  0.05325  0.27905  1.0000
  O   O46       1.0  0.81437  0.55325  0.22095  1.0000
  O   O47       1.0  0.31437  0.94675  0.72095  1.0000
  O   O48       1.0  0.18563  0.44675  0.77905  1.0000
  O   O49       1.0  0.30324  0.09204  0.22544  1.0000
  O   O50       1.0  0.19676  0.59204  0.27456  1.0000
  O   O51       1.0  0.69676  0.90796  0.77456  1.0000
  O   O52       1.0  0.80324  0.40796  0.72544  1.0000
  O   O53       1.0  0.34590  0.92354  0.24316  1.0000
  O   O54       1.0  0.15410  0.42354  0.25684  1.0000
  O   O55       1.0  0.65410  0.07646  0.75684  1.0000
  O   O56       1.0  0.84590  0.57646  0.74316  1.0000
  O   O57       1.0  0.00342  0.66949  0.19317  1.0000
  O   O58       1.0  0.49658  0.16949  0.30683  1.0000
  O   O59       1.0  0.99658  0.33051  0.80683  1.0000
  O   O60       1.0  0.50342  0.83051  0.69317  1.0000
  O   O61       1.0  0.99974  0.67088  0.37177  1.0000
  O   O62       1.0  0.50026  0.17088  0.12823  1.0000
  O   O63       1.0  0.00026  0.32912  0.62823  1.0000
  O   O64       1.0  0.49974  0.82912  0.87177  1.0000
  O   O65       1.0  0.60712  0.00943  0.08430  1.0000
  O   O66       1.0  0.89288  0.50943  0.41570  1.0000
  O   O67       1.0  0.39288  0.99057  0.91570  1.0000
  O   O68       1.0  0.10712  0.49057  0.58430  1.0000
  O   O69       1.0  0.61350  0.99648  0.93738  1.0000
  O   O70       1.0  0.88650  0.49648  0.56262  1.0000
  O   O71       1.0  0.38650  0.00352  0.06262  1.0000
  O   O72       1.0  0.11350  0.50352  0.43738  1.0000
  O   O73       1.0  0.76782  0.16131  0.40799  1.0000
  O   O74       1.0  0.73218  0.66131  0.09201  1.0000
  O   O75       1.0  0.23218  0.83869  0.59201  1.0000
  O   O76       1.0  0.26782  0.33869  0.90799  1.0000
  O   O77       1.0  0.73549  0.21742  0.24043  1.0000
  O   O78       1.0  0.76451  0.71742  0.25957  1.0000
  O   O79       1.0  0.26451  0.78258  0.75957  1.0000
  O   O80       1.0  0.23549  0.28258  0.74043  1.0000
  C   C1        1.0  0.22482  0.04422  0.24354  1.0000
  C   C2        1.0  0.27518  0.54422  0.25646  1.0000
  C   C3        1.0  0.77518  0.95578  0.75646  1.0000
  C   C4        1.0  0.72482  0.45578  0.74354  1.0000
  C   C5        1.0  0.25199  0.94725  0.25563  1.0000
  C   C6        1.0  0.24801  0.44725  0.24437  1.0000
  C   C7        1.0  0.74801  0.05275  0.74437  1.0000
  C   C8        1.0  0.75199  0.55275  0.75563  1.0000
  C   C9        1.0  0.99594  0.74132  0.23029  1.0000
  C   C10       1.0  0.50406  0.24132  0.26971  1.0000
  C   C11       1.0  0.00406  0.25868  0.76971  1.0000
  C   C12       1.0  0.49594  0.75868  0.73029  1.0000
  C   C13       1.0  0.98716  0.74159  0.33143  1.0000
  C   C14       1.0  0.51284  0.24159  0.16857  1.0000
  C   C15       1.0  0.01284  0.25841  0.66857  1.0000
  C   C16       1.0  0.48716  0.75841  0.83143  1.0000
  C   C17       1.0  0.06247  0.00776  0.50084  1.0000
  C   C18       1.0  0.43753  0.50776  0.99916  1.0000
  C   C19       1.0  0.93753  0.99224  0.49916  1.0000
  C   C20       1.0  0.56247  0.49224  0.00084  1.0000
  C   C21       1.0  0.56377  0.00146  0.00687  1.0000
  C   C22       1.0  0.93623  0.50146  0.49313  1.0000
  C   C23       1.0  0.43623  0.99854  0.99313  1.0000
  C   C24       1.0  0.06377  0.49854  0.50687  1.0000
  H   H1        1.0  0.73840  0.91800  0.22700  1.0000
  H   H2        1.0  0.76160  0.41800  0.27300  1.0000
  H   H3        1.0  0.26160  0.08200  0.77300  1.0000
  H   H4        1.0  0.23840  0.58200  0.72700  1.0000
  H   H5        1.0  0.77900  0.84760  0.22300  1.0000
  H   H6        1.0  0.72100  0.34760  0.27700  1.0000
  H   H7        1.0  0.22100  0.15240  0.77700  1.0000
  H   H8        1.0  0.27900  0.65240  0.72300  1.0000
  H   H9        1.0  0.93500  0.98200  0.08130  1.0000
  H   H10       1.0  0.56500  0.48200  0.41870  1.0000
  H   H11       1.0  0.06500  0.01800  0.91870  1.0000
  H   H12       1.0  0.43500  0.51800  0.58130  1.0000
  H   H13       1.0  0.03200  0.02100  0.10200  1.0000
  H   H14       1.0  0.46800  0.52100  0.39800  1.0000
  H   H15       1.0  0.96800  0.97900  0.89800  1.0000
  H   H16       1.0  0.53200  0.47900  0.60200  1.0000
  H   H17       1.0  0.55200  0.99800  0.41890  1.0000
  H   H18       1.0  0.94800  0.49800  0.08110  1.0000
  H   H19       1.0  0.44800  0.00200  0.58110  1.0000
  H   H20       1.0  0.05200  0.50200  0.91890  1.0000
  H   H21       1.0  0.45600  0.96500  0.40600  1.0000
  H   H22       1.0  0.04400  0.46500  0.09400  1.0000
  H   H23       1.0  0.54400  0.03500  0.59400  1.0000
  H   H24       1.0  0.95600  0.53500  0.90600  1.0000
  H   H25       1.0  0.57000  0.85360  0.15760  1.0000
  H   H26       1.0  0.93000  0.35360  0.34240  1.0000
  H   H27       1.0  0.43000  0.14640  0.84240  1.0000
  H   H28       1.0  0.07000  0.64640  0.65760  1.0000
  H   H29       1.0  0.54300  0.83690  0.23530  1.0000
  H   H30       1.0  0.95700  0.33690  0.26470  1.0000
  H   H31       1.0  0.45700  0.16310  0.76470  1.0000
  H   H32       1.0  0.04300  0.66310  0.73530  1.0000
