data_image0
_chemical_formula_structural       Mn4O16N8C16H4C4H4C4H4C16H4C4H4C4H4O4C4O8C4O4
_chemical_formula_sum              "Mn4 O32 N8 C56 H24"
_cell_length_a       22.2099
_cell_length_b       6.6599
_cell_length_c       23.5921
_cell_angle_alpha    90
_cell_angle_beta     104.014
_cell_angle_gamma    90

_space_group_name_H-M_alt    "P 1"
_space_group_IT_number       1

loop_
  _space_group_symop_operation_xyz
  'x, y, z'

loop_
  _atom_site_type_symbol
  _atom_site_label
  _atom_site_symmetry_multiplicity
  _atom_site_fract_x
  _atom_site_fract_y
  _atom_site_fract_z
  _atom_site_occupancy
  Mn  Mn1       1.0  0.24504  0.00309  0.99753  1.0000
  Mn  Mn2       1.0  0.25496  0.50309  0.50247  1.0000
  Mn  Mn3       1.0  0.75496  0.99691  0.00247  1.0000
  Mn  Mn4       1.0  0.74504  0.49691  0.49754  1.0000
  O   O1        1.0  0.29406  0.79712  0.95479  1.0000
  O   O2        1.0  0.20594  0.29712  0.54521  1.0000
  O   O3        1.0  0.70594  0.20288  0.04521  1.0000
  O   O4        1.0  0.79406  0.70288  0.45479  1.0000
  O   O5        1.0  0.36007  0.53738  0.96888  1.0000
  O   O6        1.0  0.13993  0.03738  0.53112  1.0000
  O   O7        1.0  0.63993  0.46262  0.03112  1.0000
  O   O8        1.0  0.86007  0.96262  0.46888  1.0000
  O   O9        1.0  0.19849  0.21276  0.04159  1.0000
  O   O10       1.0  0.30151  0.71276  0.45841  1.0000
  O   O11       1.0  0.80151  0.78724  0.95841  1.0000
  O   O12       1.0  0.69849  0.28724  0.54159  1.0000
  O   O13       1.0  0.13334  0.47412  0.02897  1.0000
  O   O14       1.0  0.36666  0.97412  0.47103  1.0000
  O   O15       1.0  0.86666  0.52588  0.97103  1.0000
  O   O16       1.0  0.63334  0.02588  0.52897  1.0000
  N   N1        1.0  0.21675  0.25400  0.93445  1.0000
  N   N2        1.0  0.28325  0.75400  0.56555  1.0000
  N   N3        1.0  0.78325  0.74600  0.06555  1.0000
  N   N4        1.0  0.71675  0.24600  0.43445  1.0000
  N   N5        1.0  0.27593  0.75808  0.06240  1.0000
  N   N6        1.0  0.22407  0.25808  0.43760  1.0000
  N   N7        1.0  0.72407  0.24192  0.93760  1.0000
  N   N8        1.0  0.77593  0.74192  0.56240  1.0000
  C   C1        1.0  0.32200  0.65150  0.98386  1.0000
  C   C2        1.0  0.17800  0.15150  0.51614  1.0000
  C   C3        1.0  0.67800  0.34850  0.01614  1.0000
  C   C4        1.0  0.82200  0.84850  0.48386  1.0000
  C   C5        1.0  0.30915  0.61390  0.04372  1.0000
  C   C6        1.0  0.19085  0.11390  0.45628  1.0000
  C   C7        1.0  0.69085  0.38610  0.95628  1.0000
  C   C8        1.0  0.80915  0.88610  0.54372  1.0000
  C   C9        1.0  0.33099  0.44510  0.07772  1.0000
  C   C10       1.0  0.16901  0.94510  0.42228  1.0000
  C   C11       1.0  0.66901  0.55490  0.92228  1.0000
  C   C12       1.0  0.83099  0.05490  0.57772  1.0000
  C   C13       1.0  0.31877  0.43020  0.13287  1.0000
  C   C14       1.0  0.18123  0.93020  0.36713  1.0000
  C   C15       1.0  0.68123  0.56980  0.86713  1.0000
  C   C16       1.0  0.81877  0.06980  0.63287  1.0000
  H   H1        1.0  0.33280  0.31980  0.15650  1.0000
  H   H2        1.0  0.16720  0.81980  0.34350  1.0000
  H   H3        1.0  0.66720  0.68020  0.84350  1.0000
  H   H4        1.0  0.83280  0.18020  0.65650  1.0000
  C   C17       1.0  0.28565  0.58110  0.15217  1.0000
  C   C18       1.0  0.21435  0.08110  0.34783  1.0000
  C   C19       1.0  0.71435  0.41890  0.84783  1.0000
  C   C20       1.0  0.78565  0.91890  0.65217  1.0000
  H   H5        1.0  0.27760  0.57430  0.18900  1.0000
  H   H6        1.0  0.22240  0.07430  0.31100  1.0000
  H   H7        1.0  0.72240  0.42570  0.81100  1.0000
  H   H8        1.0  0.77760  0.92570  0.68900  1.0000
  C   C21       1.0  0.26466  0.74230  0.11551  1.0000
  C   C22       1.0  0.23534  0.24230  0.38449  1.0000
  C   C23       1.0  0.73534  0.25770  0.88449  1.0000
  C   C24       1.0  0.76466  0.75770  0.61551  1.0000
  H   H9        1.0  0.24200  0.84290  0.12820  1.0000
  H   H10       1.0  0.25800  0.34290  0.37180  1.0000
  H   H11       1.0  0.75800  0.15710  0.87180  1.0000
  H   H12       1.0  0.74200  0.65710  0.62820  1.0000
  C   C25       1.0  0.17040  0.35910  0.01293  1.0000
  C   C26       1.0  0.32960  0.85910  0.48707  1.0000
  C   C27       1.0  0.82960  0.64090  0.98707  1.0000
  C   C28       1.0  0.67040  0.14090  0.51293  1.0000
  C   C29       1.0  0.18278  0.39688  0.95290  1.0000
  C   C30       1.0  0.31722  0.89688  0.54710  1.0000
  C   C31       1.0  0.81722  0.60312  0.04710  1.0000
  C   C32       1.0  0.68278  0.10312  0.45290  1.0000
  C   C33       1.0  0.16108  0.56570  0.91912  1.0000
  C   C34       1.0  0.33892  0.06570  0.58088  1.0000
  C   C35       1.0  0.83892  0.43430  0.08088  1.0000
  C   C36       1.0  0.66108  0.93430  0.41912  1.0000
  C   C37       1.0  0.17535  0.58470  0.86491  1.0000
  C   C38       1.0  0.32465  0.08470  0.63509  1.0000
  C   C39       1.0  0.82465  0.41530  0.13509  1.0000
  C   C40       1.0  0.67535  0.91530  0.36491  1.0000
  H   H13       1.0  0.16160  0.69590  0.84150  1.0000
  H   H14       1.0  0.33840  0.19590  0.65850  1.0000
  H   H15       1.0  0.83840  0.30410  0.15850  1.0000
  H   H16       1.0  0.66160  0.80410  0.34150  1.0000
  C   C41       1.0  0.21002  0.43720  0.84619  1.0000
  C   C42       1.0  0.28998  0.93720  0.65381  1.0000
  C   C43       1.0  0.78998  0.56280  0.15381  1.0000
  C   C44       1.0  0.71002  0.06280  0.34619  1.0000
  H   H17       1.0  0.21980  0.44760  0.81010  1.0000
  H   H18       1.0  0.28020  0.94760  0.68990  1.0000
  H   H19       1.0  0.78020  0.55240  0.18990  1.0000
  H   H20       1.0  0.71980  0.05240  0.31010  1.0000
  C   C45       1.0  0.22991  0.27370  0.88230  1.0000
  C   C46       1.0  0.27009  0.77370  0.61770  1.0000
  C   C47       1.0  0.77009  0.72630  0.11770  1.0000
  C   C48       1.0  0.72991  0.22630  0.38230  1.0000
  H   H21       1.0  0.25320  0.17430  0.86980  1.0000
  H   H22       1.0  0.24680  0.67430  0.63020  1.0000
  H   H23       1.0  0.74680  0.82570  0.13020  1.0000
  H   H24       1.0  0.75320  0.32570  0.36980  1.0000
  O   O17       1.0  0.33815  0.13443  0.03024  1.0000
  O   O18       1.0  0.16185  0.63443  0.46976  1.0000
  O   O19       1.0  0.66185  0.86557  0.96976  1.0000
  O   O20       1.0  0.83815  0.36557  0.53024  1.0000
  C   C49       1.0  0.36724  0.27990  0.05748  1.0000
  C   C50       1.0  0.13276  0.77990  0.44252  1.0000
  C   C51       1.0  0.63276  0.72010  0.94252  1.0000
  C   C52       1.0  0.86724  0.22010  0.55748  1.0000
  O   O21       1.0  0.42553  0.29414  0.07144  1.0000
  O   O22       1.0  0.07447  0.79414  0.42856  1.0000
  O   O23       1.0  0.57447  0.70586  0.92856  1.0000
  O   O24       1.0  0.92553  0.20586  0.57144  1.0000
  O   O25       1.0  0.15081  0.87381  0.96712  1.0000
  O   O26       1.0  0.34919  0.37381  0.53288  1.0000
  O   O27       1.0  0.84919  0.12619  0.03288  1.0000
  O   O28       1.0  0.65081  0.62619  0.46712  1.0000
  C   C53       1.0  0.12249  0.72600  0.93846  1.0000
  C   C54       1.0  0.37751  0.22600  0.56154  1.0000
  C   C55       1.0  0.87751  0.27400  0.06154  1.0000
  C   C56       1.0  0.62249  0.77400  0.43846  1.0000
  O   O29       1.0  0.06503  0.70878  0.92371  1.0000
  O   O30       1.0  0.43497  0.20878  0.57629  1.0000
  O   O31       1.0  0.93497  0.29122  0.07629  1.0000
  O   O32       1.0  0.56503  0.79122  0.42371  1.0000
