data_image0
_chemical_formula_structural       Na2O36N12C12H12C6H12C6H12C18H12C6H12C6H12C6
_chemical_formula_sum              "Na2 O36 N12 C60 H72"
_cell_length_a       19.243
_cell_length_b       19.243
_cell_length_c       9.7292
_cell_angle_alpha    90
_cell_angle_beta     90
_cell_angle_gamma    120

_space_group_name_H-M_alt    "P 1"
_space_group_IT_number       1

loop_
  _space_group_symop_operation_xyz
  'x, y, z'

loop_
  _atom_site_type_symbol
  _atom_site_label
  _atom_site_symmetry_multiplicity
  _atom_site_fract_x
  _atom_site_fract_y
  _atom_site_fract_z
  _atom_site_occupancy
  Na  Na1       1.0  0.00000  0.00000  0.74942  1.0000
  Na  Na2       1.0  0.00000  0.00000  0.25058  1.0000
  O   O1        1.0  0.12591  0.06331  0.62070  1.0000
  O   O2        1.0  0.93669  0.06260  0.62070  1.0000
  O   O3        1.0  0.93740  0.87409  0.62070  1.0000
  O   O4        1.0  0.87409  0.93669  0.37930  1.0000
  O   O5        1.0  0.06331  0.93740  0.37930  1.0000
  O   O6        1.0  0.06260  0.12591  0.37930  1.0000
  O   O7        1.0  0.43208  0.32400  0.61740  1.0000
  O   O8        1.0  0.67600  0.10808  0.61740  1.0000
  O   O9        1.0  0.89192  0.56792  0.61740  1.0000
  O   O10       1.0  0.56792  0.67600  0.38260  1.0000
  O   O11       1.0  0.32400  0.89192  0.38260  1.0000
  O   O12       1.0  0.10808  0.43208  0.38260  1.0000
  O   O13       1.0  0.39712  0.21466  0.49250  1.0000
  O   O14       1.0  0.78534  0.18246  0.49250  1.0000
  O   O15       1.0  0.81754  0.60288  0.49250  1.0000
  O   O16       1.0  0.60288  0.78534  0.50750  1.0000
  O   O17       1.0  0.21466  0.81754  0.50750  1.0000
  O   O18       1.0  0.18246  0.39712  0.50750  1.0000
  O   O19       1.0  0.06335  0.12577  0.87880  1.0000
  O   O20       1.0  0.87423  0.93758  0.87880  1.0000
  O   O21       1.0  0.06242  0.93665  0.87880  1.0000
  O   O22       1.0  0.93665  0.87423  0.12120  1.0000
  O   O23       1.0  0.12577  0.06242  0.12120  1.0000
  O   O24       1.0  0.93758  0.06335  0.12120  1.0000
  O   O25       1.0  0.18070  0.38892  0.00130  1.0000
  O   O26       1.0  0.61108  0.79178  0.00130  1.0000
  O   O27       1.0  0.20822  0.81930  0.00130  1.0000
  O   O28       1.0  0.81930  0.61108  0.99870  1.0000
  O   O29       1.0  0.38892  0.20822  0.99870  1.0000
  O   O30       1.0  0.79178  0.18070  0.99870  1.0000
  O   O31       1.0  0.11184  0.43291  0.88160  1.0000
  O   O32       1.0  0.56709  0.67893  0.88160  1.0000
  O   O33       1.0  0.32107  0.88816  0.88160  1.0000
  O   O34       1.0  0.88816  0.56709  0.11840  1.0000
  O   O35       1.0  0.43291  0.32107  0.11840  1.0000
  O   O36       1.0  0.67893  0.11184  0.11840  1.0000
  N   N1        1.0  0.20476  0.17654  0.50100  1.0000
  N   N2        1.0  0.82346  0.02822  0.50100  1.0000
  N   N3        1.0  0.97178  0.79524  0.50100  1.0000
  N   N4        1.0  0.79524  0.82346  0.49900  1.0000
  N   N5        1.0  0.17654  0.97178  0.49900  1.0000
  N   N6        1.0  0.02822  0.20476  0.49900  1.0000
  N   N7        1.0  0.02718  0.20410  0.99670  1.0000
  N   N8        1.0  0.79590  0.82308  0.99670  1.0000
  N   N9        1.0  0.17692  0.97282  0.99670  1.0000
  N   N10       1.0  0.97282  0.79590  0.00330  1.0000
  N   N11       1.0  0.20410  0.17692  0.00330  1.0000
  N   N12       1.0  0.82308  0.02718  0.00330  1.0000
  C   C1        1.0  0.17689  0.09820  0.53100  1.0000
  C   C2        1.0  0.90180  0.07869  0.53100  1.0000
  C   C3        1.0  0.92131  0.82311  0.53100  1.0000
  C   C4        1.0  0.82311  0.90180  0.46900  1.0000
  C   C5        1.0  0.09820  0.92131  0.46900  1.0000
  C   C6        1.0  0.07869  0.17689  0.46900  1.0000
  C   C7        1.0  0.21035  0.05373  0.44830  1.0000
  C   C8        1.0  0.94627  0.15662  0.44830  1.0000
  C   C9        1.0  0.84338  0.78965  0.44830  1.0000
  C   C10       1.0  0.78965  0.94627  0.55170  1.0000
  C   C11       1.0  0.05373  0.84338  0.55170  1.0000
  C   C12       1.0  0.15662  0.21035  0.55170  1.0000
  H   H1        1.0  0.19674  0.05281  0.34995  1.0000
  H   H2        1.0  0.94719  0.14393  0.34995  1.0000
  H   H3        1.0  0.85607  0.80326  0.34995  1.0000
  H   H4        1.0  0.80326  0.94719  0.65005  1.0000
  H   H5        1.0  0.05281  0.85607  0.65005  1.0000
  H   H6        1.0  0.14393  0.19674  0.65005  1.0000
  H   H7        1.0  0.26953  0.08213  0.45685  1.0000
  H   H8        1.0  0.91787  0.18740  0.45685  1.0000
  H   H9        1.0  0.81260  0.73047  0.45685  1.0000
  H   H10       1.0  0.73047  0.91787  0.54315  1.0000
  H   H11       1.0  0.08213  0.81260  0.54315  1.0000
  H   H12       1.0  0.18740  0.26953  0.54315  1.0000
  C   C13       1.0  0.25971  0.22048  0.38730  1.0000
  C   C14       1.0  0.77952  0.03923  0.38730  1.0000
  C   C15       1.0  0.96077  0.74029  0.38730  1.0000
  C   C16       1.0  0.74029  0.77952  0.61270  1.0000
  C   C17       1.0  0.22048  0.96077  0.61270  1.0000
  C   C18       1.0  0.03923  0.25971  0.61270  1.0000
  H   H13       1.0  0.23211  0.23756  0.32103  1.0000
  H   H14       1.0  0.76244  0.99455  0.32103  1.0000
  H   H15       1.0  0.00545  0.76789  0.32103  1.0000
  H   H16       1.0  0.76789  0.76244  0.67897  1.0000
  H   H17       1.0  0.23756  0.00545  0.67897  1.0000
  H   H18       1.0  0.99455  0.23211  0.67897  1.0000
  H   H19       1.0  0.27413  0.18428  0.33855  1.0000
  H   H20       1.0  0.81572  0.08985  0.33855  1.0000
  H   H21       1.0  0.91015  0.72587  0.33855  1.0000
  H   H22       1.0  0.72587  0.81572  0.66145  1.0000
  H   H23       1.0  0.18428  0.91015  0.66145  1.0000
  H   H24       1.0  0.08985  0.27413  0.66145  1.0000
  C   C19       1.0  0.33629  0.29432  0.43810  1.0000
  C   C20       1.0  0.70568  0.04197  0.43810  1.0000
  C   C21       1.0  0.95803  0.66371  0.43810  1.0000
  C   C22       1.0  0.66371  0.70568  0.56190  1.0000
  C   C23       1.0  0.29432  0.95803  0.56190  1.0000
  C   C24       1.0  0.04197  0.33629  0.56190  1.0000
  H   H25       1.0  0.32101  0.32741  0.49444  1.0000
  H   H26       1.0  0.67259  0.99360  0.49444  1.0000
  H   H27       1.0  0.00640  0.67899  0.49444  1.0000
  H   H28       1.0  0.67899  0.67259  0.50556  1.0000
  H   H29       1.0  0.32741  0.00640  0.50556  1.0000
  H   H30       1.0  0.99360  0.32101  0.50556  1.0000
  H   H31       1.0  0.36641  0.32681  0.35740  1.0000
  H   H32       1.0  0.67319  0.03960  0.35740  1.0000
  H   H33       1.0  0.96040  0.63359  0.35740  1.0000
  H   H34       1.0  0.63359  0.67319  0.64260  1.0000
  H   H35       1.0  0.32681  0.96040  0.64260  1.0000
  H   H36       1.0  0.03960  0.36641  0.64260  1.0000
  C   C25       1.0  0.39210  0.27576  0.52320  1.0000
  C   C26       1.0  0.72424  0.11634  0.52320  1.0000
  C   C27       1.0  0.88366  0.60790  0.52320  1.0000
  C   C28       1.0  0.60790  0.72424  0.47680  1.0000
  C   C29       1.0  0.27576  0.88366  0.47680  1.0000
  C   C30       1.0  0.11634  0.39210  0.47680  1.0000
  C   C31       1.0  0.07843  0.17630  0.96810  1.0000
  C   C32       1.0  0.82370  0.90213  0.96810  1.0000
  C   C33       1.0  0.09787  0.92157  0.96810  1.0000
  C   C34       1.0  0.92157  0.82370  0.03190  1.0000
  C   C35       1.0  0.17630  0.09787  0.03190  1.0000
  C   C36       1.0  0.90213  0.07843  0.03190  1.0000
  C   C37       1.0  0.15505  0.20920  0.05400  1.0000
  C   C38       1.0  0.79080  0.94585  0.05400  1.0000
  C   C39       1.0  0.05415  0.84495  0.05400  1.0000
  C   C40       1.0  0.84495  0.79080  0.94600  1.0000
  C   C41       1.0  0.20920  0.05415  0.94600  1.0000
  C   C42       1.0  0.94585  0.15505  0.94600  1.0000
  H   H37       1.0  0.18547  0.26850  0.04823  1.0000
  H   H38       1.0  0.73150  0.91697  0.04823  1.0000
  H   H39       1.0  0.08303  0.81453  0.04823  1.0000
  H   H40       1.0  0.81453  0.73150  0.95177  1.0000
  H   H41       1.0  0.26850  0.08303  0.95177  1.0000
  H   H42       1.0  0.91697  0.18547  0.95177  1.0000
  H   H43       1.0  0.14104  0.19394  0.15154  1.0000
  H   H44       1.0  0.80606  0.94710  0.15154  1.0000
  H   H45       1.0  0.05290  0.85896  0.15154  1.0000
  H   H46       1.0  0.85896  0.80606  0.84846  1.0000
  H   H47       1.0  0.19394  0.05290  0.84846  1.0000
  H   H48       1.0  0.94710  0.14104  0.84846  1.0000
  C   C43       1.0  0.03746  0.25878  0.10970  1.0000
  C   C44       1.0  0.74122  0.77868  0.10970  1.0000
  C   C45       1.0  0.22132  0.96254  0.10970  1.0000
  C   C46       1.0  0.96254  0.74122  0.89030  1.0000
  C   C47       1.0  0.25878  0.22132  0.89030  1.0000
  C   C48       1.0  0.77868  0.03746  0.89030  1.0000
  H   H49       1.0  0.08740  0.27265  0.16026  1.0000
  H   H50       1.0  0.72735  0.81475  0.16026  1.0000
  H   H51       1.0  0.18525  0.91260  0.16026  1.0000
  H   H52       1.0  0.91260  0.72735  0.83974  1.0000
  H   H53       1.0  0.27265  0.18525  0.83974  1.0000
  H   H54       1.0  0.81475  0.08740  0.83974  1.0000
  H   H55       1.0  0.99196  0.23149  0.17450  1.0000
  H   H56       1.0  0.76851  0.76047  0.17450  1.0000
  H   H57       1.0  0.23953  0.00804  0.17450  1.0000
  H   H58       1.0  0.00804  0.76851  0.82550  1.0000
  H   H59       1.0  0.23149  0.23953  0.82550  1.0000
  H   H60       1.0  0.76047  0.99196  0.82550  1.0000
  C   C49       1.0  0.04166  0.33585  0.05700  1.0000
  C   C50       1.0  0.66415  0.70581  0.05700  1.0000
  C   C51       1.0  0.29419  0.95834  0.05700  1.0000
  C   C52       1.0  0.95834  0.66415  0.94300  1.0000
  C   C53       1.0  0.33585  0.29419  0.94300  1.0000
  C   C54       1.0  0.70581  0.04166  0.94300  1.0000
  H   H61       1.0  0.99380  0.32114  0.99959  1.0000
  H   H62       1.0  0.67886  0.67266  0.99959  1.0000
  H   H63       1.0  0.32734  0.00620  0.99959  1.0000
  H   H64       1.0  0.00620  0.67886  0.00041  1.0000
  H   H65       1.0  0.32114  0.32734  0.00041  1.0000
  H   H66       1.0  0.67266  0.99380  0.00041  1.0000
  H   H67       1.0  0.03958  0.36674  0.13675  1.0000
  H   H68       1.0  0.63326  0.67284  0.13675  1.0000
  H   H69       1.0  0.32716  0.96042  0.13675  1.0000
  H   H70       1.0  0.96042  0.63326  0.86325  1.0000
  H   H71       1.0  0.36674  0.32716  0.86325  1.0000
  H   H72       1.0  0.67284  0.03958  0.86325  1.0000
  C   C55       1.0  0.11648  0.38948  0.97330  1.0000
  C   C56       1.0  0.61052  0.72700  0.97330  1.0000
  C   C57       1.0  0.27300  0.88352  0.97330  1.0000
  C   C58       1.0  0.88352  0.61052  0.02670  1.0000
  C   C59       1.0  0.38948  0.27300  0.02670  1.0000
  C   C60       1.0  0.72700  0.11648  0.02670  1.0000
