data_image0
_chemical_formula_structural       Cd12O72C32H16C48H16C16H16C40
_chemical_formula_sum              "Cd12 O72 C136 H48"
_cell_length_a       8.104
_cell_length_b       27.0656
_cell_length_c       20.4233
_cell_angle_alpha    90
_cell_angle_beta     90
_cell_angle_gamma    90

_space_group_name_H-M_alt    "P 1"
_space_group_IT_number       1

loop_
  _space_group_symop_operation_xyz
  'x, y, z'

loop_
  _atom_site_type_symbol
  _atom_site_label
  _atom_site_symmetry_multiplicity
  _atom_site_fract_x
  _atom_site_fract_y
  _atom_site_fract_z
  _atom_site_occupancy
  Cd  Cd1       1.0  0.50000  0.75000  0.25000  1.0000
  Cd  Cd2       1.0  0.00000  0.25000  0.25000  1.0000
  Cd  Cd3       1.0  0.50000  0.25000  0.75000  1.0000
  Cd  Cd4       1.0  0.00000  0.75000  0.75000  1.0000
  Cd  Cd5       1.0  0.00000  0.75000  0.95070  1.0000
  Cd  Cd6       1.0  0.50000  0.25000  0.95070  1.0000
  Cd  Cd7       1.0  0.00000  0.75000  0.54930  1.0000
  Cd  Cd8       1.0  0.50000  0.25000  0.54930  1.0000
  Cd  Cd9       1.0  0.00000  0.25000  0.04930  1.0000
  Cd  Cd10      1.0  0.50000  0.75000  0.04930  1.0000
  Cd  Cd11      1.0  0.00000  0.25000  0.45070  1.0000
  Cd  Cd12      1.0  0.50000  0.75000  0.45070  1.0000
  O   O1        1.0  0.93440  0.68084  0.00230  1.0000
  O   O2        1.0  0.56560  0.31916  0.00230  1.0000
  O   O3        1.0  0.06560  0.68084  0.49770  1.0000
  O   O4        1.0  0.43440  0.31916  0.49770  1.0000
  O   O5        1.0  0.43440  0.18084  0.00230  1.0000
  O   O6        1.0  0.06560  0.81916  0.00230  1.0000
  O   O7        1.0  0.56560  0.18084  0.49770  1.0000
  O   O8        1.0  0.93440  0.81916  0.49770  1.0000
  O   O9        1.0  0.06560  0.31916  0.99770  1.0000
  O   O10       1.0  0.43440  0.68084  0.99770  1.0000
  O   O11       1.0  0.93440  0.31916  0.50230  1.0000
  O   O12       1.0  0.56560  0.68084  0.50230  1.0000
  O   O13       1.0  0.56560  0.81916  0.99770  1.0000
  O   O14       1.0  0.93440  0.18084  0.99770  1.0000
  O   O15       1.0  0.43440  0.81916  0.50230  1.0000
  O   O16       1.0  0.06560  0.18084  0.50230  1.0000
  O   O17       1.0  0.76330  0.72297  0.06577  1.0000
  O   O18       1.0  0.73670  0.27703  0.06577  1.0000
  O   O19       1.0  0.23670  0.72297  0.43423  1.0000
  O   O20       1.0  0.26330  0.27703  0.43423  1.0000
  O   O21       1.0  0.26330  0.22297  0.06577  1.0000
  O   O22       1.0  0.23670  0.77703  0.06577  1.0000
  O   O23       1.0  0.73670  0.22297  0.43423  1.0000
  O   O24       1.0  0.76330  0.77703  0.43423  1.0000
  O   O25       1.0  0.23670  0.27703  0.93423  1.0000
  O   O26       1.0  0.26330  0.72297  0.93423  1.0000
  O   O27       1.0  0.76330  0.27703  0.56577  1.0000
  O   O28       1.0  0.73670  0.72297  0.56577  1.0000
  O   O29       1.0  0.73670  0.77703  0.93423  1.0000
  O   O30       1.0  0.76330  0.22297  0.93423  1.0000
  O   O31       1.0  0.26330  0.77703  0.56577  1.0000
  O   O32       1.0  0.23670  0.22297  0.56577  1.0000
  O   O33       1.0  0.46250  0.69870  0.14610  1.0000
  O   O34       1.0  0.03750  0.30130  0.14610  1.0000
  O   O35       1.0  0.53750  0.69870  0.35390  1.0000
  O   O36       1.0  0.96250  0.30130  0.35390  1.0000
  O   O37       1.0  0.96250  0.19870  0.14610  1.0000
  O   O38       1.0  0.53750  0.80130  0.14610  1.0000
  O   O39       1.0  0.03750  0.19870  0.35390  1.0000
  O   O40       1.0  0.46250  0.80130  0.35390  1.0000
  O   O41       1.0  0.53750  0.30130  0.85390  1.0000
  O   O42       1.0  0.96250  0.69870  0.85390  1.0000
  O   O43       1.0  0.46250  0.30130  0.64610  1.0000
  O   O44       1.0  0.03750  0.69870  0.64610  1.0000
  O   O45       1.0  0.03750  0.80130  0.85390  1.0000
  O   O46       1.0  0.46250  0.19870  0.85390  1.0000
  O   O47       1.0  0.96250  0.80130  0.64610  1.0000
  O   O48       1.0  0.53750  0.19870  0.64610  1.0000
  O   O49       1.0  0.67790  0.68967  0.21080  1.0000
  O   O50       1.0  0.82210  0.31033  0.21080  1.0000
  O   O51       1.0  0.32210  0.68967  0.28920  1.0000
  O   O52       1.0  0.17790  0.31033  0.28920  1.0000
  O   O53       1.0  0.17790  0.18967  0.21080  1.0000
  O   O54       1.0  0.32210  0.81033  0.21080  1.0000
  O   O55       1.0  0.82210  0.18967  0.28920  1.0000
  O   O56       1.0  0.67790  0.81033  0.28920  1.0000
  O   O57       1.0  0.32210  0.31033  0.78920  1.0000
  O   O58       1.0  0.17790  0.68967  0.78920  1.0000
  O   O59       1.0  0.67790  0.31033  0.71080  1.0000
  O   O60       1.0  0.82210  0.68967  0.71080  1.0000
  O   O61       1.0  0.82210  0.81033  0.78920  1.0000
  O   O62       1.0  0.67790  0.18967  0.78920  1.0000
  O   O63       1.0  0.17790  0.81033  0.71080  1.0000
  O   O64       1.0  0.32210  0.18967  0.71080  1.0000
  O   O65       1.0  0.75000  0.50000  0.95730  1.0000
  O   O66       1.0  0.25000  0.50000  0.54270  1.0000
  O   O67       1.0  0.25000  0.00000  0.95730  1.0000
  O   O68       1.0  0.75000  0.00000  0.54270  1.0000
  O   O69       1.0  0.25000  0.50000  0.04270  1.0000
  O   O70       1.0  0.75000  0.50000  0.45730  1.0000
  O   O71       1.0  0.75000  0.00000  0.04270  1.0000
  O   O72       1.0  0.25000  0.00000  0.45730  1.0000
  C   C1        1.0  0.71780  0.54650  0.05440  1.0000
  C   C2        1.0  0.78220  0.45350  0.05440  1.0000
  C   C3        1.0  0.28220  0.54650  0.44560  1.0000
  C   C4        1.0  0.21780  0.45350  0.44560  1.0000
  C   C5        1.0  0.21780  0.04650  0.05440  1.0000
  C   C6        1.0  0.28220  0.95350  0.05440  1.0000
  C   C7        1.0  0.78220  0.04650  0.44560  1.0000
  C   C8        1.0  0.71780  0.95350  0.44560  1.0000
  C   C9        1.0  0.28220  0.45350  0.94560  1.0000
  C   C10       1.0  0.21780  0.54650  0.94560  1.0000
  C   C11       1.0  0.71780  0.45350  0.55440  1.0000
  C   C12       1.0  0.78220  0.54650  0.55440  1.0000
  C   C13       1.0  0.78220  0.95350  0.94560  1.0000
  C   C14       1.0  0.71780  0.04650  0.94560  1.0000
  C   C15       1.0  0.21780  0.95350  0.55440  1.0000
  C   C16       1.0  0.28220  0.04650  0.55440  1.0000
  C   C17       1.0  0.77980  0.59130  0.03350  1.0000
  C   C18       1.0  0.72020  0.40870  0.03350  1.0000
  C   C19       1.0  0.22020  0.59130  0.46650  1.0000
  C   C20       1.0  0.27980  0.40870  0.46650  1.0000
  C   C21       1.0  0.27980  0.09130  0.03350  1.0000
  C   C22       1.0  0.22020  0.90870  0.03350  1.0000
  C   C23       1.0  0.72020  0.09130  0.46650  1.0000
  C   C24       1.0  0.77980  0.90870  0.46650  1.0000
  C   C25       1.0  0.22020  0.40870  0.96650  1.0000
  C   C26       1.0  0.27980  0.59130  0.96650  1.0000
  C   C27       1.0  0.77980  0.40870  0.53350  1.0000
  C   C28       1.0  0.72020  0.59130  0.53350  1.0000
  C   C29       1.0  0.72020  0.90870  0.96650  1.0000
  C   C30       1.0  0.77980  0.09130  0.96650  1.0000
  C   C31       1.0  0.27980  0.90870  0.53350  1.0000
  C   C32       1.0  0.22020  0.09130  0.53350  1.0000
  H   H1        1.0  0.84480  0.59230  0.99600  1.0000
  H   H2        1.0  0.65520  0.40770  0.99600  1.0000
  H   H3        1.0  0.15520  0.59230  0.50400  1.0000
  H   H4        1.0  0.34480  0.40770  0.50400  1.0000
  H   H5        1.0  0.34480  0.09230  0.99600  1.0000
  H   H6        1.0  0.15520  0.90770  0.99600  1.0000
  H   H7        1.0  0.65520  0.09230  0.50400  1.0000
  H   H8        1.0  0.84480  0.90770  0.50400  1.0000
  H   H9        1.0  0.15520  0.40770  0.00400  1.0000
  H   H10       1.0  0.34480  0.59230  0.00400  1.0000
  H   H11       1.0  0.84480  0.40770  0.49600  1.0000
  H   H12       1.0  0.65520  0.59230  0.49600  1.0000
  H   H13       1.0  0.65520  0.90770  0.00400  1.0000
  H   H14       1.0  0.84480  0.09230  0.00400  1.0000
  H   H15       1.0  0.34480  0.90770  0.49600  1.0000
  H   H16       1.0  0.15520  0.09230  0.49600  1.0000
  C   C33       1.0  0.74710  0.63510  0.06740  1.0000
  C   C34       1.0  0.75290  0.36490  0.06740  1.0000
  C   C35       1.0  0.25290  0.63510  0.43260  1.0000
  C   C36       1.0  0.24710  0.36490  0.43260  1.0000
  C   C37       1.0  0.24710  0.13510  0.06740  1.0000
  C   C38       1.0  0.25290  0.86490  0.06740  1.0000
  C   C39       1.0  0.75290  0.13510  0.43260  1.0000
  C   C40       1.0  0.74710  0.86490  0.43260  1.0000
  C   C41       1.0  0.25290  0.36490  0.93260  1.0000
  C   C42       1.0  0.24710  0.63510  0.93260  1.0000
  C   C43       1.0  0.74710  0.36490  0.56740  1.0000
  C   C44       1.0  0.75290  0.63510  0.56740  1.0000
  C   C45       1.0  0.75290  0.86490  0.93260  1.0000
  C   C46       1.0  0.74710  0.13510  0.93260  1.0000
  C   C47       1.0  0.24710  0.86490  0.56740  1.0000
  C   C48       1.0  0.25290  0.13510  0.56740  1.0000
  C   C49       1.0  0.64770  0.63310  0.12230  1.0000
  C   C50       1.0  0.85230  0.36690  0.12230  1.0000
  C   C51       1.0  0.35230  0.63310  0.37770  1.0000
  C   C52       1.0  0.14770  0.36690  0.37770  1.0000
  C   C53       1.0  0.14770  0.13310  0.12230  1.0000
  C   C54       1.0  0.35230  0.86690  0.12230  1.0000
  C   C55       1.0  0.85230  0.13310  0.37770  1.0000
  C   C56       1.0  0.64770  0.86690  0.37770  1.0000
  C   C57       1.0  0.35230  0.36690  0.87770  1.0000
  C   C58       1.0  0.14770  0.63310  0.87770  1.0000
  C   C59       1.0  0.64770  0.36690  0.62230  1.0000
  C   C60       1.0  0.85230  0.63310  0.62230  1.0000
  C   C61       1.0  0.85230  0.86690  0.87770  1.0000
  C   C62       1.0  0.64770  0.13310  0.87770  1.0000
  C   C63       1.0  0.14770  0.86690  0.62230  1.0000
  C   C64       1.0  0.35230  0.13310  0.62230  1.0000
  C   C65       1.0  0.58560  0.58790  0.14340  1.0000
  C   C66       1.0  0.91440  0.41210  0.14340  1.0000
  C   C67       1.0  0.41440  0.58790  0.35660  1.0000
  C   C68       1.0  0.08560  0.41210  0.35660  1.0000
  C   C69       1.0  0.08560  0.08790  0.14340  1.0000
  C   C70       1.0  0.41440  0.91210  0.14340  1.0000
  C   C71       1.0  0.91440  0.08790  0.35660  1.0000
  C   C72       1.0  0.58560  0.91210  0.35660  1.0000
  C   C73       1.0  0.41440  0.41210  0.85660  1.0000
  C   C74       1.0  0.08560  0.58790  0.85660  1.0000
  C   C75       1.0  0.58560  0.41210  0.64340  1.0000
  C   C76       1.0  0.91440  0.58790  0.64340  1.0000
  C   C77       1.0  0.91440  0.91210  0.85660  1.0000
  C   C78       1.0  0.58560  0.08790  0.85660  1.0000
  C   C79       1.0  0.08560  0.91210  0.64340  1.0000
  C   C80       1.0  0.41440  0.08790  0.64340  1.0000
  H   H17       1.0  0.51790  0.58670  0.18010  1.0000
  H   H18       1.0  0.98210  0.41330  0.18010  1.0000
  H   H19       1.0  0.48210  0.58670  0.31990  1.0000
  H   H20       1.0  0.01790  0.41330  0.31990  1.0000
  H   H21       1.0  0.01790  0.08670  0.18010  1.0000
  H   H22       1.0  0.48210  0.91330  0.18010  1.0000
  H   H23       1.0  0.98210  0.08670  0.31990  1.0000
  H   H24       1.0  0.51790  0.91330  0.31990  1.0000
  H   H25       1.0  0.48210  0.41330  0.81990  1.0000
  H   H26       1.0  0.01790  0.58670  0.81990  1.0000
  H   H27       1.0  0.51790  0.41330  0.68010  1.0000
  H   H28       1.0  0.98210  0.58670  0.68010  1.0000
  H   H29       1.0  0.98210  0.91330  0.81990  1.0000
  H   H30       1.0  0.51790  0.08670  0.81990  1.0000
  H   H31       1.0  0.01790  0.91330  0.68010  1.0000
  H   H32       1.0  0.48210  0.08670  0.68010  1.0000
  C   C81       1.0  0.62370  0.54490  0.11020  1.0000
  C   C82       1.0  0.87630  0.45510  0.11020  1.0000
  C   C83       1.0  0.37630  0.54490  0.38980  1.0000
  C   C84       1.0  0.12370  0.45510  0.38980  1.0000
  C   C85       1.0  0.12370  0.04490  0.11020  1.0000
  C   C86       1.0  0.37630  0.95510  0.11020  1.0000
  C   C87       1.0  0.87630  0.04490  0.38980  1.0000
  C   C88       1.0  0.62370  0.95510  0.38980  1.0000
  C   C89       1.0  0.37630  0.45510  0.88980  1.0000
  C   C90       1.0  0.12370  0.54490  0.88980  1.0000
  C   C91       1.0  0.62370  0.45510  0.61020  1.0000
  C   C92       1.0  0.87630  0.54490  0.61020  1.0000
  C   C93       1.0  0.87630  0.95510  0.88980  1.0000
  C   C94       1.0  0.62370  0.04490  0.88980  1.0000
  C   C95       1.0  0.12370  0.95510  0.61020  1.0000
  C   C96       1.0  0.37630  0.04490  0.61020  1.0000
  H   H33       1.0  0.58530  0.51470  0.12570  1.0000
  H   H34       1.0  0.91470  0.48530  0.12570  1.0000
  H   H35       1.0  0.41470  0.51470  0.37430  1.0000
  H   H36       1.0  0.08530  0.48530  0.37430  1.0000
  H   H37       1.0  0.08530  0.01470  0.12570  1.0000
  H   H38       1.0  0.41470  0.98530  0.12570  1.0000
  H   H39       1.0  0.91470  0.01470  0.37430  1.0000
  H   H40       1.0  0.58530  0.98530  0.37430  1.0000
  H   H41       1.0  0.41470  0.48530  0.87430  1.0000
  H   H42       1.0  0.08530  0.51470  0.87430  1.0000
  H   H43       1.0  0.58530  0.48530  0.62570  1.0000
  H   H44       1.0  0.91470  0.51470  0.62570  1.0000
  H   H45       1.0  0.91470  0.98530  0.87430  1.0000
  H   H46       1.0  0.58530  0.01470  0.87430  1.0000
  H   H47       1.0  0.08530  0.98530  0.62570  1.0000
  H   H48       1.0  0.41470  0.01470  0.62570  1.0000
  C   C97       1.0  0.81880  0.68310  0.04360  1.0000
  C   C98       1.0  0.68120  0.31690  0.04360  1.0000
  C   C99       1.0  0.18120  0.68310  0.45640  1.0000
  C   C100      1.0  0.31880  0.31690  0.45640  1.0000
  C   C101      1.0  0.31880  0.18310  0.04360  1.0000
  C   C102      1.0  0.18120  0.81690  0.04360  1.0000
  C   C103      1.0  0.68120  0.18310  0.45640  1.0000
  C   C104      1.0  0.81880  0.81690  0.45640  1.0000
  C   C105      1.0  0.18120  0.31690  0.95640  1.0000
  C   C106      1.0  0.31880  0.68310  0.95640  1.0000
  C   C107      1.0  0.81880  0.31690  0.54360  1.0000
  C   C108      1.0  0.68120  0.68310  0.54360  1.0000
  C   C109      1.0  0.68120  0.81690  0.95640  1.0000
  C   C110      1.0  0.81880  0.18310  0.95640  1.0000
  C   C111      1.0  0.31880  0.81690  0.54360  1.0000
  C   C112      1.0  0.18120  0.18310  0.54360  1.0000
  C   C113      1.0  0.59710  0.67780  0.16200  1.0000
  C   C114      1.0  0.90290  0.32220  0.16200  1.0000
  C   C115      1.0  0.40290  0.67780  0.33800  1.0000
  C   C116      1.0  0.09710  0.32220  0.33800  1.0000
  C   C117      1.0  0.09710  0.17780  0.16200  1.0000
  C   C118      1.0  0.40290  0.82220  0.16200  1.0000
  C   C119      1.0  0.90290  0.17780  0.33800  1.0000
  C   C120      1.0  0.59710  0.82220  0.33800  1.0000
  C   C121      1.0  0.40290  0.32220  0.83800  1.0000
  C   C122      1.0  0.09710  0.67780  0.83800  1.0000
  C   C123      1.0  0.59710  0.32220  0.66200  1.0000
  C   C124      1.0  0.90290  0.67780  0.66200  1.0000
  C   C125      1.0  0.90290  0.82220  0.83800  1.0000
  C   C126      1.0  0.59710  0.17780  0.83800  1.0000
  C   C127      1.0  0.09710  0.82220  0.66200  1.0000
  C   C128      1.0  0.40290  0.17780  0.66200  1.0000
  C   C129      1.0  0.75000  0.50000  0.01700  1.0000
  C   C130      1.0  0.25000  0.50000  0.48300  1.0000
  C   C131      1.0  0.25000  0.00000  0.01700  1.0000
  C   C132      1.0  0.75000  0.00000  0.48300  1.0000
  C   C133      1.0  0.25000  0.50000  0.98300  1.0000
  C   C134      1.0  0.75000  0.50000  0.51700  1.0000
  C   C135      1.0  0.75000  0.00000  0.98300  1.0000
  C   C136      1.0  0.25000  0.00000  0.51700  1.0000
