data_image0
_chemical_formula_structural       Bi18O144N36C72H36C36H36C72H36C72
_chemical_formula_sum              "Bi18 O144 N36 C252 H108"
_cell_length_a       16.7164
_cell_length_b       16.7164
_cell_length_c       51.487
_cell_angle_alpha    90
_cell_angle_beta     90
_cell_angle_gamma    120

_space_group_name_H-M_alt    "P 1"
_space_group_IT_number       1

loop_
  _space_group_symop_operation_xyz
  'x, y, z'

loop_
  _atom_site_type_symbol
  _atom_site_label
  _atom_site_symmetry_multiplicity
  _atom_site_fract_x
  _atom_site_fract_y
  _atom_site_fract_z
  _atom_site_occupancy
  Bi  Bi1       1.0  0.51350  0.00000  0.25000  1.0000
  Bi  Bi2       1.0  0.00000  0.51350  0.25000  1.0000
  Bi  Bi3       1.0  0.48650  0.48650  0.25000  1.0000
  Bi  Bi4       1.0  0.18017  0.33333  0.58333  1.0000
  Bi  Bi5       1.0  0.66667  0.84683  0.58333  1.0000
  Bi  Bi6       1.0  0.15317  0.81983  0.58333  1.0000
  Bi  Bi7       1.0  0.84683  0.66667  0.91667  1.0000
  Bi  Bi8       1.0  0.33333  0.18017  0.91667  1.0000
  Bi  Bi9       1.0  0.81983  0.15317  0.91667  1.0000
  Bi  Bi10      1.0  0.48650  0.00000  0.75000  1.0000
  Bi  Bi11      1.0  0.00000  0.48650  0.75000  1.0000
  Bi  Bi12      1.0  0.51350  0.51350  0.75000  1.0000
  Bi  Bi13      1.0  0.81983  0.66667  0.41667  1.0000
  Bi  Bi14      1.0  0.33333  0.15317  0.41667  1.0000
  Bi  Bi15      1.0  0.84683  0.18017  0.41667  1.0000
  Bi  Bi16      1.0  0.15317  0.33333  0.08333  1.0000
  Bi  Bi17      1.0  0.66667  0.81983  0.08333  1.0000
  Bi  Bi18      1.0  0.18017  0.84683  0.08333  1.0000
  O   O1        1.0  0.41870  0.91810  0.28498  1.0000
  O   O2        1.0  0.08190  0.50060  0.28498  1.0000
  O   O3        1.0  0.49940  0.58130  0.28498  1.0000
  O   O4        1.0  0.91810  0.41870  0.21502  1.0000
  O   O5        1.0  0.50060  0.08190  0.21502  1.0000
  O   O6        1.0  0.58130  0.49940  0.21502  1.0000
  O   O7        1.0  0.08537  0.25143  0.61831  1.0000
  O   O8        1.0  0.74857  0.83393  0.61831  1.0000
  O   O9        1.0  0.16607  0.91463  0.61831  1.0000
  O   O10       1.0  0.58477  0.75203  0.54835  1.0000
  O   O11       1.0  0.16727  0.41523  0.54835  1.0000
  O   O12       1.0  0.24797  0.83273  0.54835  1.0000
  O   O13       1.0  0.75203  0.58477  0.95165  1.0000
  O   O14       1.0  0.41523  0.16727  0.95165  1.0000
  O   O15       1.0  0.83273  0.24797  0.95165  1.0000
  O   O16       1.0  0.25143  0.08537  0.88169  1.0000
  O   O17       1.0  0.83393  0.74857  0.88169  1.0000
  O   O18       1.0  0.91463  0.16607  0.88169  1.0000
  O   O19       1.0  0.58130  0.08190  0.71502  1.0000
  O   O20       1.0  0.91810  0.49940  0.71502  1.0000
  O   O21       1.0  0.50060  0.41870  0.71502  1.0000
  O   O22       1.0  0.08190  0.58130  0.78498  1.0000
  O   O23       1.0  0.49940  0.91810  0.78498  1.0000
  O   O24       1.0  0.41870  0.50060  0.78498  1.0000
  O   O25       1.0  0.91463  0.74857  0.38169  1.0000
  O   O26       1.0  0.25143  0.16607  0.38169  1.0000
  O   O27       1.0  0.83393  0.08537  0.38169  1.0000
  O   O28       1.0  0.41523  0.24797  0.45165  1.0000
  O   O29       1.0  0.83273  0.58477  0.45165  1.0000
  O   O30       1.0  0.75203  0.16727  0.45165  1.0000
  O   O31       1.0  0.24797  0.41523  0.04835  1.0000
  O   O32       1.0  0.58477  0.83273  0.04835  1.0000
  O   O33       1.0  0.16727  0.75203  0.04835  1.0000
  O   O34       1.0  0.74857  0.91463  0.11831  1.0000
  O   O35       1.0  0.16607  0.25143  0.11831  1.0000
  O   O36       1.0  0.08537  0.83393  0.11831  1.0000
  O   O37       1.0  0.36260  0.92320  0.32320  1.0000
  O   O38       1.0  0.07680  0.43940  0.32320  1.0000
  O   O39       1.0  0.56060  0.63740  0.32320  1.0000
  O   O40       1.0  0.92320  0.36260  0.17680  1.0000
  O   O41       1.0  0.43940  0.07680  0.17680  1.0000
  O   O42       1.0  0.63740  0.56060  0.17680  1.0000
  O   O43       1.0  0.02927  0.25653  0.65653  1.0000
  O   O44       1.0  0.74347  0.77273  0.65653  1.0000
  O   O45       1.0  0.22727  0.97073  0.65653  1.0000
  O   O46       1.0  0.58987  0.69593  0.51013  1.0000
  O   O47       1.0  0.10607  0.41013  0.51013  1.0000
  O   O48       1.0  0.30407  0.89393  0.51013  1.0000
  O   O49       1.0  0.69593  0.58987  0.98987  1.0000
  O   O50       1.0  0.41013  0.10607  0.98987  1.0000
  O   O51       1.0  0.89393  0.30407  0.98987  1.0000
  O   O52       1.0  0.25653  0.02927  0.84347  1.0000
  O   O53       1.0  0.77273  0.74347  0.84347  1.0000
  O   O54       1.0  0.97073  0.22727  0.84347  1.0000
  O   O55       1.0  0.63740  0.07680  0.67680  1.0000
  O   O56       1.0  0.92320  0.56060  0.67680  1.0000
  O   O57       1.0  0.43940  0.36260  0.67680  1.0000
  O   O58       1.0  0.07680  0.63740  0.82320  1.0000
  O   O59       1.0  0.56060  0.92320  0.82320  1.0000
  O   O60       1.0  0.36260  0.43940  0.82320  1.0000
  O   O61       1.0  0.97073  0.74347  0.34347  1.0000
  O   O62       1.0  0.25653  0.22727  0.34347  1.0000
  O   O63       1.0  0.77273  0.02927  0.34347  1.0000
  O   O64       1.0  0.41013  0.30407  0.48987  1.0000
  O   O65       1.0  0.89393  0.58987  0.48987  1.0000
  O   O66       1.0  0.69593  0.10607  0.48987  1.0000
  O   O67       1.0  0.30407  0.41013  0.01013  1.0000
  O   O68       1.0  0.58987  0.89393  0.01013  1.0000
  O   O69       1.0  0.10607  0.69593  0.01013  1.0000
  O   O70       1.0  0.74347  0.97073  0.15653  1.0000
  O   O71       1.0  0.22727  0.25653  0.15653  1.0000
  O   O72       1.0  0.02927  0.77273  0.15653  1.0000
  O   O73       1.0  0.65430  0.15790  0.25118  1.0000
  O   O74       1.0  0.84210  0.49640  0.25118  1.0000
  O   O75       1.0  0.50360  0.34570  0.25118  1.0000
  O   O76       1.0  0.15790  0.65430  0.24882  1.0000
  O   O77       1.0  0.49640  0.84210  0.24882  1.0000
  O   O78       1.0  0.34570  0.50360  0.24882  1.0000
  O   O79       1.0  0.32097  0.49123  0.58451  1.0000
  O   O80       1.0  0.50877  0.82973  0.58451  1.0000
  O   O81       1.0  0.17027  0.67903  0.58451  1.0000
  O   O82       1.0  0.82457  0.98763  0.58215  1.0000
  O   O83       1.0  0.16307  0.17543  0.58215  1.0000
  O   O84       1.0  0.01237  0.83693  0.58215  1.0000
  O   O85       1.0  0.98763  0.82457  0.91785  1.0000
  O   O86       1.0  0.17543  0.16307  0.91785  1.0000
  O   O87       1.0  0.83693  0.01237  0.91785  1.0000
  O   O88       1.0  0.49123  0.32097  0.91549  1.0000
  O   O89       1.0  0.82973  0.50877  0.91549  1.0000
  O   O90       1.0  0.67903  0.17027  0.91549  1.0000
  O   O91       1.0  0.34570  0.84210  0.74882  1.0000
  O   O92       1.0  0.15790  0.50360  0.74882  1.0000
  O   O93       1.0  0.49640  0.65430  0.74882  1.0000
  O   O94       1.0  0.84210  0.34570  0.75118  1.0000
  O   O95       1.0  0.50360  0.15790  0.75118  1.0000
  O   O96       1.0  0.65430  0.49640  0.75118  1.0000
  O   O97       1.0  0.67903  0.50877  0.41549  1.0000
  O   O98       1.0  0.49123  0.17027  0.41549  1.0000
  O   O99       1.0  0.82973  0.32097  0.41549  1.0000
  O   O100      1.0  0.17543  0.01237  0.41785  1.0000
  O   O101      1.0  0.83693  0.82457  0.41785  1.0000
  O   O102      1.0  0.98763  0.16307  0.41785  1.0000
  O   O103      1.0  0.01237  0.17543  0.08215  1.0000
  O   O104      1.0  0.82457  0.83693  0.08215  1.0000
  O   O105      1.0  0.16307  0.98763  0.08215  1.0000
  O   O106      1.0  0.50877  0.67903  0.08451  1.0000
  O   O107      1.0  0.17027  0.49123  0.08451  1.0000
  O   O108      1.0  0.32097  0.82973  0.08451  1.0000
  O   O109      1.0  0.63610  0.08260  0.28725  1.0000
  O   O110      1.0  0.91740  0.55350  0.28725  1.0000
  O   O111      1.0  0.44650  0.36390  0.28725  1.0000
  O   O112      1.0  0.08260  0.63610  0.21275  1.0000
  O   O113      1.0  0.55350  0.91740  0.21275  1.0000
  O   O114      1.0  0.36390  0.44650  0.21275  1.0000
  O   O115      1.0  0.30277  0.41593  0.62058  1.0000
  O   O116      1.0  0.58407  0.88683  0.62058  1.0000
  O   O117      1.0  0.11317  0.69723  0.62058  1.0000
  O   O118      1.0  0.74927  0.96943  0.54608  1.0000
  O   O119      1.0  0.22017  0.25073  0.54608  1.0000
  O   O120      1.0  0.03057  0.77983  0.54608  1.0000
  O   O121      1.0  0.96943  0.74927  0.95392  1.0000
  O   O122      1.0  0.25073  0.22017  0.95392  1.0000
  O   O123      1.0  0.77983  0.03057  0.95392  1.0000
  O   O124      1.0  0.41593  0.30277  0.87942  1.0000
  O   O125      1.0  0.88683  0.58407  0.87942  1.0000
  O   O126      1.0  0.69723  0.11317  0.87942  1.0000
  O   O127      1.0  0.36390  0.91740  0.71275  1.0000
  O   O128      1.0  0.08260  0.44650  0.71275  1.0000
  O   O129      1.0  0.55350  0.63610  0.71275  1.0000
  O   O130      1.0  0.91740  0.36390  0.78725  1.0000
  O   O131      1.0  0.44650  0.08260  0.78725  1.0000
  O   O132      1.0  0.63610  0.55350  0.78725  1.0000
  O   O133      1.0  0.69723  0.58407  0.37942  1.0000
  O   O134      1.0  0.41593  0.11317  0.37942  1.0000
  O   O135      1.0  0.88683  0.30277  0.37942  1.0000
  O   O136      1.0  0.25073  0.03057  0.45392  1.0000
  O   O137      1.0  0.77983  0.74927  0.45392  1.0000
  O   O138      1.0  0.96943  0.22017  0.45392  1.0000
  O   O139      1.0  0.03057  0.25073  0.04608  1.0000
  O   O140      1.0  0.74927  0.77983  0.04608  1.0000
  O   O141      1.0  0.22017  0.96943  0.04608  1.0000
  O   O142      1.0  0.58407  0.69723  0.12058  1.0000
  O   O143      1.0  0.11317  0.41593  0.12058  1.0000
  O   O144      1.0  0.30277  0.88683  0.12058  1.0000
  N   N1        1.0  0.45210  0.08640  0.27272  1.0000
  N   N2        1.0  0.91360  0.36570  0.27272  1.0000
  N   N3        1.0  0.63430  0.54790  0.27272  1.0000
  N   N4        1.0  0.08640  0.45210  0.22728  1.0000
  N   N5        1.0  0.36570  0.91360  0.22728  1.0000
  N   N6        1.0  0.54790  0.63430  0.22728  1.0000
  N   N7        1.0  0.11877  0.41973  0.60605  1.0000
  N   N8        1.0  0.58027  0.69903  0.60605  1.0000
  N   N9        1.0  0.30097  0.88123  0.60605  1.0000
  N   N10       1.0  0.75307  0.78543  0.56061  1.0000
  N   N11       1.0  0.03237  0.24693  0.56061  1.0000
  N   N12       1.0  0.21457  0.96763  0.56061  1.0000
  N   N13       1.0  0.78543  0.75307  0.93939  1.0000
  N   N14       1.0  0.24693  0.03237  0.93939  1.0000
  N   N15       1.0  0.96763  0.21457  0.93939  1.0000
  N   N16       1.0  0.41973  0.11877  0.89395  1.0000
  N   N17       1.0  0.69903  0.58027  0.89395  1.0000
  N   N18       1.0  0.88123  0.30097  0.89395  1.0000
  N   N19       1.0  0.54790  0.91360  0.72728  1.0000
  N   N20       1.0  0.08640  0.63430  0.72728  1.0000
  N   N21       1.0  0.36570  0.45210  0.72728  1.0000
  N   N22       1.0  0.91360  0.54790  0.77272  1.0000
  N   N23       1.0  0.63430  0.08640  0.77272  1.0000
  N   N24       1.0  0.45210  0.36570  0.77272  1.0000
  N   N25       1.0  0.88123  0.58027  0.39395  1.0000
  N   N26       1.0  0.41973  0.30097  0.39395  1.0000
  N   N27       1.0  0.69903  0.11877  0.39395  1.0000
  N   N28       1.0  0.24693  0.21457  0.43939  1.0000
  N   N29       1.0  0.96763  0.75307  0.43939  1.0000
  N   N30       1.0  0.78543  0.03237  0.43939  1.0000
  N   N31       1.0  0.21457  0.24693  0.06061  1.0000
  N   N32       1.0  0.75307  0.96763  0.06061  1.0000
  N   N33       1.0  0.03237  0.78543  0.06061  1.0000
  N   N34       1.0  0.58027  0.88123  0.10605  1.0000
  N   N35       1.0  0.30097  0.41973  0.10605  1.0000
  N   N36       1.0  0.11877  0.69903  0.10605  1.0000
  C   C1        1.0  0.41290  0.05130  0.29543  1.0000
  C   C2        1.0  0.94870  0.36160  0.29543  1.0000
  C   C3        1.0  0.63840  0.58710  0.29543  1.0000
  C   C4        1.0  0.05130  0.41290  0.20457  1.0000
  C   C5        1.0  0.36160  0.94870  0.20457  1.0000
  C   C6        1.0  0.58710  0.63840  0.20457  1.0000
  C   C7        1.0  0.07957  0.38463  0.62876  1.0000
  C   C8        1.0  0.61537  0.69493  0.62876  1.0000
  C   C9        1.0  0.30507  0.92043  0.62876  1.0000
  C   C10       1.0  0.71797  0.74623  0.53790  1.0000
  C   C11       1.0  0.02827  0.28203  0.53790  1.0000
  C   C12       1.0  0.25377  0.97173  0.53790  1.0000
  C   C13       1.0  0.74623  0.71797  0.96210  1.0000
  C   C14       1.0  0.28203  0.02827  0.96210  1.0000
  C   C15       1.0  0.97173  0.25377  0.96210  1.0000
  C   C16       1.0  0.38463  0.07957  0.87124  1.0000
  C   C17       1.0  0.69493  0.61537  0.87124  1.0000
  C   C18       1.0  0.92043  0.30507  0.87124  1.0000
  C   C19       1.0  0.58710  0.94870  0.70457  1.0000
  C   C20       1.0  0.05130  0.63840  0.70457  1.0000
  C   C21       1.0  0.36160  0.41290  0.70457  1.0000
  C   C22       1.0  0.94870  0.58710  0.79543  1.0000
  C   C23       1.0  0.63840  0.05130  0.79543  1.0000
  C   C24       1.0  0.41290  0.36160  0.79543  1.0000
  C   C25       1.0  0.92043  0.61537  0.37124  1.0000
  C   C26       1.0  0.38463  0.30507  0.37124  1.0000
  C   C27       1.0  0.69493  0.07957  0.37124  1.0000
  C   C28       1.0  0.28203  0.25377  0.46210  1.0000
  C   C29       1.0  0.97173  0.71797  0.46210  1.0000
  C   C30       1.0  0.74623  0.02827  0.46210  1.0000
  C   C31       1.0  0.25377  0.28203  0.03790  1.0000
  C   C32       1.0  0.71797  0.97173  0.03790  1.0000
  C   C33       1.0  0.02827  0.74623  0.03790  1.0000
  C   C34       1.0  0.61537  0.92043  0.12876  1.0000
  C   C35       1.0  0.30507  0.38463  0.12876  1.0000
  C   C36       1.0  0.07957  0.69493  0.12876  1.0000
  C   C37       1.0  0.38700  0.09920  0.31200  1.0000
  C   C38       1.0  0.90080  0.28780  0.31200  1.0000
  C   C39       1.0  0.71220  0.61300  0.31200  1.0000
  C   C40       1.0  0.09920  0.38700  0.18800  1.0000
  C   C41       1.0  0.28780  0.90080  0.18800  1.0000
  C   C42       1.0  0.61300  0.71220  0.18800  1.0000
  C   C43       1.0  0.05367  0.43253  0.64533  1.0000
  C   C44       1.0  0.56747  0.62113  0.64533  1.0000
  C   C45       1.0  0.37887  0.94633  0.64533  1.0000
  C   C46       1.0  0.76587  0.72033  0.52133  1.0000
  C   C47       1.0  0.95447  0.23413  0.52133  1.0000
  C   C48       1.0  0.27967  0.04553  0.52133  1.0000
  C   C49       1.0  0.72033  0.76587  0.97867  1.0000
  C   C50       1.0  0.23413  0.95447  0.97867  1.0000
  C   C51       1.0  0.04553  0.27967  0.97867  1.0000
  C   C52       1.0  0.43253  0.05367  0.85467  1.0000
  C   C53       1.0  0.62113  0.56747  0.85467  1.0000
  C   C54       1.0  0.94633  0.37887  0.85467  1.0000
  C   C55       1.0  0.61300  0.90080  0.68800  1.0000
  C   C56       1.0  0.09920  0.71220  0.68800  1.0000
  C   C57       1.0  0.28780  0.38700  0.68800  1.0000
  C   C58       1.0  0.90080  0.61300  0.81200  1.0000
  C   C59       1.0  0.71220  0.09920  0.81200  1.0000
  C   C60       1.0  0.38700  0.28780  0.81200  1.0000
  C   C61       1.0  0.94633  0.56747  0.35467  1.0000
  C   C62       1.0  0.43253  0.37887  0.35467  1.0000
  C   C63       1.0  0.62113  0.05367  0.35467  1.0000
  C   C64       1.0  0.23413  0.27967  0.47867  1.0000
  C   C65       1.0  0.04553  0.76587  0.47867  1.0000
  C   C66       1.0  0.72033  0.95447  0.47867  1.0000
  C   C67       1.0  0.27967  0.23413  0.02133  1.0000
  C   C68       1.0  0.76587  0.04553  0.02133  1.0000
  C   C69       1.0  0.95447  0.72033  0.02133  1.0000
  C   C70       1.0  0.56747  0.94633  0.14533  1.0000
  C   C71       1.0  0.37887  0.43253  0.14533  1.0000
  C   C72       1.0  0.05367  0.62113  0.14533  1.0000
  H   H1        1.0  0.35840  0.07310  0.32770  1.0000
  H   H2        1.0  0.92690  0.28530  0.32770  1.0000
  H   H3        1.0  0.71470  0.64160  0.32770  1.0000
  H   H4        1.0  0.07310  0.35840  0.17230  1.0000
  H   H5        1.0  0.28530  0.92690  0.17230  1.0000
  H   H6        1.0  0.64160  0.71470  0.17230  1.0000
  H   H7        1.0  0.02507  0.40643  0.66103  1.0000
  H   H8        1.0  0.59357  0.61863  0.66103  1.0000
  H   H9        1.0  0.38137  0.97493  0.66103  1.0000
  H   H10       1.0  0.73977  0.69173  0.50563  1.0000
  H   H11       1.0  0.95197  0.26023  0.50563  1.0000
  H   H12       1.0  0.30827  0.04803  0.50563  1.0000
  H   H13       1.0  0.69173  0.73977  0.99437  1.0000
  H   H14       1.0  0.26023  0.95197  0.99437  1.0000
  H   H15       1.0  0.04803  0.30827  0.99437  1.0000
  H   H16       1.0  0.40643  0.02507  0.83897  1.0000
  H   H17       1.0  0.61863  0.59357  0.83897  1.0000
  H   H18       1.0  0.97493  0.38137  0.83897  1.0000
  H   H19       1.0  0.64160  0.92690  0.67230  1.0000
  H   H20       1.0  0.07310  0.71470  0.67230  1.0000
  H   H21       1.0  0.28530  0.35840  0.67230  1.0000
  H   H22       1.0  0.92690  0.64160  0.82770  1.0000
  H   H23       1.0  0.71470  0.07310  0.82770  1.0000
  H   H24       1.0  0.35840  0.28530  0.82770  1.0000
  H   H25       1.0  0.97493  0.59357  0.33897  1.0000
  H   H26       1.0  0.40643  0.38137  0.33897  1.0000
  H   H27       1.0  0.61863  0.02507  0.33897  1.0000
  H   H28       1.0  0.26023  0.30827  0.49437  1.0000
  H   H29       1.0  0.04803  0.73977  0.49437  1.0000
  H   H30       1.0  0.69173  0.95197  0.49437  1.0000
  H   H31       1.0  0.30827  0.26023  0.00563  1.0000
  H   H32       1.0  0.73977  0.04803  0.00563  1.0000
  H   H33       1.0  0.95197  0.69173  0.00563  1.0000
  H   H34       1.0  0.59357  0.97493  0.16103  1.0000
  H   H35       1.0  0.38137  0.40643  0.16103  1.0000
  H   H36       1.0  0.02507  0.61863  0.16103  1.0000
  C   C73       1.0  0.40410  0.18720  0.30499  1.0000
  C   C74       1.0  0.81280  0.21690  0.30499  1.0000
  C   C75       1.0  0.78310  0.59590  0.30499  1.0000
  C   C76       1.0  0.18720  0.40410  0.19501  1.0000
  C   C77       1.0  0.21690  0.81280  0.19501  1.0000
  C   C78       1.0  0.59590  0.78310  0.19501  1.0000
  C   C79       1.0  0.07077  0.52053  0.63832  1.0000
  C   C80       1.0  0.47947  0.55023  0.63832  1.0000
  C   C81       1.0  0.44977  0.92923  0.63832  1.0000
  C   C82       1.0  0.85387  0.73743  0.52834  1.0000
  C   C83       1.0  0.88357  0.14613  0.52834  1.0000
  C   C84       1.0  0.26257  0.11643  0.52834  1.0000
  C   C85       1.0  0.73743  0.85387  0.97166  1.0000
  C   C86       1.0  0.14613  0.88357  0.97166  1.0000
  C   C87       1.0  0.11643  0.26257  0.97166  1.0000
  C   C88       1.0  0.52053  0.07077  0.86168  1.0000
  C   C89       1.0  0.55023  0.47947  0.86168  1.0000
  C   C90       1.0  0.92923  0.44977  0.86168  1.0000
  C   C91       1.0  0.59590  0.81280  0.69501  1.0000
  C   C92       1.0  0.18720  0.78310  0.69501  1.0000
  C   C93       1.0  0.21690  0.40410  0.69501  1.0000
  C   C94       1.0  0.81280  0.59590  0.80499  1.0000
  C   C95       1.0  0.78310  0.18720  0.80499  1.0000
  C   C96       1.0  0.40410  0.21690  0.80499  1.0000
  C   C97       1.0  0.92923  0.47947  0.36168  1.0000
  C   C98       1.0  0.52053  0.44977  0.36168  1.0000
  C   C99       1.0  0.55023  0.07077  0.36168  1.0000
  C   C100      1.0  0.14613  0.26257  0.47166  1.0000
  C   C101      1.0  0.11643  0.85387  0.47166  1.0000
  C   C102      1.0  0.73743  0.88357  0.47166  1.0000
  C   C103      1.0  0.26257  0.14613  0.02834  1.0000
  C   C104      1.0  0.85387  0.11643  0.02834  1.0000
  C   C105      1.0  0.88357  0.73743  0.02834  1.0000
  C   C106      1.0  0.47947  0.92923  0.13832  1.0000
  C   C107      1.0  0.44977  0.52053  0.13832  1.0000
  C   C108      1.0  0.07077  0.55023  0.13832  1.0000
  H   H37       1.0  0.38800  0.22090  0.31610  1.0000
  H   H38       1.0  0.77910  0.16710  0.31610  1.0000
  H   H39       1.0  0.83290  0.61200  0.31610  1.0000
  H   H40       1.0  0.22090  0.38800  0.18390  1.0000
  H   H41       1.0  0.16710  0.77910  0.18390  1.0000
  H   H42       1.0  0.61200  0.83290  0.18390  1.0000
  H   H43       1.0  0.05467  0.55423  0.64943  1.0000
  H   H44       1.0  0.44577  0.50043  0.64943  1.0000
  H   H45       1.0  0.49957  0.94533  0.64943  1.0000
  H   H46       1.0  0.88757  0.72133  0.51723  1.0000
  H   H47       1.0  0.83377  0.11243  0.51723  1.0000
  H   H48       1.0  0.27867  0.16623  0.51723  1.0000
  H   H49       1.0  0.72133  0.88757  0.98277  1.0000
  H   H50       1.0  0.11243  0.83377  0.98277  1.0000
  H   H51       1.0  0.16623  0.27867  0.98277  1.0000
  H   H52       1.0  0.55423  0.05467  0.85057  1.0000
  H   H53       1.0  0.50043  0.44577  0.85057  1.0000
  H   H54       1.0  0.94533  0.49957  0.85057  1.0000
  H   H55       1.0  0.61200  0.77910  0.68390  1.0000
  H   H56       1.0  0.22090  0.83290  0.68390  1.0000
  H   H57       1.0  0.16710  0.38800  0.68390  1.0000
  H   H58       1.0  0.77910  0.61200  0.81610  1.0000
  H   H59       1.0  0.83290  0.22090  0.81610  1.0000
  H   H60       1.0  0.38800  0.16710  0.81610  1.0000
  H   H61       1.0  0.94533  0.44577  0.35057  1.0000
  H   H62       1.0  0.55423  0.49957  0.35057  1.0000
  H   H63       1.0  0.50043  0.05467  0.35057  1.0000
  H   H64       1.0  0.11243  0.27867  0.48277  1.0000
  H   H65       1.0  0.16623  0.88757  0.48277  1.0000
  H   H66       1.0  0.72133  0.83377  0.48277  1.0000
  H   H67       1.0  0.27867  0.11243  0.01723  1.0000
  H   H68       1.0  0.88757  0.16623  0.01723  1.0000
  H   H69       1.0  0.83377  0.72133  0.01723  1.0000
  H   H70       1.0  0.44577  0.94533  0.14943  1.0000
  H   H71       1.0  0.49957  0.55423  0.14943  1.0000
  H   H72       1.0  0.05467  0.50043  0.14943  1.0000
  C   C109      1.0  0.44470  0.22260  0.28164  1.0000
  C   C110      1.0  0.77740  0.22210  0.28164  1.0000
  C   C111      1.0  0.77790  0.55530  0.28164  1.0000
  C   C112      1.0  0.22260  0.44470  0.21836  1.0000
  C   C113      1.0  0.22210  0.77740  0.21836  1.0000
  C   C114      1.0  0.55530  0.77790  0.21836  1.0000
  C   C115      1.0  0.11137  0.55593  0.61497  1.0000
  C   C116      1.0  0.44407  0.55543  0.61497  1.0000
  C   C117      1.0  0.44457  0.88863  0.61497  1.0000
  C   C118      1.0  0.88927  0.77803  0.55169  1.0000
  C   C119      1.0  0.88877  0.11073  0.55169  1.0000
  C   C120      1.0  0.22197  0.11123  0.55169  1.0000
  C   C121      1.0  0.77803  0.88927  0.94831  1.0000
  C   C122      1.0  0.11073  0.88877  0.94831  1.0000
  C   C123      1.0  0.11123  0.22197  0.94831  1.0000
  C   C124      1.0  0.55593  0.11137  0.88503  1.0000
  C   C125      1.0  0.55543  0.44407  0.88503  1.0000
  C   C126      1.0  0.88863  0.44457  0.88503  1.0000
  C   C127      1.0  0.55530  0.77740  0.71836  1.0000
  C   C128      1.0  0.22260  0.77790  0.71836  1.0000
  C   C129      1.0  0.22210  0.44470  0.71836  1.0000
  C   C130      1.0  0.77740  0.55530  0.78164  1.0000
  C   C131      1.0  0.77790  0.22260  0.78164  1.0000
  C   C132      1.0  0.44470  0.22210  0.78164  1.0000
  C   C133      1.0  0.88863  0.44407  0.38503  1.0000
  C   C134      1.0  0.55593  0.44457  0.38503  1.0000
  C   C135      1.0  0.55543  0.11137  0.38503  1.0000
  C   C136      1.0  0.11073  0.22197  0.44831  1.0000
  C   C137      1.0  0.11123  0.88927  0.44831  1.0000
  C   C138      1.0  0.77803  0.88877  0.44831  1.0000
  C   C139      1.0  0.22197  0.11073  0.05169  1.0000
  C   C140      1.0  0.88927  0.11123  0.05169  1.0000
  C   C141      1.0  0.88877  0.77803  0.05169  1.0000
  C   C142      1.0  0.44407  0.88863  0.11497  1.0000
  C   C143      1.0  0.44457  0.55593  0.11497  1.0000
  C   C144      1.0  0.11137  0.55543  0.11497  1.0000
  C   C145      1.0  0.46910  0.17020  0.26612  1.0000
  C   C146      1.0  0.82980  0.29890  0.26612  1.0000
  C   C147      1.0  0.70110  0.53090  0.26612  1.0000
  C   C148      1.0  0.17020  0.46910  0.23388  1.0000
  C   C149      1.0  0.29890  0.82980  0.23388  1.0000
  C   C150      1.0  0.53090  0.70110  0.23388  1.0000
  C   C151      1.0  0.13577  0.50353  0.59945  1.0000
  C   C152      1.0  0.49647  0.63223  0.59945  1.0000
  C   C153      1.0  0.36777  0.86423  0.59945  1.0000
  C   C154      1.0  0.83687  0.80243  0.56721  1.0000
  C   C155      1.0  0.96557  0.16313  0.56721  1.0000
  C   C156      1.0  0.19757  0.03443  0.56721  1.0000
  C   C157      1.0  0.80243  0.83687  0.93279  1.0000
  C   C158      1.0  0.16313  0.96557  0.93279  1.0000
  C   C159      1.0  0.03443  0.19757  0.93279  1.0000
  C   C160      1.0  0.50353  0.13577  0.90055  1.0000
  C   C161      1.0  0.63223  0.49647  0.90055  1.0000
  C   C162      1.0  0.86423  0.36777  0.90055  1.0000
  C   C163      1.0  0.53090  0.82980  0.73388  1.0000
  C   C164      1.0  0.17020  0.70110  0.73388  1.0000
  C   C165      1.0  0.29890  0.46910  0.73388  1.0000
  C   C166      1.0  0.82980  0.53090  0.76612  1.0000
  C   C167      1.0  0.70110  0.17020  0.76612  1.0000
  C   C168      1.0  0.46910  0.29890  0.76612  1.0000
  C   C169      1.0  0.86423  0.49647  0.40055  1.0000
  C   C170      1.0  0.50353  0.36777  0.40055  1.0000
  C   C171      1.0  0.63223  0.13577  0.40055  1.0000
  C   C172      1.0  0.16313  0.19757  0.43279  1.0000
  C   C173      1.0  0.03443  0.83687  0.43279  1.0000
  C   C174      1.0  0.80243  0.96557  0.43279  1.0000
  C   C175      1.0  0.19757  0.16313  0.06721  1.0000
  C   C176      1.0  0.83687  0.03443  0.06721  1.0000
  C   C177      1.0  0.96557  0.80243  0.06721  1.0000
  C   C178      1.0  0.49647  0.86423  0.09945  1.0000
  C   C179      1.0  0.36777  0.50353  0.09945  1.0000
  C   C180      1.0  0.13577  0.63223  0.09945  1.0000
  H   H73       1.0  0.49870  0.19500  0.25040  1.0000
  H   H74       1.0  0.80500  0.30370  0.25040  1.0000
  H   H75       1.0  0.69630  0.50130  0.25040  1.0000
  H   H76       1.0  0.19500  0.49870  0.24960  1.0000
  H   H77       1.0  0.30370  0.80500  0.24960  1.0000
  H   H78       1.0  0.50130  0.69630  0.24960  1.0000
  H   H79       1.0  0.16537  0.52833  0.58373  1.0000
  H   H80       1.0  0.47167  0.63703  0.58373  1.0000
  H   H81       1.0  0.36297  0.83463  0.58373  1.0000
  H   H82       1.0  0.86167  0.83203  0.58293  1.0000
  H   H83       1.0  0.97037  0.13833  0.58293  1.0000
  H   H84       1.0  0.16797  0.02963  0.58293  1.0000
  H   H85       1.0  0.83203  0.86167  0.91707  1.0000
  H   H86       1.0  0.13833  0.97037  0.91707  1.0000
  H   H87       1.0  0.02963  0.16797  0.91707  1.0000
  H   H88       1.0  0.52833  0.16537  0.91627  1.0000
  H   H89       1.0  0.63703  0.47167  0.91627  1.0000
  H   H90       1.0  0.83463  0.36297  0.91627  1.0000
  H   H91       1.0  0.50130  0.80500  0.74960  1.0000
  H   H92       1.0  0.19500  0.69630  0.74960  1.0000
  H   H93       1.0  0.30370  0.49870  0.74960  1.0000
  H   H94       1.0  0.80500  0.50130  0.75040  1.0000
  H   H95       1.0  0.69630  0.19500  0.75040  1.0000
  H   H96       1.0  0.49870  0.30370  0.75040  1.0000
  H   H97       1.0  0.83463  0.47167  0.41627  1.0000
  H   H98       1.0  0.52833  0.36297  0.41627  1.0000
  H   H99       1.0  0.63703  0.16537  0.41627  1.0000
  H   H100      1.0  0.13833  0.16797  0.41707  1.0000
  H   H101      1.0  0.02963  0.86167  0.41707  1.0000
  H   H102      1.0  0.83203  0.97037  0.41707  1.0000
  H   H103      1.0  0.16797  0.13833  0.08293  1.0000
  H   H104      1.0  0.86167  0.02963  0.08293  1.0000
  H   H105      1.0  0.97037  0.83203  0.08293  1.0000
  H   H106      1.0  0.47167  0.83463  0.08373  1.0000
  H   H107      1.0  0.36297  0.52833  0.08373  1.0000
  H   H108      1.0  0.16537  0.63703  0.08373  1.0000
  C   C181      1.0  0.39620  0.95630  0.30191  1.0000
  C   C182      1.0  0.04370  0.43990  0.30191  1.0000
  C   C183      1.0  0.56010  0.60380  0.30191  1.0000
  C   C184      1.0  0.95630  0.39620  0.19809  1.0000
  C   C185      1.0  0.43990  0.04370  0.19809  1.0000
  C   C186      1.0  0.60380  0.56010  0.19809  1.0000
  C   C187      1.0  0.06287  0.28963  0.63524  1.0000
  C   C188      1.0  0.71037  0.77323  0.63524  1.0000
  C   C189      1.0  0.22677  0.93713  0.63524  1.0000
  C   C190      1.0  0.62297  0.72953  0.53142  1.0000
  C   C191      1.0  0.10657  0.37703  0.53142  1.0000
  C   C192      1.0  0.27047  0.89343  0.53142  1.0000
  C   C193      1.0  0.72953  0.62297  0.96858  1.0000
  C   C194      1.0  0.37703  0.10657  0.96858  1.0000
  C   C195      1.0  0.89343  0.27047  0.96858  1.0000
  C   C196      1.0  0.28963  0.06287  0.86476  1.0000
  C   C197      1.0  0.77323  0.71037  0.86476  1.0000
  C   C198      1.0  0.93713  0.22677  0.86476  1.0000
  C   C199      1.0  0.60380  0.04370  0.69809  1.0000
  C   C200      1.0  0.95630  0.56010  0.69809  1.0000
  C   C201      1.0  0.43990  0.39620  0.69809  1.0000
  C   C202      1.0  0.04370  0.60380  0.80191  1.0000
  C   C203      1.0  0.56010  0.95630  0.80191  1.0000
  C   C204      1.0  0.39620  0.43990  0.80191  1.0000
  C   C205      1.0  0.93713  0.71037  0.36476  1.0000
  C   C206      1.0  0.28963  0.22677  0.36476  1.0000
  C   C207      1.0  0.77323  0.06287  0.36476  1.0000
  C   C208      1.0  0.37703  0.27047  0.46858  1.0000
  C   C209      1.0  0.89343  0.62297  0.46858  1.0000
  C   C210      1.0  0.72953  0.10657  0.46858  1.0000
  C   C211      1.0  0.27047  0.37703  0.03142  1.0000
  C   C212      1.0  0.62297  0.89343  0.03142  1.0000
  C   C213      1.0  0.10657  0.72953  0.03142  1.0000
  C   C214      1.0  0.71037  0.93713  0.13524  1.0000
  C   C215      1.0  0.22677  0.28963  0.13524  1.0000
  C   C216      1.0  0.06287  0.77323  0.13524  1.0000
  C   C217      1.0  0.68320  0.14920  0.27244  1.0000
  C   C218      1.0  0.85080  0.53400  0.27244  1.0000
  C   C219      1.0  0.46600  0.31680  0.27244  1.0000
  C   C220      1.0  0.14920  0.68320  0.22756  1.0000
  C   C221      1.0  0.53400  0.85080  0.22756  1.0000
  C   C222      1.0  0.31680  0.46600  0.22756  1.0000
  C   C223      1.0  0.34987  0.48253  0.60577  1.0000
  C   C224      1.0  0.51747  0.86733  0.60577  1.0000
  C   C225      1.0  0.13267  0.65013  0.60577  1.0000
  C   C226      1.0  0.81587  0.01653  0.56089  1.0000
  C   C227      1.0  0.20067  0.18413  0.56089  1.0000
  C   C228      1.0  0.98347  0.79933  0.56089  1.0000
  C   C229      1.0  0.01653  0.81587  0.93911  1.0000
  C   C230      1.0  0.18413  0.20067  0.93911  1.0000
  C   C231      1.0  0.79933  0.98347  0.93911  1.0000
  C   C232      1.0  0.48253  0.34987  0.89423  1.0000
  C   C233      1.0  0.86733  0.51747  0.89423  1.0000
  C   C234      1.0  0.65013  0.13267  0.89423  1.0000
  C   C235      1.0  0.31680  0.85080  0.72756  1.0000
  C   C236      1.0  0.14920  0.46600  0.72756  1.0000
  C   C237      1.0  0.53400  0.68320  0.72756  1.0000
  C   C238      1.0  0.85080  0.31680  0.77244  1.0000
  C   C239      1.0  0.46600  0.14920  0.77244  1.0000
  C   C240      1.0  0.68320  0.53400  0.77244  1.0000
  C   C241      1.0  0.65013  0.51747  0.39423  1.0000
  C   C242      1.0  0.48253  0.13267  0.39423  1.0000
  C   C243      1.0  0.86733  0.34987  0.39423  1.0000
  C   C244      1.0  0.18413  0.98347  0.43911  1.0000
  C   C245      1.0  0.79933  0.81587  0.43911  1.0000
  C   C246      1.0  0.01653  0.20067  0.43911  1.0000
  C   C247      1.0  0.98347  0.18413  0.06089  1.0000
  C   C248      1.0  0.81587  0.79933  0.06089  1.0000
  C   C249      1.0  0.20067  0.01653  0.06089  1.0000
  C   C250      1.0  0.51747  0.65013  0.10577  1.0000
  C   C251      1.0  0.13267  0.48253  0.10577  1.0000
  C   C252      1.0  0.34987  0.86733  0.10577  1.0000
