data_image0
_chemical_formula_structural       In4O8C12O4C4H4O4C4N4O12C12O4C12H4C4H4C4H4C4H4C4H4C4H4C20H4C4H4C4H4C8H4C4H4C4H4
_chemical_formula_sum              "In4 O32 C108 H52 N4"
_cell_length_a       14.488
_cell_length_b       17.472
_cell_length_c       28.032
_cell_angle_alpha    90
_cell_angle_beta     90
_cell_angle_gamma    90

_space_group_name_H-M_alt    "P 1"
_space_group_IT_number       1

loop_
  _space_group_symop_operation_xyz
  'x, y, z'

loop_
  _atom_site_type_symbol
  _atom_site_label
  _atom_site_symmetry_multiplicity
  _atom_site_fract_x
  _atom_site_fract_y
  _atom_site_fract_z
  _atom_site_occupancy
  In  In1       1.0  0.57525  0.63298  0.20036  1.0000
  In  In2       1.0  0.92475  0.36702  0.70036  1.0000
  In  In3       1.0  0.42475  0.13298  0.29964  1.0000
  In  In4       1.0  0.07525  0.86702  0.79964  1.0000
  O   O1        1.0  0.03656  0.37461  0.64449  1.0000
  O   O2        1.0  0.46344  0.62539  0.14449  1.0000
  O   O3        1.0  0.96344  0.87461  0.85551  1.0000
  O   O4        1.0  0.53656  0.12539  0.35551  1.0000
  O   O5        1.0  0.45804  0.61212  0.25310  1.0000
  O   O6        1.0  0.04196  0.38788  0.75310  1.0000
  O   O7        1.0  0.54196  0.11212  0.24690  1.0000
  O   O8        1.0  0.95804  0.88788  0.74690  1.0000
  C   C1        1.0  0.42262  0.48901  0.28513  1.0000
  C   C2        1.0  0.07738  0.51099  0.78513  1.0000
  C   C3        1.0  0.57738  0.98901  0.21487  1.0000
  C   C4        1.0  0.92262  0.01099  0.71487  1.0000
  C   C5        1.0  0.07650  0.48008  0.47847  1.0000
  C   C6        1.0  0.42350  0.51992  0.97847  1.0000
  C   C7        1.0  0.92350  0.98008  0.02153  1.0000
  C   C8        1.0  0.57650  0.01992  0.52153  1.0000
  C   C9        1.0  0.97713  0.57515  0.32672  1.0000
  C   C10       1.0  0.52287  0.42485  0.82672  1.0000
  C   C11       1.0  0.02287  0.07515  0.17328  1.0000
  C   C12       1.0  0.47713  0.92485  0.67328  1.0000
  O   O9        1.0  0.72532  0.59575  0.20582  1.0000
  O   O10       1.0  0.77468  0.40425  0.70582  1.0000
  O   O11       1.0  0.27468  0.09575  0.29418  1.0000
  O   O12       1.0  0.22532  0.90425  0.79418  1.0000
  C   C13       1.0  0.82341  0.62717  0.32242  1.0000
  C   C14       1.0  0.67659  0.37283  0.82242  1.0000
  C   C15       1.0  0.17659  0.12717  0.17758  1.0000
  C   C16       1.0  0.32341  0.87283  0.67758  1.0000
  H   H1        1.0  0.77330  0.64990  0.33760  1.0000
  H   H2        1.0  0.72670  0.35010  0.83760  1.0000
  H   H3        1.0  0.22670  0.14990  0.16240  1.0000
  H   H4        1.0  0.27330  0.85010  0.66240  1.0000
  O   O13       1.0  0.54387  0.51520  0.23029  1.0000
  O   O14       1.0  0.95613  0.48480  0.73029  1.0000
  O   O15       1.0  0.45613  0.01520  0.26971  1.0000
  O   O16       1.0  0.04387  0.98480  0.76971  1.0000
  C   C17       1.0  0.01862  0.43976  0.56961  1.0000
  C   C18       1.0  0.48138  0.56024  0.06961  1.0000
  C   C19       1.0  0.98138  0.93976  0.93039  1.0000
  C   C20       1.0  0.51862  0.06024  0.43039  1.0000
  N   N1        1.0  0.03823  0.53218  0.40177  1.0000
  N   N2        1.0  0.46177  0.46782  0.90177  1.0000
  N   N3        1.0  0.96177  0.03218  0.09823  1.0000
  N   N4        1.0  0.53823  0.96782  0.59823  1.0000
  O   O17       1.0  0.36062  0.23451  0.33678  1.0000
  O   O18       1.0  0.13938  0.76549  0.83678  1.0000
  O   O19       1.0  0.63938  0.73451  0.16322  1.0000
  O   O20       1.0  0.86062  0.26549  0.66322  1.0000
  O   O21       1.0  0.66301  0.65531  0.26668  1.0000
  O   O22       1.0  0.83699  0.34469  0.76668  1.0000
  O   O23       1.0  0.33699  0.15531  0.23332  1.0000
  O   O24       1.0  0.16301  0.84469  0.73332  1.0000
  O   O25       1.0  0.90410  0.43106  0.63036  1.0000
  O   O26       1.0  0.59590  0.56894  0.13036  1.0000
  O   O27       1.0  0.09590  0.93106  0.86964  1.0000
  O   O28       1.0  0.40410  0.06894  0.36964  1.0000
  C   C21       1.0  0.41135  0.27905  0.31339  1.0000
  C   C22       1.0  0.08865  0.72095  0.81339  1.0000
  C   C23       1.0  0.58865  0.77905  0.18661  1.0000
  C   C24       1.0  0.91135  0.22095  0.68661  1.0000
  C   C25       1.0  0.47719  0.54334  0.25471  1.0000
  C   C26       1.0  0.02281  0.45666  0.75471  1.0000
  C   C27       1.0  0.52281  0.04334  0.24529  1.0000
  C   C28       1.0  0.97719  0.95666  0.74529  1.0000
  C   C29       1.0  0.73166  0.62243  0.24767  1.0000
  C   C30       1.0  0.76834  0.37757  0.74767  1.0000
  C   C31       1.0  0.26834  0.12243  0.25233  1.0000
  C   C32       1.0  0.23166  0.87757  0.75233  1.0000
  O   O29       1.0  0.47416  0.25378  0.28700  1.0000
  O   O30       1.0  0.02584  0.74622  0.78700  1.0000
  O   O31       1.0  0.52584  0.75378  0.21300  1.0000
  O   O32       1.0  0.97416  0.24622  0.71300  1.0000
  C   C33       1.0  0.98576  0.41462  0.61708  1.0000
  C   C34       1.0  0.51424  0.58538  0.11708  1.0000
  C   C35       1.0  0.01424  0.91462  0.88292  1.0000
  C   C36       1.0  0.48576  0.08538  0.38292  1.0000
  C   C37       1.0  0.20846  0.49470  0.36230  1.0000
  C   C38       1.0  0.29154  0.50530  0.86230  1.0000
  C   C39       1.0  0.79154  0.99470  0.13770  1.0000
  C   C40       1.0  0.70846  0.00530  0.63770  1.0000
  C   C41       1.0  0.90230  0.61041  0.34838  1.0000
  C   C42       1.0  0.59770  0.38959  0.84838  1.0000
  C   C43       1.0  0.09770  0.11041  0.15162  1.0000
  C   C44       1.0  0.40230  0.88959  0.65162  1.0000
  H   H5        1.0  0.90510  0.62290  0.38060  1.0000
  H   H6        1.0  0.59490  0.37710  0.88060  1.0000
  H   H7        1.0  0.09490  0.12290  0.11940  1.0000
  H   H8        1.0  0.40510  0.87710  0.61940  1.0000
  C   C45       1.0  0.34591  0.51612  0.30969  1.0000
  C   C46       1.0  0.15409  0.48388  0.80969  1.0000
  C   C47       1.0  0.65409  0.01612  0.19031  1.0000
  C   C48       1.0  0.84591  0.98388  0.69031  1.0000
  H   H9        1.0  0.32890  0.56720  0.30650  1.0000
  H   H10       1.0  0.17110  0.43280  0.80650  1.0000
  H   H11       1.0  0.67110  0.06720  0.19350  1.0000
  H   H12       1.0  0.82890  0.93280  0.69350  1.0000
  C   C49       1.0  0.32007  0.39196  0.34219  1.0000
  C   C50       1.0  0.17993  0.60804  0.84219  1.0000
  C   C51       1.0  0.67993  0.89196  0.15781  1.0000
  C   C52       1.0  0.82007  0.10804  0.65781  1.0000
  H   H13       1.0  0.28700  0.35980  0.36240  1.0000
  H   H14       1.0  0.21300  0.64020  0.86240  1.0000
  H   H15       1.0  0.71300  0.85980  0.13760  1.0000
  H   H16       1.0  0.78700  0.14020  0.63760  1.0000
  C   C53       1.0  0.14066  0.53094  0.33455  1.0000
  C   C54       1.0  0.35934  0.46906  0.83455  1.0000
  C   C55       1.0  0.85934  0.03094  0.16545  1.0000
  C   C56       1.0  0.64066  0.96906  0.66545  1.0000
  H   H17       1.0  0.15210  0.54380  0.30290  1.0000
  H   H18       1.0  0.34790  0.45620  0.80290  1.0000
  H   H19       1.0  0.84790  0.04380  0.19710  1.0000
  H   H20       1.0  0.65210  0.95620  0.69710  1.0000
  C   C57       1.0  0.18933  0.47707  0.40936  1.0000
  C   C58       1.0  0.31067  0.52293  0.90936  1.0000
  C   C59       1.0  0.81067  0.97707  0.09064  1.0000
  C   C60       1.0  0.68933  0.02293  0.59064  1.0000
  H   H21       1.0  0.23280  0.45220  0.42820  1.0000
  H   H22       1.0  0.26720  0.54780  0.92820  1.0000
  H   H23       1.0  0.76720  0.95220  0.07180  1.0000
  H   H24       1.0  0.73280  0.04780  0.57180  1.0000
  C   C61       1.0  0.13379  0.43782  0.50800  1.0000
  C   C62       1.0  0.36621  0.56218  0.00800  1.0000
  C   C63       1.0  0.86621  0.93782  0.99200  1.0000
  C   C64       1.0  0.63379  0.06218  0.49200  1.0000
  H   H25       1.0  0.19210  0.42350  0.49740  1.0000
  H   H26       1.0  0.30790  0.57650  0.99740  1.0000
  H   H27       1.0  0.80790  0.92350  0.00260  1.0000
  H   H28       1.0  0.69210  0.07650  0.50260  1.0000
  C   C65       1.0  0.81817  0.61063  0.27432  1.0000
  C   C66       1.0  0.68183  0.38937  0.77432  1.0000
  C   C67       1.0  0.18183  0.11063  0.22568  1.0000
  C   C68       1.0  0.31817  0.88937  0.72568  1.0000
  C   C69       1.0  0.05515  0.54723  0.35578  1.0000
  C   C70       1.0  0.44485  0.45277  0.85578  1.0000
  C   C71       1.0  0.94485  0.04723  0.14422  1.0000
  C   C72       1.0  0.55515  0.95277  0.64422  1.0000
  C   C73       1.0  0.29481  0.46865  0.33859  1.0000
  C   C74       1.0  0.20519  0.53135  0.83859  1.0000
  C   C75       1.0  0.70519  0.96865  0.16141  1.0000
  C   C76       1.0  0.79481  0.03135  0.66141  1.0000
  C   C77       1.0  0.10352  0.49746  0.42789  1.0000
  C   C78       1.0  0.39648  0.50254  0.92789  1.0000
  C   C79       1.0  0.89648  0.99746  0.07211  1.0000
  C   C80       1.0  0.60352  0.00254  0.57211  1.0000
  C   C81       1.0  0.10429  0.41670  0.55359  1.0000
  C   C82       1.0  0.39571  0.58330  0.05359  1.0000
  C   C83       1.0  0.89571  0.91670  0.94641  1.0000
  C   C84       1.0  0.60429  0.08330  0.44641  1.0000
  H   H29       1.0  0.14220  0.38720  0.57310  1.0000
  H   H30       1.0  0.35780  0.61280  0.07310  1.0000
  H   H31       1.0  0.85780  0.88720  0.92690  1.0000
  H   H32       1.0  0.64220  0.11280  0.42690  1.0000
  C   C85       1.0  0.44543  0.41240  0.28792  1.0000
  C   C86       1.0  0.05457  0.58760  0.78792  1.0000
  C   C87       1.0  0.55457  0.91240  0.21208  1.0000
  C   C88       1.0  0.94543  0.08760  0.71208  1.0000
  H   H33       1.0  0.49570  0.39400  0.27080  1.0000
  H   H34       1.0  0.00430  0.60600  0.77080  1.0000
  H   H35       1.0  0.50430  0.89400  0.22920  1.0000
  H   H36       1.0  0.99570  0.10600  0.72920  1.0000
  C   C89       1.0  0.99397  0.50481  0.49562  1.0000
  C   C90       1.0  0.50603  0.49519  0.99562  1.0000
  C   C91       1.0  0.00603  0.00481  0.00438  1.0000
  C   C92       1.0  0.49397  0.99519  0.50438  1.0000
  H   H37       1.0  0.95650  0.53530  0.47650  1.0000
  H   H38       1.0  0.54350  0.46470  0.97650  1.0000
  H   H39       1.0  0.04350  0.03530  0.02350  1.0000
  H   H40       1.0  0.45650  0.96470  0.52350  1.0000
  C   C93       1.0  0.39409  0.36222  0.31604  1.0000
  C   C94       1.0  0.10591  0.63778  0.81604  1.0000
  C   C95       1.0  0.60591  0.86222  0.18396  1.0000
  C   C96       1.0  0.89409  0.13778  0.68396  1.0000
  C   C97       1.0  0.96476  0.48528  0.54122  1.0000
  C   C98       1.0  0.53524  0.51472  0.04122  1.0000
  C   C99       1.0  0.03524  0.98528  0.95878  1.0000
  C   C100      1.0  0.46476  0.01472  0.45878  1.0000
  H   H41       1.0  0.90840  0.50320  0.55250  1.0000
  H   H42       1.0  0.59160  0.49680  0.05250  1.0000
  H   H43       1.0  0.09160  0.00320  0.94750  1.0000
  H   H44       1.0  0.40840  0.99680  0.44750  1.0000
  C   C101      1.0  0.89255  0.57595  0.25312  1.0000
  C   C102      1.0  0.60745  0.42405  0.75312  1.0000
  C   C103      1.0  0.10745  0.07595  0.24688  1.0000
  C   C104      1.0  0.39255  0.92405  0.74688  1.0000
  H   H45       1.0  0.88980  0.56290  0.22100  1.0000
  H   H46       1.0  0.61020  0.43710  0.72100  1.0000
  H   H47       1.0  0.11020  0.06290  0.27900  1.0000
  H   H48       1.0  0.38980  0.93710  0.77900  1.0000
  C   C105      1.0  0.97219  0.56010  0.27914  1.0000
  C   C106      1.0  0.52781  0.43990  0.77914  1.0000
  C   C107      1.0  0.02781  0.06010  0.22086  1.0000
  C   C108      1.0  0.47219  0.93990  0.72086  1.0000
  H   H49       1.0  0.02290  0.53880  0.26370  1.0000
  H   H50       1.0  0.47710  0.46120  0.76370  1.0000
  H   H51       1.0  0.97710  0.03880  0.23630  1.0000
  H   H52       1.0  0.52290  0.96120  0.73630  1.0000
