data_image0
_chemical_formula_structural       Cd8P8O56C80H8C8H8C8H8C8H8C8H8C8H8C8H8C8H8C8H8C8H8C8H8C8H8
_chemical_formula_sum              "Cd8 P8 O56 C168 H96"
_cell_length_a       23.728
_cell_length_b       13.165
_cell_length_c       30.085
_cell_angle_alpha    90
_cell_angle_beta     90
_cell_angle_gamma    90

_space_group_name_H-M_alt    "P 1"
_space_group_IT_number       1

loop_
  _space_group_symop_operation_xyz
  'x, y, z'

loop_
  _atom_site_type_symbol
  _atom_site_label
  _atom_site_symmetry_multiplicity
  _atom_site_fract_x
  _atom_site_fract_y
  _atom_site_fract_z
  _atom_site_occupancy
  Cd  Cd1       1.0  0.59616  0.71043  0.37694  1.0000
  Cd  Cd2       1.0  0.90384  0.28957  0.87694  1.0000
  Cd  Cd3       1.0  0.40384  0.21043  0.12306  1.0000
  Cd  Cd4       1.0  0.09616  0.78957  0.62306  1.0000
  Cd  Cd5       1.0  0.40384  0.28957  0.62306  1.0000
  Cd  Cd6       1.0  0.09616  0.71043  0.12306  1.0000
  Cd  Cd7       1.0  0.59616  0.78957  0.87694  1.0000
  Cd  Cd8       1.0  0.90384  0.21043  0.37694  1.0000
  P   P1        1.0  0.55859  0.44501  0.36780  1.0000
  P   P2        1.0  0.94141  0.55499  0.86780  1.0000
  P   P3        1.0  0.44141  0.94501  0.13220  1.0000
  P   P4        1.0  0.05859  0.05499  0.63220  1.0000
  P   P5        1.0  0.44141  0.55499  0.63220  1.0000
  P   P6        1.0  0.05859  0.44501  0.13220  1.0000
  P   P7        1.0  0.55859  0.05499  0.86780  1.0000
  P   P8        1.0  0.94141  0.94501  0.36780  1.0000
  O   O1        1.0  0.55834  0.55708  0.36403  1.0000
  O   O2        1.0  0.94166  0.44292  0.86403  1.0000
  O   O3        1.0  0.44166  0.05708  0.13597  1.0000
  O   O4        1.0  0.05834  0.94292  0.63597  1.0000
  O   O5        1.0  0.44166  0.44292  0.63597  1.0000
  O   O6        1.0  0.05834  0.55708  0.13597  1.0000
  O   O7        1.0  0.55834  0.94292  0.86403  1.0000
  O   O8        1.0  0.94166  0.05708  0.36403  1.0000
  O   O9        1.0  0.80672  0.18910  0.36638  1.0000
  O   O10       1.0  0.69328  0.81090  0.86638  1.0000
  O   O11       1.0  0.19328  0.68910  0.13362  1.0000
  O   O12       1.0  0.30672  0.31090  0.63362  1.0000
  O   O13       1.0  0.19328  0.81090  0.63362  1.0000
  O   O14       1.0  0.30672  0.18910  0.13362  1.0000
  O   O15       1.0  0.80672  0.31090  0.86638  1.0000
  O   O16       1.0  0.69328  0.68910  0.36638  1.0000
  O   O17       1.0  0.83587  0.33840  0.38922  1.0000
  O   O18       1.0  0.66413  0.66160  0.88922  1.0000
  O   O19       1.0  0.16413  0.83840  0.11078  1.0000
  O   O20       1.0  0.33587  0.16160  0.61078  1.0000
  O   O21       1.0  0.16413  0.66160  0.61078  1.0000
  O   O22       1.0  0.33587  0.33840  0.11078  1.0000
  O   O23       1.0  0.83587  0.16160  0.88922  1.0000
  O   O24       1.0  0.66413  0.83840  0.38922  1.0000
  O   O25       1.0  0.46262  0.26080  0.56326  1.0000
  O   O26       1.0  0.03738  0.73920  0.06326  1.0000
  O   O27       1.0  0.53738  0.76080  0.93674  1.0000
  O   O28       1.0  0.96262  0.23920  0.43674  1.0000
  O   O29       1.0  0.53738  0.73920  0.43674  1.0000
  O   O30       1.0  0.96262  0.26080  0.93674  1.0000
  O   O31       1.0  0.46262  0.23920  0.06326  1.0000
  O   O32       1.0  0.03738  0.76080  0.56326  1.0000
  O   O33       1.0  0.39147  0.36160  0.54691  1.0000
  O   O34       1.0  0.10853  0.63840  0.04691  1.0000
  O   O35       1.0  0.60853  0.86160  0.95309  1.0000
  O   O36       1.0  0.89147  0.13840  0.45309  1.0000
  O   O37       1.0  0.60853  0.63840  0.45309  1.0000
  O   O38       1.0  0.89147  0.36160  0.95309  1.0000
  O   O39       1.0  0.39147  0.13840  0.04691  1.0000
  O   O40       1.0  0.10853  0.86160  0.54691  1.0000
  O   O41       1.0  0.46576  0.30580  0.16487  1.0000
  O   O42       1.0  0.03424  0.69420  0.66487  1.0000
  O   O43       1.0  0.53424  0.80580  0.33513  1.0000
  O   O44       1.0  0.96576  0.19420  0.83513  1.0000
  O   O45       1.0  0.53424  0.69420  0.83513  1.0000
  O   O46       1.0  0.96576  0.30580  0.33513  1.0000
  O   O47       1.0  0.46576  0.19420  0.66487  1.0000
  O   O48       1.0  0.03424  0.80580  0.16487  1.0000
  O   O49       1.0  0.40547  0.22080  0.20458  1.0000
  O   O50       1.0  0.09453  0.77920  0.70458  1.0000
  O   O51       1.0  0.59453  0.72080  0.29542  1.0000
  O   O52       1.0  0.90547  0.27920  0.79542  1.0000
  O   O53       1.0  0.59453  0.77920  0.79542  1.0000
  O   O54       1.0  0.90547  0.22080  0.29542  1.0000
  O   O55       1.0  0.40547  0.27920  0.70458  1.0000
  O   O56       1.0  0.09453  0.72080  0.20458  1.0000
  C   C1        1.0  0.73817  0.31890  0.37478  1.0000
  C   C2        1.0  0.76183  0.68110  0.87478  1.0000
  C   C3        1.0  0.26183  0.81890  0.12522  1.0000
  C   C4        1.0  0.23817  0.18110  0.62522  1.0000
  C   C5        1.0  0.26183  0.68110  0.62522  1.0000
  C   C6        1.0  0.23817  0.31890  0.12522  1.0000
  C   C7        1.0  0.73817  0.18110  0.87478  1.0000
  C   C8        1.0  0.76183  0.81890  0.37478  1.0000
  C   C9        1.0  0.52448  0.39020  0.32023  1.0000
  C   C10       1.0  0.97552  0.60980  0.82023  1.0000
  C   C11       1.0  0.47552  0.89020  0.17977  1.0000
  C   C12       1.0  0.02448  0.10980  0.67977  1.0000
  C   C13       1.0  0.47552  0.60980  0.67977  1.0000
  C   C14       1.0  0.02448  0.39020  0.17977  1.0000
  C   C15       1.0  0.52448  0.10980  0.82023  1.0000
  C   C16       1.0  0.97552  0.89020  0.32023  1.0000
  C   C17       1.0  0.79711  0.27810  0.37696  1.0000
  C   C18       1.0  0.70289  0.72190  0.87696  1.0000
  C   C19       1.0  0.20289  0.77810  0.12304  1.0000
  C   C20       1.0  0.29711  0.22190  0.62304  1.0000
  C   C21       1.0  0.20289  0.72190  0.62304  1.0000
  C   C22       1.0  0.29711  0.27810  0.12304  1.0000
  C   C23       1.0  0.79711  0.22190  0.87696  1.0000
  C   C24       1.0  0.70289  0.77810  0.37696  1.0000
  C   C25       1.0  0.52192  0.40170  0.41668  1.0000
  C   C26       1.0  0.97808  0.59830  0.91668  1.0000
  C   C27       1.0  0.47808  0.90170  0.08332  1.0000
  C   C28       1.0  0.02192  0.09830  0.58332  1.0000
  C   C29       1.0  0.47808  0.59830  0.58332  1.0000
  C   C30       1.0  0.02192  0.40170  0.08332  1.0000
  C   C31       1.0  0.52192  0.09830  0.91668  1.0000
  C   C32       1.0  0.97808  0.90170  0.41668  1.0000
  C   C33       1.0  0.62862  0.39270  0.37000  1.0000
  C   C34       1.0  0.87138  0.60730  0.87000  1.0000
  C   C35       1.0  0.37138  0.89270  0.13000  1.0000
  C   C36       1.0  0.12862  0.10730  0.63000  1.0000
  C   C37       1.0  0.37138  0.60730  0.63000  1.0000
  C   C38       1.0  0.12862  0.39270  0.13000  1.0000
  C   C39       1.0  0.62862  0.10730  0.87000  1.0000
  C   C40       1.0  0.87138  0.89270  0.37000  1.0000
  C   C41       1.0  0.44630  0.27860  0.20152  1.0000
  C   C42       1.0  0.05370  0.72140  0.70152  1.0000
  C   C43       1.0  0.55370  0.77860  0.29848  1.0000
  C   C44       1.0  0.94630  0.22140  0.79848  1.0000
  C   C45       1.0  0.55370  0.72140  0.79848  1.0000
  C   C46       1.0  0.94630  0.27860  0.29848  1.0000
  C   C47       1.0  0.44630  0.22140  0.70152  1.0000
  C   C48       1.0  0.05370  0.77860  0.20152  1.0000
  C   C49       1.0  0.43781  0.32100  0.53730  1.0000
  C   C50       1.0  0.06219  0.67900  0.03730  1.0000
  C   C51       1.0  0.56219  0.82100  0.96270  1.0000
  C   C52       1.0  0.93781  0.17900  0.46270  1.0000
  C   C53       1.0  0.56219  0.67900  0.46270  1.0000
  C   C54       1.0  0.93781  0.32100  0.96270  1.0000
  C   C55       1.0  0.43781  0.17900  0.03730  1.0000
  C   C56       1.0  0.06219  0.82100  0.53730  1.0000
  C   C57       1.0  0.46581  0.34660  0.49411  1.0000
  C   C58       1.0  0.03419  0.65340  0.99411  1.0000
  C   C59       1.0  0.53419  0.84660  0.00589  1.0000
  C   C60       1.0  0.96581  0.15340  0.50589  1.0000
  C   C61       1.0  0.53419  0.65340  0.50589  1.0000
  C   C62       1.0  0.96581  0.34660  0.00589  1.0000
  C   C63       1.0  0.46581  0.15340  0.99411  1.0000
  C   C64       1.0  0.03419  0.84660  0.49411  1.0000
  C   C65       1.0  0.47328  0.31830  0.24363  1.0000
  C   C66       1.0  0.02672  0.68170  0.74363  1.0000
  C   C67       1.0  0.52672  0.81830  0.25637  1.0000
  C   C68       1.0  0.97328  0.18170  0.75637  1.0000
  C   C69       1.0  0.52672  0.68170  0.75637  1.0000
  C   C70       1.0  0.97328  0.31830  0.25637  1.0000
  C   C71       1.0  0.47328  0.18170  0.74363  1.0000
  C   C72       1.0  0.02672  0.81830  0.24363  1.0000
  C   C73       1.0  0.72565  0.41420  0.38998  1.0000
  C   C74       1.0  0.77435  0.58580  0.88998  1.0000
  C   C75       1.0  0.27435  0.91420  0.11002  1.0000
  C   C76       1.0  0.22565  0.08580  0.61002  1.0000
  C   C77       1.0  0.27435  0.58580  0.61002  1.0000
  C   C78       1.0  0.22565  0.41420  0.11002  1.0000
  C   C79       1.0  0.72565  0.08580  0.88998  1.0000
  C   C80       1.0  0.77435  0.91420  0.38998  1.0000
  H   H1        1.0  0.75410  0.45440  0.40190  1.0000
  H   H2        1.0  0.74590  0.54560  0.90190  1.0000
  H   H3        1.0  0.24590  0.95440  0.09810  1.0000
  H   H4        1.0  0.25410  0.04560  0.59810  1.0000
  H   H5        1.0  0.24590  0.54560  0.59810  1.0000
  H   H6        1.0  0.25410  0.45440  0.09810  1.0000
  H   H7        1.0  0.75410  0.04560  0.90190  1.0000
  H   H8        1.0  0.74590  0.95440  0.40190  1.0000
  C   C81       1.0  0.69540  0.25860  0.35855  1.0000
  C   C82       1.0  0.80460  0.74140  0.85855  1.0000
  C   C83       1.0  0.30460  0.75860  0.14145  1.0000
  C   C84       1.0  0.19540  0.24140  0.64145  1.0000
  C   C85       1.0  0.30460  0.74140  0.64145  1.0000
  C   C86       1.0  0.19540  0.25860  0.14145  1.0000
  C   C87       1.0  0.69540  0.24140  0.85855  1.0000
  C   C88       1.0  0.80460  0.75860  0.35855  1.0000
  H   H9        1.0  0.70320  0.19230  0.34970  1.0000
  H   H10       1.0  0.79680  0.80770  0.84970  1.0000
  H   H11       1.0  0.29680  0.69230  0.15030  1.0000
  H   H12       1.0  0.20320  0.30770  0.65030  1.0000
  H   H13       1.0  0.29680  0.80770  0.65030  1.0000
  H   H14       1.0  0.20320  0.19230  0.15030  1.0000
  H   H15       1.0  0.70320  0.30770  0.84970  1.0000
  H   H16       1.0  0.79680  0.69230  0.34970  1.0000
  C   C89       1.0  0.67068  0.45200  0.38777  1.0000
  C   C90       1.0  0.82932  0.54800  0.88777  1.0000
  C   C91       1.0  0.32932  0.95200  0.11223  1.0000
  C   C92       1.0  0.17068  0.04800  0.61223  1.0000
  C   C93       1.0  0.32932  0.54800  0.61223  1.0000
  C   C94       1.0  0.17068  0.45200  0.11223  1.0000
  C   C95       1.0  0.67068  0.04800  0.88777  1.0000
  C   C96       1.0  0.82932  0.95200  0.38777  1.0000
  H   H17       1.0  0.66260  0.51690  0.39820  1.0000
  H   H18       1.0  0.83740  0.48310  0.89820  1.0000
  H   H19       1.0  0.33740  0.01690  0.10180  1.0000
  H   H20       1.0  0.16260  0.98310  0.60180  1.0000
  H   H21       1.0  0.33740  0.48310  0.60180  1.0000
  H   H22       1.0  0.16260  0.51690  0.10180  1.0000
  H   H23       1.0  0.66260  0.98310  0.89820  1.0000
  H   H24       1.0  0.83740  0.01690  0.39820  1.0000
  C   C97       1.0  0.64104  0.29560  0.35533  1.0000
  C   C98       1.0  0.85896  0.70440  0.85533  1.0000
  C   C99       1.0  0.35896  0.79560  0.14467  1.0000
  C   C100      1.0  0.14104  0.20440  0.64467  1.0000
  C   C101      1.0  0.35896  0.70440  0.64467  1.0000
  C   C102      1.0  0.14104  0.29560  0.14467  1.0000
  C   C103      1.0  0.64104  0.20440  0.85533  1.0000
  C   C104      1.0  0.85896  0.79560  0.35533  1.0000
  H   H25       1.0  0.61280  0.25520  0.34330  1.0000
  H   H26       1.0  0.88720  0.74480  0.84330  1.0000
  H   H27       1.0  0.38720  0.75520  0.15670  1.0000
  H   H28       1.0  0.11280  0.24480  0.65670  1.0000
  H   H29       1.0  0.38720  0.74480  0.65670  1.0000
  H   H30       1.0  0.11280  0.25520  0.15670  1.0000
  H   H31       1.0  0.61280  0.24480  0.84330  1.0000
  H   H32       1.0  0.88720  0.75520  0.34330  1.0000
  C   C105      1.0  0.53928  0.32000  0.44074  1.0000
  C   C106      1.0  0.96072  0.68000  0.94074  1.0000
  C   C107      1.0  0.46072  0.82000  0.05926  1.0000
  C   C108      1.0  0.03928  0.18000  0.55926  1.0000
  C   C109      1.0  0.46072  0.68000  0.55926  1.0000
  C   C110      1.0  0.03928  0.32000  0.05926  1.0000
  C   C111      1.0  0.53928  0.18000  0.94074  1.0000
  C   C112      1.0  0.96072  0.82000  0.44074  1.0000
  H   H33       1.0  0.57030  0.28280  0.43120  1.0000
  H   H34       1.0  0.92970  0.71720  0.93120  1.0000
  H   H35       1.0  0.42970  0.78280  0.06880  1.0000
  H   H36       1.0  0.07030  0.21720  0.56880  1.0000
  H   H37       1.0  0.42970  0.71720  0.56880  1.0000
  H   H38       1.0  0.07030  0.28280  0.06880  1.0000
  H   H39       1.0  0.57030  0.21720  0.93120  1.0000
  H   H40       1.0  0.92970  0.78280  0.43120  1.0000
  C   C113      1.0  0.47637  0.45730  0.43159  1.0000
  C   C114      1.0  0.02363  0.54270  0.93159  1.0000
  C   C115      1.0  0.52363  0.95730  0.06841  1.0000
  C   C116      1.0  0.97637  0.04270  0.56841  1.0000
  C   C117      1.0  0.52363  0.54270  0.56841  1.0000
  C   C118      1.0  0.97637  0.45730  0.06841  1.0000
  C   C119      1.0  0.47637  0.04270  0.93159  1.0000
  C   C120      1.0  0.02363  0.95730  0.43159  1.0000
  H   H41       1.0  0.46450  0.51410  0.41580  1.0000
  H   H42       1.0  0.03550  0.48590  0.91580  1.0000
  H   H43       1.0  0.53550  0.01410  0.08420  1.0000
  H   H44       1.0  0.96450  0.98590  0.58420  1.0000
  H   H45       1.0  0.53550  0.48590  0.58420  1.0000
  H   H46       1.0  0.96450  0.51410  0.08420  1.0000
  H   H47       1.0  0.46450  0.98590  0.91580  1.0000
  H   H48       1.0  0.03550  0.01410  0.41580  1.0000
  C   C121      1.0  0.51113  0.29140  0.47952  1.0000
  C   C122      1.0  0.98887  0.70860  0.97952  1.0000
  C   C123      1.0  0.48887  0.79140  0.02048  1.0000
  C   C124      1.0  0.01113  0.20860  0.52048  1.0000
  C   C125      1.0  0.48887  0.70860  0.52048  1.0000
  C   C126      1.0  0.01113  0.29140  0.02048  1.0000
  C   C127      1.0  0.51113  0.20860  0.97952  1.0000
  C   C128      1.0  0.98887  0.79140  0.47952  1.0000
  H   H49       1.0  0.52310  0.23480  0.49540  1.0000
  H   H50       1.0  0.97690  0.76520  0.99540  1.0000
  H   H51       1.0  0.47690  0.73480  0.00460  1.0000
  H   H52       1.0  0.02310  0.26520  0.50460  1.0000
  H   H53       1.0  0.47690  0.76520  0.50460  1.0000
  H   H54       1.0  0.02310  0.23480  0.00460  1.0000
  H   H55       1.0  0.52310  0.26520  0.99540  1.0000
  H   H56       1.0  0.97690  0.73480  0.49540  1.0000
  C   C129      1.0  0.44836  0.42900  0.46974  1.0000
  C   C130      1.0  0.05164  0.57100  0.96974  1.0000
  C   C131      1.0  0.55164  0.92900  0.03026  1.0000
  C   C132      1.0  0.94836  0.07100  0.53026  1.0000
  C   C133      1.0  0.55164  0.57100  0.53026  1.0000
  C   C134      1.0  0.94836  0.42900  0.03026  1.0000
  C   C135      1.0  0.44836  0.07100  0.96974  1.0000
  C   C136      1.0  0.05164  0.92900  0.46974  1.0000
  H   H57       1.0  0.41720  0.46610  0.47910  1.0000
  H   H58       1.0  0.08280  0.53390  0.97910  1.0000
  H   H59       1.0  0.58280  0.96610  0.02090  1.0000
  H   H60       1.0  0.91720  0.03390  0.52090  1.0000
  H   H61       1.0  0.58280  0.53390  0.52090  1.0000
  H   H62       1.0  0.91720  0.46610  0.02090  1.0000
  H   H63       1.0  0.41720  0.03390  0.97910  1.0000
  H   H64       1.0  0.08280  0.96610  0.47910  1.0000
  C   C137      1.0  0.48540  0.31740  0.32195  1.0000
  C   C138      1.0  0.01460  0.68260  0.82195  1.0000
  C   C139      1.0  0.51460  0.81740  0.17805  1.0000
  C   C140      1.0  0.98540  0.18260  0.67805  1.0000
  C   C141      1.0  0.51460  0.68260  0.67805  1.0000
  C   C142      1.0  0.98540  0.31740  0.17805  1.0000
  C   C143      1.0  0.48540  0.18260  0.82195  1.0000
  C   C144      1.0  0.01460  0.81740  0.32195  1.0000
  H   H65       1.0  0.47500  0.29060  0.34930  1.0000
  H   H66       1.0  0.02500  0.70940  0.84930  1.0000
  H   H67       1.0  0.52500  0.79060  0.15070  1.0000
  H   H68       1.0  0.97500  0.20940  0.65070  1.0000
  H   H69       1.0  0.52500  0.70940  0.65070  1.0000
  H   H70       1.0  0.97500  0.29060  0.15070  1.0000
  H   H71       1.0  0.47500  0.20940  0.84930  1.0000
  H   H72       1.0  0.02500  0.79060  0.34930  1.0000
  C   C145      1.0  0.45980  0.28070  0.28322  1.0000
  C   C146      1.0  0.04020  0.71930  0.78322  1.0000
  C   C147      1.0  0.54020  0.78070  0.21678  1.0000
  C   C148      1.0  0.95980  0.21930  0.71678  1.0000
  C   C149      1.0  0.54020  0.71930  0.71678  1.0000
  C   C150      1.0  0.95980  0.28070  0.21678  1.0000
  C   C151      1.0  0.45980  0.21930  0.78322  1.0000
  C   C152      1.0  0.04020  0.78070  0.28322  1.0000
  H   H73       1.0  0.43300  0.22940  0.28520  1.0000
  H   H74       1.0  0.06700  0.77060  0.78520  1.0000
  H   H75       1.0  0.56700  0.72940  0.21480  1.0000
  H   H76       1.0  0.93300  0.27060  0.71480  1.0000
  H   H77       1.0  0.56700  0.77060  0.71480  1.0000
  H   H78       1.0  0.93300  0.22940  0.21480  1.0000
  H   H79       1.0  0.43300  0.27060  0.78520  1.0000
  H   H80       1.0  0.06700  0.72940  0.28520  1.0000
  C   C153      1.0  0.53490  0.43410  0.28037  1.0000
  C   C154      1.0  0.96510  0.56590  0.78037  1.0000
  C   C155      1.0  0.46510  0.93410  0.21963  1.0000
  C   C156      1.0  0.03490  0.06590  0.71963  1.0000
  C   C157      1.0  0.46510  0.56590  0.71963  1.0000
  C   C158      1.0  0.03490  0.43410  0.21963  1.0000
  C   C159      1.0  0.53490  0.06590  0.78037  1.0000
  C   C160      1.0  0.96510  0.93410  0.28037  1.0000
  H   H81       1.0  0.55850  0.49040  0.27860  1.0000
  H   H82       1.0  0.94150  0.50960  0.77860  1.0000
  H   H83       1.0  0.44150  0.99040  0.22140  1.0000
  H   H84       1.0  0.05850  0.00960  0.72140  1.0000
  H   H85       1.0  0.44150  0.50960  0.72140  1.0000
  H   H86       1.0  0.05850  0.49040  0.22140  1.0000
  H   H87       1.0  0.55850  0.00960  0.77860  1.0000
  H   H88       1.0  0.94150  0.99040  0.27860  1.0000
  C   C161      1.0  0.51010  0.39490  0.24180  1.0000
  C   C162      1.0  0.98990  0.60510  0.74180  1.0000
  C   C163      1.0  0.48990  0.89490  0.25820  1.0000
  C   C164      1.0  0.01010  0.10510  0.75820  1.0000
  C   C165      1.0  0.48990  0.60510  0.75820  1.0000
  C   C166      1.0  0.01010  0.39490  0.25820  1.0000
  C   C167      1.0  0.51010  0.10510  0.74180  1.0000
  C   C168      1.0  0.98990  0.89490  0.24180  1.0000
  H   H89       1.0  0.51950  0.42270  0.21440  1.0000
  H   H90       1.0  0.98050  0.57730  0.71440  1.0000
  H   H91       1.0  0.48050  0.92270  0.28560  1.0000
  H   H92       1.0  0.01950  0.07730  0.78560  1.0000
  H   H93       1.0  0.48050  0.57730  0.78560  1.0000
  H   H94       1.0  0.01950  0.42270  0.28560  1.0000
  H   H95       1.0  0.51950  0.07730  0.71440  1.0000
  H   H96       1.0  0.98050  0.92270  0.21440  1.0000
