data_image0
_chemical_formula_structural       C24H8C8H8C16H8C8H8C40H8C8H8C16H8C8H8C32H8C8H8C16H8C8H8C40H8C8H8C16H8C8H8C8O64Co12F96
_chemical_formula_sum              "C272 H128 O64 Co12 F96"
_cell_length_a       19.9107
_cell_length_b       18.7741
_cell_length_c       25.054
_cell_angle_alpha    90
_cell_angle_beta     108.434
_cell_angle_gamma    90

_space_group_name_H-M_alt    "P 1"
_space_group_IT_number       1

loop_
  _space_group_symop_operation_xyz
  'x, y, z'

loop_
  _atom_site_type_symbol
  _atom_site_label
  _atom_site_symmetry_multiplicity
  _atom_site_fract_x
  _atom_site_fract_y
  _atom_site_fract_z
  _atom_site_occupancy
  C   C1        1.0  0.73360  0.22007  0.37350  1.0000
  C   C2        1.0  0.23360  0.72007  0.37350  1.0000
  C   C3        1.0  0.26640  0.22007  0.12650  1.0000
  C   C4        1.0  0.76640  0.72007  0.12650  1.0000
  C   C5        1.0  0.26640  0.77993  0.62650  1.0000
  C   C6        1.0  0.76640  0.27993  0.62650  1.0000
  C   C7        1.0  0.73360  0.77993  0.87350  1.0000
  C   C8        1.0  0.23360  0.27993  0.87350  1.0000
  C   C9        1.0  0.75044  0.26435  0.32988  1.0000
  C   C10       1.0  0.25044  0.76435  0.32988  1.0000
  C   C11       1.0  0.24956  0.26435  0.17012  1.0000
  C   C12       1.0  0.74956  0.76435  0.17012  1.0000
  C   C13       1.0  0.24956  0.73565  0.67012  1.0000
  C   C14       1.0  0.74956  0.23565  0.67012  1.0000
  C   C15       1.0  0.75044  0.73565  0.82988  1.0000
  C   C16       1.0  0.25044  0.23565  0.82988  1.0000
  C   C17       1.0  0.76470  0.33646  0.34074  1.0000
  C   C18       1.0  0.26470  0.83646  0.34074  1.0000
  C   C19       1.0  0.23530  0.33646  0.15926  1.0000
  C   C20       1.0  0.73530  0.83646  0.15926  1.0000
  C   C21       1.0  0.23530  0.66354  0.65926  1.0000
  C   C22       1.0  0.73530  0.16354  0.65926  1.0000
  C   C23       1.0  0.76470  0.66354  0.84074  1.0000
  C   C24       1.0  0.26470  0.16354  0.84074  1.0000
  H   H1        1.0  0.76440  0.35570  0.37480  1.0000
  H   H2        1.0  0.26440  0.85570  0.37480  1.0000
  H   H3        1.0  0.23560  0.35570  0.12520  1.0000
  H   H4        1.0  0.73560  0.85570  0.12520  1.0000
  H   H5        1.0  0.23560  0.64430  0.62520  1.0000
  H   H6        1.0  0.73560  0.14430  0.62520  1.0000
  H   H7        1.0  0.76440  0.64430  0.87480  1.0000
  H   H8        1.0  0.26440  0.14430  0.87480  1.0000
  C   C25       1.0  0.77935  0.37944  0.30111  1.0000
  C   C26       1.0  0.27935  0.87944  0.30111  1.0000
  C   C27       1.0  0.22065  0.37944  0.19889  1.0000
  C   C28       1.0  0.72065  0.87944  0.19889  1.0000
  C   C29       1.0  0.22065  0.62056  0.69889  1.0000
  C   C30       1.0  0.72065  0.12056  0.69889  1.0000
  C   C31       1.0  0.77935  0.62056  0.80111  1.0000
  C   C32       1.0  0.27935  0.12056  0.80111  1.0000
  H   H9        1.0  0.78760  0.42770  0.30860  1.0000
  H   H10       1.0  0.28760  0.92770  0.30860  1.0000
  H   H11       1.0  0.21240  0.42770  0.19140  1.0000
  H   H12       1.0  0.71240  0.92770  0.19140  1.0000
  H   H13       1.0  0.21240  0.57230  0.69140  1.0000
  H   H14       1.0  0.71240  0.07230  0.69140  1.0000
  H   H15       1.0  0.78760  0.57230  0.80860  1.0000
  H   H16       1.0  0.28760  0.07230  0.80860  1.0000
  C   C33       1.0  0.78196  0.35221  0.25042  1.0000
  C   C34       1.0  0.28196  0.85221  0.25042  1.0000
  C   C35       1.0  0.21804  0.35221  0.24958  1.0000
  C   C36       1.0  0.71804  0.85221  0.24958  1.0000
  C   C37       1.0  0.21804  0.64779  0.74958  1.0000
  C   C38       1.0  0.71804  0.14779  0.74958  1.0000
  C   C39       1.0  0.78196  0.64779  0.75042  1.0000
  C   C40       1.0  0.28196  0.14779  0.75042  1.0000
  C   C41       1.0  0.76759  0.27995  0.23968  1.0000
  C   C42       1.0  0.26759  0.77995  0.23968  1.0000
  C   C43       1.0  0.23241  0.27995  0.26032  1.0000
  C   C44       1.0  0.73241  0.77995  0.26032  1.0000
  C   C45       1.0  0.23241  0.72005  0.76032  1.0000
  C   C46       1.0  0.73241  0.22005  0.76032  1.0000
  C   C47       1.0  0.76759  0.72005  0.73968  1.0000
  C   C48       1.0  0.26759  0.22005  0.73968  1.0000
  H   H17       1.0  0.76900  0.26040  0.20590  1.0000
  H   H18       1.0  0.26900  0.76040  0.20590  1.0000
  H   H19       1.0  0.23100  0.26040  0.29410  1.0000
  H   H20       1.0  0.73100  0.76040  0.29410  1.0000
  H   H21       1.0  0.23100  0.73960  0.79410  1.0000
  H   H22       1.0  0.73100  0.23960  0.79410  1.0000
  H   H23       1.0  0.76900  0.73960  0.70590  1.0000
  H   H24       1.0  0.26900  0.23960  0.70590  1.0000
  C   C49       1.0  0.75130  0.23704  0.27873  1.0000
  C   C50       1.0  0.25130  0.73704  0.27873  1.0000
  C   C51       1.0  0.24870  0.23704  0.22127  1.0000
  C   C52       1.0  0.74870  0.73704  0.22127  1.0000
  C   C53       1.0  0.24870  0.76296  0.72127  1.0000
  C   C54       1.0  0.74870  0.26296  0.72127  1.0000
  C   C55       1.0  0.75130  0.76296  0.77873  1.0000
  C   C56       1.0  0.25130  0.26296  0.77873  1.0000
  H   H25       1.0  0.74080  0.18920  0.27060  1.0000
  H   H26       1.0  0.24080  0.68920  0.27060  1.0000
  H   H27       1.0  0.25920  0.18920  0.22940  1.0000
  H   H28       1.0  0.75920  0.68920  0.22940  1.0000
  H   H29       1.0  0.25920  0.81080  0.72940  1.0000
  H   H30       1.0  0.75920  0.31080  0.72940  1.0000
  H   H31       1.0  0.74080  0.81080  0.77060  1.0000
  H   H32       1.0  0.24080  0.31080  0.77060  1.0000
  C   C57       1.0  0.79987  0.40427  0.20908  1.0000
  C   C58       1.0  0.29987  0.90427  0.20908  1.0000
  C   C59       1.0  0.20013  0.40427  0.29092  1.0000
  C   C60       1.0  0.70013  0.90427  0.29092  1.0000
  C   C61       1.0  0.20013  0.59573  0.79092  1.0000
  C   C62       1.0  0.70013  0.09573  0.79092  1.0000
  C   C63       1.0  0.79987  0.59573  0.70908  1.0000
  C   C64       1.0  0.29987  0.09573  0.70908  1.0000
  C   C65       1.0  0.73210  0.44683  0.17965  1.0000
  C   C66       1.0  0.23210  0.94683  0.17965  1.0000
  C   C67       1.0  0.26790  0.44683  0.32035  1.0000
  C   C68       1.0  0.76790  0.94683  0.32035  1.0000
  C   C69       1.0  0.26790  0.55317  0.82035  1.0000
  C   C70       1.0  0.76790  0.05317  0.82035  1.0000
  C   C71       1.0  0.73210  0.55317  0.67965  1.0000
  C   C72       1.0  0.23210  0.05317  0.67965  1.0000
  C   C73       1.0  0.82421  0.36619  0.16399  1.0000
  C   C74       1.0  0.32421  0.86619  0.16399  1.0000
  C   C75       1.0  0.17579  0.36619  0.33601  1.0000
  C   C76       1.0  0.67579  0.86619  0.33601  1.0000
  C   C77       1.0  0.17579  0.63381  0.83601  1.0000
  C   C78       1.0  0.67579  0.13381  0.83601  1.0000
  C   C79       1.0  0.82421  0.63381  0.66399  1.0000
  C   C80       1.0  0.32421  0.13381  0.66399  1.0000
  C   C81       1.0  0.86126  0.45347  0.24223  1.0000
  C   C82       1.0  0.36126  0.95347  0.24223  1.0000
  C   C83       1.0  0.13874  0.45347  0.25777  1.0000
  C   C84       1.0  0.63874  0.95347  0.25777  1.0000
  C   C85       1.0  0.13874  0.54653  0.75777  1.0000
  C   C86       1.0  0.63874  0.04653  0.75777  1.0000
  C   C87       1.0  0.86126  0.54653  0.74223  1.0000
  C   C88       1.0  0.36126  0.04653  0.74223  1.0000
  C   C89       1.0  0.91959  0.42222  0.28194  1.0000
  C   C90       1.0  0.41959  0.92222  0.28194  1.0000
  C   C91       1.0  0.08041  0.42222  0.21806  1.0000
  C   C92       1.0  0.58041  0.92222  0.21806  1.0000
  C   C93       1.0  0.08041  0.57778  0.71806  1.0000
  C   C94       1.0  0.58041  0.07778  0.71806  1.0000
  C   C95       1.0  0.91959  0.57778  0.78194  1.0000
  C   C96       1.0  0.41959  0.07778  0.78194  1.0000
  H   H33       1.0  0.92090  0.37310  0.28670  1.0000
  H   H34       1.0  0.42090  0.87310  0.28670  1.0000
  H   H35       1.0  0.07910  0.37310  0.21330  1.0000
  H   H36       1.0  0.57910  0.87310  0.21330  1.0000
  H   H37       1.0  0.07910  0.62690  0.71330  1.0000
  H   H38       1.0  0.57910  0.12690  0.71330  1.0000
  H   H39       1.0  0.92090  0.62690  0.78670  1.0000
  H   H40       1.0  0.42090  0.12690  0.78670  1.0000
  C   C97       1.0  0.97518  0.46281  0.31417  1.0000
  C   C98       1.0  0.47518  0.96281  0.31417  1.0000
  C   C99       1.0  0.02482  0.46281  0.18583  1.0000
  C   C100      1.0  0.52482  0.96281  0.18583  1.0000
  C   C101      1.0  0.02482  0.53719  0.68583  1.0000
  C   C102      1.0  0.52482  0.03719  0.68583  1.0000
  C   C103      1.0  0.97518  0.53719  0.81417  1.0000
  C   C104      1.0  0.47518  0.03719  0.81417  1.0000
  H   H41       1.0  0.01410  0.44090  0.33960  1.0000
  H   H42       1.0  0.51410  0.94090  0.33960  1.0000
  H   H43       1.0  0.98590  0.44090  0.16040  1.0000
  H   H44       1.0  0.48590  0.94090  0.16040  1.0000
  H   H45       1.0  0.98590  0.55910  0.66040  1.0000
  H   H46       1.0  0.48590  0.05910  0.66040  1.0000
  H   H47       1.0  0.01410  0.55910  0.83960  1.0000
  H   H48       1.0  0.51410  0.05910  0.83960  1.0000
  C   C105      1.0  0.97326  0.53672  0.30878  1.0000
  C   C106      1.0  0.47326  0.03672  0.30878  1.0000
  C   C107      1.0  0.02674  0.53672  0.19122  1.0000
  C   C108      1.0  0.52674  0.03672  0.19122  1.0000
  C   C109      1.0  0.02674  0.46328  0.69122  1.0000
  C   C110      1.0  0.52674  0.96328  0.69122  1.0000
  C   C111      1.0  0.97326  0.46328  0.80878  1.0000
  C   C112      1.0  0.47326  0.96328  0.80878  1.0000
  C   C113      1.0  0.91567  0.56775  0.26909  1.0000
  C   C114      1.0  0.41567  0.06775  0.26909  1.0000
  C   C115      1.0  0.08433  0.56775  0.23091  1.0000
  C   C116      1.0  0.58433  0.06775  0.23091  1.0000
  C   C117      1.0  0.08433  0.43225  0.73091  1.0000
  C   C118      1.0  0.58433  0.93225  0.73091  1.0000
  C   C119      1.0  0.91567  0.43225  0.76909  1.0000
  C   C120      1.0  0.41567  0.93225  0.76909  1.0000
  H   H49       1.0  0.91410  0.61700  0.26480  1.0000
  H   H50       1.0  0.41410  0.11700  0.26480  1.0000
  H   H51       1.0  0.08590  0.61700  0.23520  1.0000
  H   H52       1.0  0.58590  0.11700  0.23520  1.0000
  H   H53       1.0  0.08590  0.38300  0.73520  1.0000
  H   H54       1.0  0.58590  0.88300  0.73520  1.0000
  H   H55       1.0  0.91410  0.38300  0.76480  1.0000
  H   H56       1.0  0.41410  0.88300  0.76480  1.0000
  C   C121      1.0  0.86056  0.52690  0.23573  1.0000
  C   C122      1.0  0.36056  0.02690  0.23573  1.0000
  C   C123      1.0  0.13944  0.52690  0.26427  1.0000
  C   C124      1.0  0.63944  0.02690  0.26427  1.0000
  C   C125      1.0  0.13944  0.47310  0.76427  1.0000
  C   C126      1.0  0.63944  0.97310  0.76427  1.0000
  C   C127      1.0  0.86056  0.47310  0.73573  1.0000
  C   C128      1.0  0.36056  0.97310  0.73573  1.0000
  H   H57       1.0  0.82290  0.54870  0.20880  1.0000
  H   H58       1.0  0.32290  0.04870  0.20880  1.0000
  H   H59       1.0  0.17710  0.54870  0.29120  1.0000
  H   H60       1.0  0.67710  0.04870  0.29120  1.0000
  H   H61       1.0  0.17710  0.45130  0.79120  1.0000
  H   H62       1.0  0.67710  0.95130  0.79120  1.0000
  H   H63       1.0  0.82290  0.45130  0.70880  1.0000
  H   H64       1.0  0.32290  0.95130  0.70880  1.0000
  C   C129      1.0  0.03308  0.58096  0.34430  1.0000
  C   C130      1.0  0.53308  0.08096  0.34430  1.0000
  C   C131      1.0  0.96692  0.58096  0.15570  1.0000
  C   C132      1.0  0.46692  0.08096  0.15570  1.0000
  C   C133      1.0  0.96692  0.41904  0.65570  1.0000
  C   C134      1.0  0.46692  0.91904  0.65570  1.0000
  C   C135      1.0  0.03308  0.41904  0.84430  1.0000
  C   C136      1.0  0.53308  0.91904  0.84430  1.0000
  C   C137      1.0  0.71846  0.41154  0.49577  1.0000
  C   C138      1.0  0.21846  0.91154  0.49577  1.0000
  C   C139      1.0  0.28154  0.41154  0.00423  1.0000
  C   C140      1.0  0.78154  0.91154  0.00423  1.0000
  C   C141      1.0  0.28154  0.58846  0.50423  1.0000
  C   C142      1.0  0.78154  0.08846  0.50423  1.0000
  C   C143      1.0  0.71846  0.58846  0.99577  1.0000
  C   C144      1.0  0.21846  0.08846  0.99577  1.0000
  C   C145      1.0  0.66239  0.46470  0.46732  1.0000
  C   C146      1.0  0.16239  0.96470  0.46732  1.0000
  C   C147      1.0  0.33761  0.46470  0.03268  1.0000
  C   C148      1.0  0.83761  0.96470  0.03268  1.0000
  C   C149      1.0  0.33761  0.53530  0.53268  1.0000
  C   C150      1.0  0.83761  0.03530  0.53268  1.0000
  C   C151      1.0  0.66239  0.53530  0.96732  1.0000
  C   C152      1.0  0.16239  0.03530  0.96732  1.0000
  C   C153      1.0  0.66103  0.53197  0.48969  1.0000
  C   C154      1.0  0.16103  0.03197  0.48969  1.0000
  C   C155      1.0  0.33897  0.53197  0.01031  1.0000
  C   C156      1.0  0.83897  0.03197  0.01031  1.0000
  C   C157      1.0  0.33897  0.46803  0.51031  1.0000
  C   C158      1.0  0.83897  0.96803  0.51031  1.0000
  C   C159      1.0  0.66103  0.46803  0.98969  1.0000
  C   C160      1.0  0.16103  0.96803  0.98969  1.0000
  H   H65       1.0  0.69480  0.54430  0.52360  1.0000
  H   H66       1.0  0.19480  0.04430  0.52360  1.0000
  H   H67       1.0  0.30520  0.54430  0.97640  1.0000
  H   H68       1.0  0.80520  0.04430  0.97640  1.0000
  H   H69       1.0  0.30520  0.45570  0.47640  1.0000
  H   H70       1.0  0.80520  0.95570  0.47640  1.0000
  H   H71       1.0  0.69480  0.45570  0.02360  1.0000
  H   H72       1.0  0.19480  0.95570  0.02360  1.0000
  C   C161      1.0  0.60980  0.58100  0.46197  1.0000
  C   C162      1.0  0.10980  0.08100  0.46197  1.0000
  C   C163      1.0  0.39020  0.58100  0.03803  1.0000
  C   C164      1.0  0.89020  0.08100  0.03803  1.0000
  C   C165      1.0  0.39020  0.41900  0.53803  1.0000
  C   C166      1.0  0.89020  0.91900  0.53803  1.0000
  C   C167      1.0  0.60980  0.41900  0.96197  1.0000
  C   C168      1.0  0.10980  0.91900  0.96197  1.0000
  H   H73       1.0  0.60940  0.62590  0.47750  1.0000
  H   H74       1.0  0.10940  0.12590  0.47750  1.0000
  H   H75       1.0  0.39060  0.62590  0.02250  1.0000
  H   H76       1.0  0.89060  0.12590  0.02250  1.0000
  H   H77       1.0  0.39060  0.37410  0.52250  1.0000
  H   H78       1.0  0.89060  0.87410  0.52250  1.0000
  H   H79       1.0  0.60940  0.37410  0.97750  1.0000
  H   H80       1.0  0.10940  0.87410  0.97750  1.0000
  C   C169      1.0  0.55892  0.56370  0.41119  1.0000
  C   C170      1.0  0.05892  0.06370  0.41119  1.0000
  C   C171      1.0  0.44108  0.56370  0.08881  1.0000
  C   C172      1.0  0.94108  0.06370  0.08881  1.0000
  C   C173      1.0  0.44108  0.43630  0.58881  1.0000
  C   C174      1.0  0.94108  0.93630  0.58881  1.0000
  C   C175      1.0  0.55892  0.43630  0.91119  1.0000
  C   C176      1.0  0.05892  0.93630  0.91119  1.0000
  C   C177      1.0  0.56000  0.49531  0.38972  1.0000
  C   C178      1.0  0.06000  0.99531  0.38972  1.0000
  C   C179      1.0  0.44000  0.49531  0.11028  1.0000
  C   C180      1.0  0.94000  0.99531  0.11028  1.0000
  C   C181      1.0  0.44000  0.50469  0.61028  1.0000
  C   C182      1.0  0.94000  0.00469  0.61028  1.0000
  C   C183      1.0  0.56000  0.50469  0.88972  1.0000
  C   C184      1.0  0.06000  0.00469  0.88972  1.0000
  H   H81       1.0  0.52590  0.48230  0.35620  1.0000
  H   H82       1.0  0.02590  0.98230  0.35620  1.0000
  H   H83       1.0  0.47410  0.48230  0.14380  1.0000
  H   H84       1.0  0.97410  0.98230  0.14380  1.0000
  H   H85       1.0  0.47410  0.51770  0.64380  1.0000
  H   H86       1.0  0.97410  0.01770  0.64380  1.0000
  H   H87       1.0  0.52590  0.51770  0.85620  1.0000
  H   H88       1.0  0.02590  0.01770  0.85620  1.0000
  C   C185      1.0  0.61077  0.44689  0.41748  1.0000
  C   C186      1.0  0.11077  0.94689  0.41748  1.0000
  C   C187      1.0  0.38923  0.44689  0.08252  1.0000
  C   C188      1.0  0.88923  0.94689  0.08252  1.0000
  C   C189      1.0  0.38923  0.55311  0.58252  1.0000
  C   C190      1.0  0.88923  0.05311  0.58252  1.0000
  C   C191      1.0  0.61077  0.55311  0.91748  1.0000
  C   C192      1.0  0.11077  0.05311  0.91748  1.0000
  H   H89       1.0  0.61040  0.40150  0.40260  1.0000
  H   H90       1.0  0.11040  0.90150  0.40260  1.0000
  H   H91       1.0  0.38960  0.40150  0.09740  1.0000
  H   H92       1.0  0.88960  0.90150  0.09740  1.0000
  H   H93       1.0  0.38960  0.59850  0.59740  1.0000
  H   H94       1.0  0.88960  0.09850  0.59740  1.0000
  H   H95       1.0  0.61040  0.59850  0.90260  1.0000
  H   H96       1.0  0.11040  0.09850  0.90260  1.0000
  C   C193      1.0  0.50968  0.62220  0.37717  1.0000
  C   C194      1.0  0.00968  0.12220  0.37717  1.0000
  C   C195      1.0  0.49032  0.62220  0.12283  1.0000
  C   C196      1.0  0.99032  0.12220  0.12283  1.0000
  C   C197      1.0  0.49032  0.37780  0.62283  1.0000
  C   C198      1.0  0.99032  0.87780  0.62283  1.0000
  C   C199      1.0  0.50968  0.37780  0.87717  1.0000
  C   C200      1.0  0.00968  0.87780  0.87717  1.0000
  C   C201      1.0  0.55338  0.66104  0.34416  1.0000
  C   C202      1.0  0.05338  0.16104  0.34416  1.0000
  C   C203      1.0  0.44662  0.66104  0.15584  1.0000
  C   C204      1.0  0.94662  0.16104  0.15584  1.0000
  C   C205      1.0  0.44662  0.33896  0.65584  1.0000
  C   C206      1.0  0.94662  0.83896  0.65584  1.0000
  C   C207      1.0  0.55338  0.33896  0.84416  1.0000
  C   C208      1.0  0.05338  0.83896  0.84416  1.0000
  C   C209      1.0  0.44240  0.59158  0.33565  1.0000
  C   C210      1.0  0.94240  0.09158  0.33565  1.0000
  C   C211      1.0  0.55760  0.59158  0.16435  1.0000
  C   C212      1.0  0.05760  0.09158  0.16435  1.0000
  C   C213      1.0  0.55760  0.40842  0.66435  1.0000
  C   C214      1.0  0.05760  0.90842  0.66435  1.0000
  C   C215      1.0  0.44240  0.40842  0.83565  1.0000
  C   C216      1.0  0.94240  0.90842  0.83565  1.0000
  C   C217      1.0  0.48468  0.67503  0.41406  1.0000
  C   C218      1.0  0.98468  0.17503  0.41406  1.0000
  C   C219      1.0  0.51532  0.67503  0.08594  1.0000
  C   C220      1.0  0.01532  0.17503  0.08594  1.0000
  C   C221      1.0  0.51532  0.32497  0.58594  1.0000
  C   C222      1.0  0.01532  0.82497  0.58594  1.0000
  C   C223      1.0  0.48468  0.32497  0.91406  1.0000
  C   C224      1.0  0.98468  0.82497  0.91406  1.0000
  C   C225      1.0  0.47873  0.74778  0.40279  1.0000
  C   C226      1.0  0.97873  0.24778  0.40279  1.0000
  C   C227      1.0  0.52127  0.74778  0.09721  1.0000
  C   C228      1.0  0.02127  0.24778  0.09721  1.0000
  C   C229      1.0  0.52127  0.25222  0.59721  1.0000
  C   C230      1.0  0.02127  0.75222  0.59721  1.0000
  C   C231      1.0  0.47873  0.25222  0.90279  1.0000
  C   C232      1.0  0.97873  0.75222  0.90279  1.0000
  H   H97       1.0  0.49400  0.76630  0.37420  1.0000
  H   H98       1.0  0.99400  0.26630  0.37420  1.0000
  H   H99       1.0  0.50600  0.76630  0.12580  1.0000
  H   H100      1.0  0.00600  0.26630  0.12580  1.0000
  H   H101      1.0  0.50600  0.23370  0.62580  1.0000
  H   H102      1.0  0.00600  0.73370  0.62580  1.0000
  H   H103      1.0  0.49400  0.23370  0.87420  1.0000
  H   H104      1.0  0.99400  0.73370  0.87420  1.0000
  C   C233      1.0  0.45040  0.79260  0.43356  1.0000
  C   C234      1.0  0.95040  0.29260  0.43356  1.0000
  C   C235      1.0  0.54960  0.79260  0.06644  1.0000
  C   C236      1.0  0.04960  0.29260  0.06644  1.0000
  C   C237      1.0  0.54960  0.20740  0.56644  1.0000
  C   C238      1.0  0.04960  0.70740  0.56644  1.0000
  C   C239      1.0  0.45040  0.20740  0.93356  1.0000
  C   C240      1.0  0.95040  0.70740  0.93356  1.0000
  H   H105      1.0  0.44740  0.84110  0.42570  1.0000
  H   H106      1.0  0.94740  0.34110  0.42570  1.0000
  H   H107      1.0  0.55260  0.84110  0.07430  1.0000
  H   H108      1.0  0.05260  0.34110  0.07430  1.0000
  H   H109      1.0  0.55260  0.15890  0.57430  1.0000
  H   H110      1.0  0.05260  0.65890  0.57430  1.0000
  H   H111      1.0  0.44740  0.15890  0.92570  1.0000
  H   H112      1.0  0.94740  0.65890  0.92570  1.0000
  C   C241      1.0  0.42630  0.76681  0.47596  1.0000
  C   C242      1.0  0.92630  0.26681  0.47596  1.0000
  C   C243      1.0  0.57370  0.76681  0.02404  1.0000
  C   C244      1.0  0.07370  0.26681  0.02404  1.0000
  C   C245      1.0  0.57370  0.23319  0.52404  1.0000
  C   C246      1.0  0.07370  0.73319  0.52404  1.0000
  C   C247      1.0  0.42630  0.23319  0.97596  1.0000
  C   C248      1.0  0.92630  0.73319  0.97596  1.0000
  C   C249      1.0  0.43174  0.69445  0.48730  1.0000
  C   C250      1.0  0.93174  0.19445  0.48730  1.0000
  C   C251      1.0  0.56826  0.69445  0.01270  1.0000
  C   C252      1.0  0.06826  0.19445  0.01270  1.0000
  C   C253      1.0  0.56826  0.30555  0.51270  1.0000
  C   C254      1.0  0.06826  0.80555  0.51270  1.0000
  C   C255      1.0  0.43174  0.30555  0.98730  1.0000
  C   C256      1.0  0.93174  0.80555  0.98730  1.0000
  H   H113      1.0  0.41550  0.67600  0.51540  1.0000
  H   H114      1.0  0.91550  0.17600  0.51540  1.0000
  H   H115      1.0  0.58450  0.67600  0.98460  1.0000
  H   H116      1.0  0.08450  0.17600  0.98460  1.0000
  H   H117      1.0  0.58450  0.32400  0.48460  1.0000
  H   H118      1.0  0.08450  0.82400  0.48460  1.0000
  H   H119      1.0  0.41550  0.32400  0.01540  1.0000
  H   H120      1.0  0.91550  0.82400  0.01540  1.0000
  C   C257      1.0  0.46117  0.64938  0.45694  1.0000
  C   C258      1.0  0.96117  0.14938  0.45694  1.0000
  C   C259      1.0  0.53883  0.64938  0.04306  1.0000
  C   C260      1.0  0.03883  0.14938  0.04306  1.0000
  C   C261      1.0  0.53883  0.35062  0.54306  1.0000
  C   C262      1.0  0.03883  0.85062  0.54306  1.0000
  C   C263      1.0  0.46117  0.35062  0.95694  1.0000
  C   C264      1.0  0.96117  0.85062  0.95694  1.0000
  H   H121      1.0  0.46520  0.60100  0.46550  1.0000
  H   H122      1.0  0.96520  0.10100  0.46550  1.0000
  H   H123      1.0  0.53480  0.60100  0.03450  1.0000
  H   H124      1.0  0.03480  0.10100  0.03450  1.0000
  H   H125      1.0  0.53480  0.39900  0.53450  1.0000
  H   H126      1.0  0.03480  0.89900  0.53450  1.0000
  H   H127      1.0  0.46520  0.39900  0.96550  1.0000
  H   H128      1.0  0.96520  0.89900  0.96550  1.0000
  C   C265      1.0  0.39670  0.81684  0.50883  1.0000
  C   C266      1.0  0.89670  0.31684  0.50883  1.0000
  C   C267      1.0  0.60330  0.81684  0.99117  1.0000
  C   C268      1.0  0.10330  0.31684  0.99117  1.0000
  C   C269      1.0  0.60330  0.18316  0.49117  1.0000
  C   C270      1.0  0.10330  0.68316  0.49117  1.0000
  C   C271      1.0  0.39670  0.18316  0.00883  1.0000
  C   C272      1.0  0.89670  0.68316  0.00883  1.0000
  O   O1        1.0  0.40917  0.88167  0.50852  1.0000
  O   O2        1.0  0.90917  0.38167  0.50852  1.0000
  O   O3        1.0  0.59083  0.88167  0.99148  1.0000
  O   O4        1.0  0.09083  0.38167  0.99148  1.0000
  O   O5        1.0  0.59083  0.11833  0.49148  1.0000
  O   O6        1.0  0.09083  0.61833  0.49148  1.0000
  O   O7        1.0  0.40917  0.11833  0.00852  1.0000
  O   O8        1.0  0.90917  0.61833  0.00852  1.0000
  O   O9        1.0  0.35968  0.79126  0.53829  1.0000
  O   O10       1.0  0.85968  0.29126  0.53829  1.0000
  O   O11       1.0  0.64032  0.79126  0.96171  1.0000
  O   O12       1.0  0.14032  0.29126  0.96171  1.0000
  O   O13       1.0  0.64032  0.20874  0.46171  1.0000
  O   O14       1.0  0.14032  0.70874  0.46171  1.0000
  O   O15       1.0  0.35968  0.20874  0.03829  1.0000
  O   O16       1.0  0.85968  0.70874  0.03829  1.0000
  O   O17       1.0  0.69038  0.16901  0.35690  1.0000
  O   O18       1.0  0.19038  0.66901  0.35690  1.0000
  O   O19       1.0  0.30962  0.16901  0.14310  1.0000
  O   O20       1.0  0.80962  0.66901  0.14310  1.0000
  O   O21       1.0  0.30962  0.83099  0.64310  1.0000
  O   O22       1.0  0.80962  0.33099  0.64310  1.0000
  O   O23       1.0  0.69038  0.83099  0.85690  1.0000
  O   O24       1.0  0.19038  0.33099  0.85690  1.0000
  O   O25       1.0  0.76264  0.23763  0.42364  1.0000
  O   O26       1.0  0.26264  0.73763  0.42364  1.0000
  O   O27       1.0  0.23736  0.23763  0.07636  1.0000
  O   O28       1.0  0.73736  0.73763  0.07636  1.0000
  O   O29       1.0  0.23736  0.76237  0.57636  1.0000
  O   O30       1.0  0.73736  0.26237  0.57636  1.0000
  O   O31       1.0  0.76264  0.76237  0.92364  1.0000
  O   O32       1.0  0.26264  0.26237  0.92364  1.0000
  O   O33       1.0  0.03354  0.64711  0.33842  1.0000
  O   O34       1.0  0.53354  0.14711  0.33842  1.0000
  O   O35       1.0  0.96646  0.64711  0.16158  1.0000
  O   O36       1.0  0.46646  0.14711  0.16158  1.0000
  O   O37       1.0  0.96646  0.35289  0.66158  1.0000
  O   O38       1.0  0.46646  0.85289  0.66158  1.0000
  O   O39       1.0  0.03354  0.35289  0.83842  1.0000
  O   O40       1.0  0.53354  0.85289  0.83842  1.0000
  O   O41       1.0  0.08299  0.54920  0.38066  1.0000
  O   O42       1.0  0.58299  0.04920  0.38066  1.0000
  O   O43       1.0  0.91701  0.54920  0.11934  1.0000
  O   O44       1.0  0.41701  0.04920  0.11934  1.0000
  O   O45       1.0  0.91701  0.45080  0.61934  1.0000
  O   O46       1.0  0.41701  0.95080  0.61934  1.0000
  O   O47       1.0  0.08299  0.45080  0.88066  1.0000
  O   O48       1.0  0.58299  0.95080  0.88066  1.0000
  O   O49       1.0  0.71267  0.35031  0.47478  1.0000
  O   O50       1.0  0.21267  0.85031  0.47478  1.0000
  O   O51       1.0  0.28733  0.35031  0.02522  1.0000
  O   O52       1.0  0.78733  0.85031  0.02522  1.0000
  O   O53       1.0  0.28733  0.64969  0.52522  1.0000
  O   O54       1.0  0.78733  0.14969  0.52522  1.0000
  O   O55       1.0  0.71267  0.64969  0.97478  1.0000
  O   O56       1.0  0.21267  0.14969  0.97478  1.0000
  O   O57       1.0  0.76697  0.43313  0.53853  1.0000
  O   O58       1.0  0.26697  0.93313  0.53853  1.0000
  O   O59       1.0  0.23303  0.43313  0.96147  1.0000
  O   O60       1.0  0.73303  0.93313  0.96147  1.0000
  O   O61       1.0  0.23303  0.56687  0.46147  1.0000
  O   O62       1.0  0.73303  0.06687  0.46147  1.0000
  O   O63       1.0  0.76697  0.56687  0.03853  1.0000
  O   O64       1.0  0.26697  0.06687  0.03853  1.0000
  Co  Co1       1.0  0.75000  0.25000  0.50000  1.0000
  Co  Co2       1.0  0.25000  0.75000  0.50000  1.0000
  Co  Co3       1.0  0.25000  0.25000  0.00000  1.0000
  Co  Co4       1.0  0.75000  0.75000  0.00000  1.0000
  Co  Co5       1.0  0.34641  0.87546  0.58488  1.0000
  Co  Co6       1.0  0.84641  0.37546  0.58488  1.0000
  Co  Co7       1.0  0.65359  0.87546  0.91512  1.0000
  Co  Co8       1.0  0.15359  0.37546  0.91512  1.0000
  Co  Co9       1.0  0.65359  0.12454  0.41512  1.0000
  Co  Co10      1.0  0.15359  0.62454  0.41512  1.0000
  Co  Co11      1.0  0.34641  0.12454  0.08488  1.0000
  Co  Co12      1.0  0.84641  0.62454  0.08488  1.0000
  F   F1        1.0  0.71369  0.48792  0.21595  1.0000
  F   F2        1.0  0.21369  0.98792  0.21595  1.0000
  F   F3        1.0  0.28631  0.48792  0.28405  1.0000
  F   F4        1.0  0.78631  0.98792  0.28405  1.0000
  F   F5        1.0  0.28631  0.51208  0.78405  1.0000
  F   F6        1.0  0.78631  0.01208  0.78405  1.0000
  F   F7        1.0  0.71369  0.51208  0.71595  1.0000
  F   F8        1.0  0.21369  0.01208  0.71595  1.0000
  F   F9        1.0  0.67712  0.40308  0.15633  1.0000
  F   F10       1.0  0.17712  0.90308  0.15633  1.0000
  F   F11       1.0  0.32288  0.40308  0.34367  1.0000
  F   F12       1.0  0.82288  0.90308  0.34367  1.0000
  F   F13       1.0  0.32288  0.59692  0.84367  1.0000
  F   F14       1.0  0.82288  0.09692  0.84367  1.0000
  F   F15       1.0  0.67712  0.59692  0.65633  1.0000
  F   F16       1.0  0.17712  0.09692  0.65633  1.0000
  F   F17       1.0  0.73794  0.48861  0.13807  1.0000
  F   F18       1.0  0.23794  0.98861  0.13807  1.0000
  F   F19       1.0  0.26206  0.48861  0.36193  1.0000
  F   F20       1.0  0.76206  0.98861  0.36193  1.0000
  F   F21       1.0  0.26206  0.51139  0.86193  1.0000
  F   F22       1.0  0.76206  0.01139  0.86193  1.0000
  F   F23       1.0  0.73794  0.51139  0.63807  1.0000
  F   F24       1.0  0.23794  0.01139  0.63807  1.0000
  F   F25       1.0  0.77268  0.32866  0.12737  1.0000
  F   F26       1.0  0.27268  0.82866  0.12737  1.0000
  F   F27       1.0  0.22732  0.32866  0.37263  1.0000
  F   F28       1.0  0.72732  0.82866  0.37263  1.0000
  F   F29       1.0  0.22732  0.67134  0.87263  1.0000
  F   F30       1.0  0.72732  0.17134  0.87263  1.0000
  F   F31       1.0  0.77268  0.67134  0.62737  1.0000
  F   F32       1.0  0.27268  0.17134  0.62737  1.0000
  F   F33       1.0  0.84786  0.41214  0.13330  1.0000
  F   F34       1.0  0.34786  0.91214  0.13330  1.0000
  F   F35       1.0  0.15214  0.41214  0.36670  1.0000
  F   F36       1.0  0.65214  0.91214  0.36670  1.0000
  F   F37       1.0  0.15214  0.58786  0.86670  1.0000
  F   F38       1.0  0.65214  0.08786  0.86670  1.0000
  F   F39       1.0  0.84786  0.58786  0.63330  1.0000
  F   F40       1.0  0.34786  0.08786  0.63330  1.0000
  F   F41       1.0  0.87682  0.32084  0.18722  1.0000
  F   F42       1.0  0.37682  0.82084  0.18722  1.0000
  F   F43       1.0  0.12318  0.32084  0.31278  1.0000
  F   F44       1.0  0.62318  0.82084  0.31278  1.0000
  F   F45       1.0  0.12318  0.67916  0.81278  1.0000
  F   F46       1.0  0.62318  0.17916  0.81278  1.0000
  F   F47       1.0  0.87682  0.67916  0.68722  1.0000
  F   F48       1.0  0.37682  0.17916  0.68722  1.0000
  F   F49       1.0  0.58260  0.61374  0.31780  1.0000
  F   F50       1.0  0.08260  0.11374  0.31780  1.0000
  F   F51       1.0  0.41740  0.61374  0.18220  1.0000
  F   F52       1.0  0.91740  0.11374  0.18220  1.0000
  F   F53       1.0  0.41740  0.38626  0.68220  1.0000
  F   F54       1.0  0.91740  0.88626  0.68220  1.0000
  F   F55       1.0  0.58260  0.38626  0.81780  1.0000
  F   F56       1.0  0.08260  0.88626  0.81780  1.0000
  F   F57       1.0  0.60522  0.69892  0.37823  1.0000
  F   F58       1.0  0.10522  0.19892  0.37823  1.0000
  F   F59       1.0  0.39478  0.69892  0.12177  1.0000
  F   F60       1.0  0.89478  0.19892  0.12177  1.0000
  F   F61       1.0  0.39478  0.30108  0.62177  1.0000
  F   F62       1.0  0.89478  0.80108  0.62177  1.0000
  F   F63       1.0  0.60522  0.30108  0.87823  1.0000
  F   F64       1.0  0.10522  0.80108  0.87823  1.0000
  F   F65       1.0  0.51356  0.70367  0.30403  1.0000
  F   F66       1.0  0.01356  0.20367  0.30403  1.0000
  F   F67       1.0  0.48644  0.70367  0.19597  1.0000
  F   F68       1.0  0.98644  0.20367  0.19597  1.0000
  F   F69       1.0  0.48644  0.29633  0.69597  1.0000
  F   F70       1.0  0.98644  0.79633  0.69597  1.0000
  F   F71       1.0  0.51356  0.29633  0.80403  1.0000
  F   F72       1.0  0.01356  0.79633  0.80403  1.0000
  F   F73       1.0  0.45240  0.55599  0.29249  1.0000
  F   F74       1.0  0.95240  0.05599  0.29249  1.0000
  F   F75       1.0  0.54760  0.55599  0.20751  1.0000
  F   F76       1.0  0.04760  0.05599  0.20751  1.0000
  F   F77       1.0  0.54760  0.44401  0.70751  1.0000
  F   F78       1.0  0.04760  0.94401  0.70751  1.0000
  F   F79       1.0  0.45240  0.44401  0.79249  1.0000
  F   F80       1.0  0.95240  0.94401  0.79249  1.0000
  F   F81       1.0  0.41204  0.54556  0.36190  1.0000
  F   F82       1.0  0.91204  0.04556  0.36190  1.0000
  F   F83       1.0  0.58796  0.54556  0.13810  1.0000
  F   F84       1.0  0.08796  0.04556  0.13810  1.0000
  F   F85       1.0  0.58796  0.45444  0.63810  1.0000
  F   F86       1.0  0.08796  0.95444  0.63810  1.0000
  F   F87       1.0  0.41204  0.45444  0.86190  1.0000
  F   F88       1.0  0.91204  0.95444  0.86190  1.0000
  F   F89       1.0  0.39439  0.64181  0.31318  1.0000
  F   F90       1.0  0.89439  0.14181  0.31318  1.0000
  F   F91       1.0  0.60561  0.64181  0.18682  1.0000
  F   F92       1.0  0.10561  0.14181  0.18682  1.0000
  F   F93       1.0  0.60561  0.35819  0.68682  1.0000
  F   F94       1.0  0.10561  0.85819  0.68682  1.0000
  F   F95       1.0  0.39439  0.35819  0.81318  1.0000
  F   F96       1.0  0.89439  0.85819  0.81318  1.0000
