data_image0
_chemical_formula_structural       C24H8C8H8C16H8C8H8C40H8C8H8C16H8C8H8C32H8C8H8C16H8C8H8C32H8C16H8C8H8C16H8C8O64Mn12F96
_chemical_formula_sum              "C272 H128 O64 Mn12 F96"
_cell_length_a       20.159
_cell_length_b       18.84
_cell_length_c       21.336
_cell_angle_alpha    90
_cell_angle_beta     92.694
_cell_angle_gamma    90

_space_group_name_H-M_alt    "P 1"
_space_group_IT_number       1

loop_
  _space_group_symop_operation_xyz
  'x, y, z'

loop_
  _atom_site_type_symbol
  _atom_site_label
  _atom_site_symmetry_multiplicity
  _atom_site_fract_x
  _atom_site_fract_y
  _atom_site_fract_z
  _atom_site_occupancy
  C   C1        1.0  0.04507  0.88618  0.82842  1.0000
  C   C2        1.0  0.54507  0.38618  0.82842  1.0000
  C   C3        1.0  0.95493  0.88618  0.67158  1.0000
  C   C4        1.0  0.45493  0.38618  0.67158  1.0000
  C   C5        1.0  0.95493  0.11382  0.17158  1.0000
  C   C6        1.0  0.45493  0.61382  0.17158  1.0000
  C   C7        1.0  0.04507  0.11382  0.32842  1.0000
  C   C8        1.0  0.54507  0.61382  0.32842  1.0000
  C   C9        1.0  0.07251  0.82893  0.78844  1.0000
  C   C10       1.0  0.57251  0.32893  0.78844  1.0000
  C   C11       1.0  0.92749  0.82893  0.71156  1.0000
  C   C12       1.0  0.42749  0.32893  0.71156  1.0000
  C   C13       1.0  0.92749  0.17107  0.21156  1.0000
  C   C14       1.0  0.42749  0.67107  0.21156  1.0000
  C   C15       1.0  0.07251  0.17107  0.28844  1.0000
  C   C16       1.0  0.57251  0.67107  0.28844  1.0000
  C   C17       1.0  0.10269  0.84599  0.73380  1.0000
  C   C18       1.0  0.60269  0.34599  0.73380  1.0000
  C   C19       1.0  0.89731  0.84599  0.76620  1.0000
  C   C20       1.0  0.39731  0.34599  0.76620  1.0000
  C   C21       1.0  0.89731  0.15401  0.26620  1.0000
  C   C22       1.0  0.39731  0.65401  0.26620  1.0000
  C   C23       1.0  0.10269  0.15401  0.23380  1.0000
  C   C24       1.0  0.60269  0.65401  0.23380  1.0000
  H   H1        1.0  0.10450  0.89310  0.72100  1.0000
  H   H2        1.0  0.60450  0.39310  0.72100  1.0000
  H   H3        1.0  0.89550  0.89310  0.77900  1.0000
  H   H4        1.0  0.39550  0.39310  0.77900  1.0000
  H   H5        1.0  0.89550  0.10690  0.27900  1.0000
  H   H6        1.0  0.39550  0.60690  0.27900  1.0000
  H   H7        1.0  0.10450  0.10690  0.22100  1.0000
  H   H8        1.0  0.60450  0.60690  0.22100  1.0000
  C   C25       1.0  0.13045  0.79337  0.69761  1.0000
  C   C26       1.0  0.63045  0.29337  0.69761  1.0000
  C   C27       1.0  0.86955  0.79337  0.80239  1.0000
  C   C28       1.0  0.36955  0.29337  0.80239  1.0000
  C   C29       1.0  0.86955  0.20663  0.30239  1.0000
  C   C30       1.0  0.36955  0.70663  0.30239  1.0000
  C   C31       1.0  0.13045  0.20663  0.19761  1.0000
  C   C32       1.0  0.63045  0.70663  0.19761  1.0000
  H   H9        1.0  0.15010  0.80560  0.66050  1.0000
  H   H10       1.0  0.65010  0.30560  0.66050  1.0000
  H   H11       1.0  0.84990  0.80560  0.83950  1.0000
  H   H12       1.0  0.34990  0.30560  0.83950  1.0000
  H   H13       1.0  0.84990  0.19440  0.33950  1.0000
  H   H14       1.0  0.34990  0.69440  0.33950  1.0000
  H   H15       1.0  0.15010  0.19440  0.16050  1.0000
  H   H16       1.0  0.65010  0.69440  0.16050  1.0000
  C   C33       1.0  0.12922  0.72286  0.71621  1.0000
  C   C34       1.0  0.62922  0.22286  0.71621  1.0000
  C   C35       1.0  0.87078  0.72286  0.78379  1.0000
  C   C36       1.0  0.37078  0.22286  0.78379  1.0000
  C   C37       1.0  0.87078  0.27714  0.28379  1.0000
  C   C38       1.0  0.37078  0.77714  0.28379  1.0000
  C   C39       1.0  0.12922  0.27714  0.21621  1.0000
  C   C40       1.0  0.62922  0.77714  0.21621  1.0000
  C   C41       1.0  0.09636  0.70619  0.76982  1.0000
  C   C42       1.0  0.59636  0.20619  0.76982  1.0000
  C   C43       1.0  0.90364  0.70619  0.73018  1.0000
  C   C44       1.0  0.40364  0.20619  0.73018  1.0000
  C   C45       1.0  0.90364  0.29381  0.23018  1.0000
  C   C46       1.0  0.40364  0.79381  0.23018  1.0000
  C   C47       1.0  0.09636  0.29381  0.26982  1.0000
  C   C48       1.0  0.59636  0.79381  0.26982  1.0000
  H   H17       1.0  0.09350  0.65900  0.78220  1.0000
  H   H18       1.0  0.59350  0.15900  0.78220  1.0000
  H   H19       1.0  0.90650  0.65900  0.71780  1.0000
  H   H20       1.0  0.40650  0.15900  0.71780  1.0000
  H   H21       1.0  0.90650  0.34100  0.21780  1.0000
  H   H22       1.0  0.40650  0.84100  0.21780  1.0000
  H   H23       1.0  0.09350  0.34100  0.28220  1.0000
  H   H24       1.0  0.59350  0.84100  0.28220  1.0000
  C   C49       1.0  0.06780  0.75794  0.80526  1.0000
  C   C50       1.0  0.56780  0.25794  0.80526  1.0000
  C   C51       1.0  0.93220  0.75794  0.69474  1.0000
  C   C52       1.0  0.43220  0.25794  0.69474  1.0000
  C   C53       1.0  0.93220  0.24206  0.19474  1.0000
  C   C54       1.0  0.43220  0.74206  0.19474  1.0000
  C   C55       1.0  0.06780  0.24206  0.30526  1.0000
  C   C56       1.0  0.56780  0.74206  0.30526  1.0000
  H   H25       1.0  0.04530  0.74530  0.84060  1.0000
  H   H26       1.0  0.54530  0.24530  0.84060  1.0000
  H   H27       1.0  0.95470  0.74530  0.65940  1.0000
  H   H28       1.0  0.45470  0.24530  0.65940  1.0000
  H   H29       1.0  0.95470  0.25470  0.15940  1.0000
  H   H30       1.0  0.45470  0.75470  0.15940  1.0000
  H   H31       1.0  0.04530  0.25470  0.34060  1.0000
  H   H32       1.0  0.54530  0.75470  0.34060  1.0000
  C   C57       1.0  0.16736  0.66381  0.68191  1.0000
  C   C58       1.0  0.66736  0.16381  0.68191  1.0000
  C   C59       1.0  0.83264  0.66381  0.81809  1.0000
  C   C60       1.0  0.33264  0.16381  0.81809  1.0000
  C   C61       1.0  0.83264  0.33619  0.31809  1.0000
  C   C62       1.0  0.33264  0.83619  0.31809  1.0000
  C   C63       1.0  0.16736  0.33619  0.18191  1.0000
  C   C64       1.0  0.66736  0.83619  0.18191  1.0000
  C   C65       1.0  0.20201  0.69260  0.62445  1.0000
  C   C66       1.0  0.70201  0.19260  0.62445  1.0000
  C   C67       1.0  0.79799  0.69260  0.87555  1.0000
  C   C68       1.0  0.29799  0.19260  0.87555  1.0000
  C   C69       1.0  0.79799  0.30740  0.37555  1.0000
  C   C70       1.0  0.29799  0.80740  0.37555  1.0000
  C   C71       1.0  0.20201  0.30740  0.12445  1.0000
  C   C72       1.0  0.70201  0.80740  0.12445  1.0000
  C   C73       1.0  0.11606  0.60680  0.65904  1.0000
  C   C74       1.0  0.61606  0.10680  0.65904  1.0000
  C   C75       1.0  0.88394  0.60680  0.84096  1.0000
  C   C76       1.0  0.38394  0.10680  0.84096  1.0000
  C   C77       1.0  0.88394  0.39320  0.34096  1.0000
  C   C78       1.0  0.38394  0.89320  0.34096  1.0000
  C   C79       1.0  0.11606  0.39320  0.15904  1.0000
  C   C80       1.0  0.61606  0.89320  0.15904  1.0000
  C   C81       1.0  0.22320  0.63261  0.72682  1.0000
  C   C82       1.0  0.72320  0.13261  0.72682  1.0000
  C   C83       1.0  0.77680  0.63261  0.77318  1.0000
  C   C84       1.0  0.27680  0.13261  0.77318  1.0000
  C   C85       1.0  0.77680  0.36739  0.27318  1.0000
  C   C86       1.0  0.27680  0.86739  0.27318  1.0000
  C   C87       1.0  0.22320  0.36739  0.22682  1.0000
  C   C88       1.0  0.72320  0.86739  0.22682  1.0000
  C   C89       1.0  0.24584  0.67206  0.77825  1.0000
  C   C90       1.0  0.74584  0.17206  0.77825  1.0000
  C   C91       1.0  0.75416  0.67206  0.72175  1.0000
  C   C92       1.0  0.25416  0.17206  0.72175  1.0000
  C   C93       1.0  0.75416  0.32794  0.22175  1.0000
  C   C94       1.0  0.25416  0.82794  0.22175  1.0000
  C   C95       1.0  0.24584  0.32794  0.27825  1.0000
  C   C96       1.0  0.74584  0.82794  0.27825  1.0000
  H   H33       1.0  0.22570  0.71520  0.78680  1.0000
  H   H34       1.0  0.72570  0.21520  0.78680  1.0000
  H   H35       1.0  0.77430  0.71520  0.71320  1.0000
  H   H36       1.0  0.27430  0.21520  0.71320  1.0000
  H   H37       1.0  0.77430  0.28480  0.21320  1.0000
  H   H38       1.0  0.27430  0.78480  0.21320  1.0000
  H   H39       1.0  0.22570  0.28480  0.28680  1.0000
  H   H40       1.0  0.72570  0.78480  0.28680  1.0000
  C   C97       1.0  0.29787  0.64820  0.81697  1.0000
  C   C98       1.0  0.79787  0.14820  0.81697  1.0000
  C   C99       1.0  0.70213  0.64820  0.68303  1.0000
  C   C100      1.0  0.20213  0.14820  0.68303  1.0000
  C   C101      1.0  0.70213  0.35180  0.18303  1.0000
  C   C102      1.0  0.20213  0.85180  0.18303  1.0000
  C   C103      1.0  0.29787  0.35180  0.31697  1.0000
  C   C104      1.0  0.79787  0.85180  0.31697  1.0000
  H   H41       1.0  0.31120  0.67460  0.85220  1.0000
  H   H42       1.0  0.81120  0.17460  0.85220  1.0000
  H   H43       1.0  0.68880  0.67460  0.64780  1.0000
  H   H44       1.0  0.18880  0.17460  0.64780  1.0000
  H   H45       1.0  0.68880  0.32540  0.14780  1.0000
  H   H46       1.0  0.18880  0.82540  0.14780  1.0000
  H   H47       1.0  0.31120  0.32540  0.35220  1.0000
  H   H48       1.0  0.81120  0.82540  0.35220  1.0000
  C   C105      1.0  0.33066  0.58555  0.80412  1.0000
  C   C106      1.0  0.83066  0.08555  0.80412  1.0000
  C   C107      1.0  0.66934  0.58555  0.69588  1.0000
  C   C108      1.0  0.16934  0.08555  0.69588  1.0000
  C   C109      1.0  0.66934  0.41445  0.19588  1.0000
  C   C110      1.0  0.16934  0.91445  0.19588  1.0000
  C   C111      1.0  0.33066  0.41445  0.30412  1.0000
  C   C112      1.0  0.83066  0.91445  0.30412  1.0000
  C   C113      1.0  0.30879  0.54666  0.75241  1.0000
  C   C114      1.0  0.80879  0.04666  0.75241  1.0000
  C   C115      1.0  0.69121  0.54666  0.74759  1.0000
  C   C116      1.0  0.19121  0.04666  0.74759  1.0000
  C   C117      1.0  0.69121  0.45334  0.24759  1.0000
  C   C118      1.0  0.19121  0.95334  0.24759  1.0000
  C   C119      1.0  0.30879  0.45334  0.25241  1.0000
  C   C120      1.0  0.80879  0.95334  0.25241  1.0000
  H   H49       1.0  0.33040  0.50460  0.74300  1.0000
  H   H50       1.0  0.83040  0.00460  0.74300  1.0000
  H   H51       1.0  0.66960  0.50460  0.75700  1.0000
  H   H52       1.0  0.16960  0.00460  0.75700  1.0000
  H   H53       1.0  0.66960  0.49540  0.25700  1.0000
  H   H54       1.0  0.16960  0.99540  0.25700  1.0000
  H   H55       1.0  0.33040  0.49540  0.24300  1.0000
  H   H56       1.0  0.83040  0.99540  0.24300  1.0000
  C   C121      1.0  0.25516  0.56903  0.71416  1.0000
  C   C122      1.0  0.75516  0.06903  0.71416  1.0000
  C   C123      1.0  0.74484  0.56903  0.78584  1.0000
  C   C124      1.0  0.24484  0.06903  0.78584  1.0000
  C   C125      1.0  0.74484  0.43097  0.28584  1.0000
  C   C126      1.0  0.24484  0.93097  0.28584  1.0000
  C   C127      1.0  0.25516  0.43097  0.21416  1.0000
  C   C128      1.0  0.75516  0.93097  0.21416  1.0000
  H   H57       1.0  0.24060  0.54150  0.68000  1.0000
  H   H58       1.0  0.74060  0.04150  0.68000  1.0000
  H   H59       1.0  0.75940  0.54150  0.82000  1.0000
  H   H60       1.0  0.25940  0.04150  0.82000  1.0000
  H   H61       1.0  0.75940  0.45850  0.32000  1.0000
  H   H62       1.0  0.25940  0.95850  0.32000  1.0000
  H   H63       1.0  0.24060  0.45850  0.18000  1.0000
  H   H64       1.0  0.74060  0.95850  0.18000  1.0000
  C   C129      1.0  0.38881  0.56483  0.84694  1.0000
  C   C130      1.0  0.88881  0.06483  0.84694  1.0000
  C   C131      1.0  0.61119  0.56483  0.65306  1.0000
  C   C132      1.0  0.11119  0.06483  0.65306  1.0000
  C   C133      1.0  0.61119  0.43517  0.15306  1.0000
  C   C134      1.0  0.11119  0.93517  0.15306  1.0000
  C   C135      1.0  0.38881  0.43517  0.34694  1.0000
  C   C136      1.0  0.88881  0.93517  0.34694  1.0000
  C   C137      1.0  0.93900  0.13340  0.64969  1.0000
  C   C138      1.0  0.43900  0.63340  0.64969  1.0000
  C   C139      1.0  0.06100  0.13340  0.85031  1.0000
  C   C140      1.0  0.56100  0.63340  0.85031  1.0000
  C   C141      1.0  0.06100  0.86660  0.35031  1.0000
  C   C142      1.0  0.56100  0.36660  0.35031  1.0000
  C   C143      1.0  0.93900  0.86660  0.14969  1.0000
  C   C144      1.0  0.43900  0.36660  0.14969  1.0000
  C   C145      1.0  0.91574  0.20908  0.64090  1.0000
  C   C146      1.0  0.41574  0.70908  0.64090  1.0000
  C   C147      1.0  0.08426  0.20908  0.85910  1.0000
  C   C148      1.0  0.58426  0.70908  0.85910  1.0000
  C   C149      1.0  0.08426  0.79092  0.35910  1.0000
  C   C150      1.0  0.58426  0.29092  0.35910  1.0000
  C   C151      1.0  0.91574  0.79092  0.14090  1.0000
  C   C152      1.0  0.41574  0.29092  0.14090  1.0000
  C   C153      1.0  0.92543  0.25724  0.68913  1.0000
  C   C154      1.0  0.42543  0.75724  0.68913  1.0000
  C   C155      1.0  0.07457  0.25724  0.81087  1.0000
  C   C156      1.0  0.57457  0.75724  0.81087  1.0000
  C   C157      1.0  0.07457  0.74276  0.31087  1.0000
  C   C158      1.0  0.57457  0.24276  0.31087  1.0000
  C   C159      1.0  0.92543  0.74276  0.18913  1.0000
  C   C160      1.0  0.42543  0.24276  0.18913  1.0000
  H   H65       1.0  0.94070  0.24130  0.72850  1.0000
  H   H66       1.0  0.44070  0.74130  0.72850  1.0000
  H   H67       1.0  0.05930  0.24130  0.77150  1.0000
  H   H68       1.0  0.55930  0.74130  0.77150  1.0000
  H   H69       1.0  0.05930  0.75870  0.27150  1.0000
  H   H70       1.0  0.55930  0.25870  0.27150  1.0000
  H   H71       1.0  0.94070  0.75870  0.22850  1.0000
  H   H72       1.0  0.44070  0.25870  0.22850  1.0000
  C   C161      1.0  0.91280  0.32956  0.68007  1.0000
  C   C162      1.0  0.41280  0.82956  0.68007  1.0000
  C   C163      1.0  0.08720  0.32956  0.81993  1.0000
  C   C164      1.0  0.58720  0.82956  0.81993  1.0000
  C   C165      1.0  0.08720  0.67044  0.31993  1.0000
  C   C166      1.0  0.58720  0.17044  0.31993  1.0000
  C   C167      1.0  0.91280  0.67044  0.18007  1.0000
  C   C168      1.0  0.41280  0.17044  0.18007  1.0000
  H   H73       1.0  0.92160  0.36140  0.71270  1.0000
  H   H74       1.0  0.42160  0.86140  0.71270  1.0000
  H   H75       1.0  0.07840  0.36140  0.78730  1.0000
  H   H76       1.0  0.57840  0.86140  0.78730  1.0000
  H   H77       1.0  0.07840  0.63860  0.28730  1.0000
  H   H78       1.0  0.57840  0.13860  0.28730  1.0000
  H   H79       1.0  0.92160  0.63860  0.21270  1.0000
  H   H80       1.0  0.42160  0.13860  0.21270  1.0000
  C   C169      1.0  0.88709  0.35402  0.62231  1.0000
  C   C170      1.0  0.38709  0.85402  0.62231  1.0000
  C   C171      1.0  0.11291  0.35402  0.87769  1.0000
  C   C172      1.0  0.61291  0.85402  0.87769  1.0000
  C   C173      1.0  0.11291  0.64598  0.37769  1.0000
  C   C174      1.0  0.61291  0.14598  0.37769  1.0000
  C   C175      1.0  0.88709  0.64598  0.12231  1.0000
  C   C176      1.0  0.38709  0.14598  0.12231  1.0000
  C   C177      1.0  0.87388  0.30449  0.57451  1.0000
  C   C178      1.0  0.37388  0.80449  0.57451  1.0000
  C   C179      1.0  0.12612  0.30449  0.92549  1.0000
  C   C180      1.0  0.62612  0.80449  0.92549  1.0000
  C   C181      1.0  0.12612  0.69551  0.42549  1.0000
  C   C182      1.0  0.62612  0.19551  0.42549  1.0000
  C   C183      1.0  0.87388  0.69551  0.07451  1.0000
  C   C184      1.0  0.37388  0.19551  0.07451  1.0000
  H   H81       1.0  0.85490  0.31950  0.53620  1.0000
  H   H82       1.0  0.35490  0.81950  0.53620  1.0000
  H   H83       1.0  0.14510  0.31950  0.96380  1.0000
  H   H84       1.0  0.64510  0.81950  0.96380  1.0000
  H   H85       1.0  0.14510  0.68050  0.46380  1.0000
  H   H86       1.0  0.64510  0.18050  0.46380  1.0000
  H   H87       1.0  0.85490  0.68050  0.03620  1.0000
  H   H88       1.0  0.35490  0.18050  0.03620  1.0000
  C   C185      1.0  0.88885  0.23321  0.58368  1.0000
  C   C186      1.0  0.38885  0.73321  0.58368  1.0000
  C   C187      1.0  0.11115  0.23321  0.91632  1.0000
  C   C188      1.0  0.61115  0.73321  0.91632  1.0000
  C   C189      1.0  0.11115  0.76679  0.41632  1.0000
  C   C190      1.0  0.61115  0.26679  0.41632  1.0000
  C   C191      1.0  0.88885  0.76679  0.08368  1.0000
  C   C192      1.0  0.38885  0.26679  0.08368  1.0000
  H   H89       1.0  0.88080  0.20120  0.55100  1.0000
  H   H90       1.0  0.38080  0.70120  0.55100  1.0000
  H   H91       1.0  0.11920  0.20120  0.94900  1.0000
  H   H92       1.0  0.61920  0.70120  0.94900  1.0000
  H   H93       1.0  0.11920  0.79880  0.44900  1.0000
  H   H94       1.0  0.61920  0.29880  0.44900  1.0000
  H   H95       1.0  0.88080  0.79880  0.05100  1.0000
  H   H96       1.0  0.38080  0.29880  0.05100  1.0000
  C   C193      1.0  0.87526  0.43328  0.60667  1.0000
  C   C194      1.0  0.37526  0.93328  0.60667  1.0000
  C   C195      1.0  0.12474  0.43328  0.89333  1.0000
  C   C196      1.0  0.62474  0.93328  0.89333  1.0000
  C   C197      1.0  0.12474  0.56672  0.39333  1.0000
  C   C198      1.0  0.62474  0.06672  0.39333  1.0000
  C   C199      1.0  0.87526  0.56672  0.10667  1.0000
  C   C200      1.0  0.37526  0.06672  0.10667  1.0000
  C   C201      1.0  0.87820  0.48073  0.66570  1.0000
  C   C202      1.0  0.37820  0.98073  0.66570  1.0000
  C   C203      1.0  0.12180  0.48073  0.83430  1.0000
  C   C204      1.0  0.62180  0.98073  0.83430  1.0000
  C   C205      1.0  0.12180  0.51927  0.33430  1.0000
  C   C206      1.0  0.62180  0.01927  0.33430  1.0000
  C   C207      1.0  0.87820  0.51927  0.16570  1.0000
  C   C208      1.0  0.37820  0.01927  0.16570  1.0000
  C   C209      1.0  0.93224  0.45680  0.56580  1.0000
  C   C210      1.0  0.43224  0.95680  0.56580  1.0000
  C   C211      1.0  0.06776  0.45680  0.93420  1.0000
  C   C212      1.0  0.56776  0.95680  0.93420  1.0000
  C   C213      1.0  0.06776  0.54320  0.43420  1.0000
  C   C214      1.0  0.56776  0.04320  0.43420  1.0000
  C   C215      1.0  0.93224  0.54320  0.06580  1.0000
  C   C216      1.0  0.43224  0.04320  0.06580  1.0000
  C   C217      1.0  0.75178  0.41356  0.60245  1.0000
  C   C218      1.0  0.25178  0.91356  0.60245  1.0000
  C   C219      1.0  0.24822  0.41356  0.89755  1.0000
  C   C220      1.0  0.74822  0.91356  0.89755  1.0000
  C   C221      1.0  0.24822  0.58644  0.39755  1.0000
  C   C222      1.0  0.74822  0.08644  0.39755  1.0000
  C   C223      1.0  0.75178  0.58644  0.10245  1.0000
  C   C224      1.0  0.25178  0.08644  0.10245  1.0000
  H   H97       1.0  0.75890  0.38380  0.63690  1.0000
  H   H98       1.0  0.25890  0.88380  0.63690  1.0000
  H   H99       1.0  0.24110  0.38380  0.86310  1.0000
  H   H100      1.0  0.74110  0.88380  0.86310  1.0000
  H   H101      1.0  0.24110  0.61620  0.36310  1.0000
  H   H102      1.0  0.74110  0.11620  0.36310  1.0000
  H   H103      1.0  0.75890  0.61620  0.13690  1.0000
  H   H104      1.0  0.25890  0.11620  0.13690  1.0000
  C   C225      1.0  0.80590  0.44499  0.57487  1.0000
  C   C226      1.0  0.30590  0.94499  0.57487  1.0000
  C   C227      1.0  0.19410  0.44499  0.92513  1.0000
  C   C228      1.0  0.69410  0.94499  0.92513  1.0000
  C   C229      1.0  0.19410  0.55501  0.42513  1.0000
  C   C230      1.0  0.69410  0.05501  0.42513  1.0000
  C   C231      1.0  0.80590  0.55501  0.07487  1.0000
  C   C232      1.0  0.30590  0.05501  0.07487  1.0000
  C   C233      1.0  0.79379  0.48689  0.52235  1.0000
  C   C234      1.0  0.29379  0.98689  0.52235  1.0000
  C   C235      1.0  0.20621  0.48689  0.97765  1.0000
  C   C236      1.0  0.70621  0.98689  0.97765  1.0000
  C   C237      1.0  0.20621  0.51311  0.47765  1.0000
  C   C238      1.0  0.70621  0.01311  0.47765  1.0000
  C   C239      1.0  0.79379  0.51311  0.02235  1.0000
  C   C240      1.0  0.29379  0.01311  0.02235  1.0000
  H   H105      1.0  0.82930  0.50730  0.50260  1.0000
  H   H106      1.0  0.32930  0.00730  0.50260  1.0000
  H   H107      1.0  0.17070  0.50730  0.99740  1.0000
  H   H108      1.0  0.67070  0.00730  0.99740  1.0000
  H   H109      1.0  0.17070  0.49270  0.49740  1.0000
  H   H110      1.0  0.67070  0.99270  0.49740  1.0000
  H   H111      1.0  0.82930  0.49270  0.00260  1.0000
  H   H112      1.0  0.32930  0.99270  0.00260  1.0000
  C   C241      1.0  0.72943  0.49895  0.49868  1.0000
  C   C242      1.0  0.22943  0.99895  0.49868  1.0000
  C   C243      1.0  0.27057  0.49895  0.00132  1.0000
  C   C244      1.0  0.77057  0.99895  0.00132  1.0000
  C   C245      1.0  0.27057  0.50105  0.50132  1.0000
  C   C246      1.0  0.77057  0.00105  0.50132  1.0000
  C   C247      1.0  0.72943  0.50105  0.99868  1.0000
  C   C248      1.0  0.22943  0.00105  0.99868  1.0000
  H   H113      1.0  0.72230  0.52720  0.46320  1.0000
  H   H114      1.0  0.22230  0.02720  0.46320  1.0000
  H   H115      1.0  0.27770  0.52720  0.03680  1.0000
  H   H116      1.0  0.77770  0.02720  0.03680  1.0000
  H   H117      1.0  0.27770  0.47280  0.53680  1.0000
  H   H118      1.0  0.77770  0.97280  0.53680  1.0000
  H   H119      1.0  0.72230  0.47280  0.96320  1.0000
  H   H120      1.0  0.22230  0.97280  0.96320  1.0000
  C   C249      1.0  0.67584  0.46947  0.52724  1.0000
  C   C250      1.0  0.17584  0.96947  0.52724  1.0000
  C   C251      1.0  0.32416  0.46947  0.97276  1.0000
  C   C252      1.0  0.82416  0.96947  0.97276  1.0000
  C   C253      1.0  0.32416  0.53053  0.47276  1.0000
  C   C254      1.0  0.82416  0.03053  0.47276  1.0000
  C   C255      1.0  0.67584  0.53053  0.02724  1.0000
  C   C256      1.0  0.17584  0.03053  0.02724  1.0000
  C   C257      1.0  0.68798  0.42606  0.57921  1.0000
  C   C258      1.0  0.18798  0.92606  0.57921  1.0000
  C   C259      1.0  0.31202  0.42606  0.92079  1.0000
  C   C260      1.0  0.81202  0.92606  0.92079  1.0000
  C   C261      1.0  0.31202  0.57394  0.42079  1.0000
  C   C262      1.0  0.81202  0.07394  0.42079  1.0000
  C   C263      1.0  0.68798  0.57394  0.07921  1.0000
  C   C264      1.0  0.18798  0.07394  0.07921  1.0000
  H   H121      1.0  0.65250  0.40520  0.59860  1.0000
  H   H122      1.0  0.15250  0.90520  0.59860  1.0000
  H   H123      1.0  0.34750  0.40520  0.90140  1.0000
  H   H124      1.0  0.84750  0.90520  0.90140  1.0000
  H   H125      1.0  0.34750  0.59480  0.40140  1.0000
  H   H126      1.0  0.84750  0.09480  0.40140  1.0000
  H   H127      1.0  0.65250  0.59480  0.09860  1.0000
  H   H128      1.0  0.15250  0.09480  0.09860  1.0000
  C   C265      1.0  0.60591  0.48504  0.50425  1.0000
  C   C266      1.0  0.10591  0.98504  0.50425  1.0000
  C   C267      1.0  0.39409  0.48504  0.99575  1.0000
  C   C268      1.0  0.89409  0.98504  0.99575  1.0000
  C   C269      1.0  0.39409  0.51496  0.49575  1.0000
  C   C270      1.0  0.89409  0.01496  0.49575  1.0000
  C   C271      1.0  0.60591  0.51496  0.00425  1.0000
  C   C272      1.0  0.10591  0.01496  0.00425  1.0000
  O   O1        1.0  0.01799  0.87161  0.87802  1.0000
  O   O2        1.0  0.51799  0.37161  0.87802  1.0000
  O   O3        1.0  0.98201  0.87161  0.62198  1.0000
  O   O4        1.0  0.48201  0.37161  0.62198  1.0000
  O   O5        1.0  0.98201  0.12839  0.12198  1.0000
  O   O6        1.0  0.48201  0.62839  0.12198  1.0000
  O   O7        1.0  0.01799  0.12839  0.37802  1.0000
  O   O8        1.0  0.51799  0.62839  0.37802  1.0000
  O   O9        1.0  0.05155  0.95085  0.81087  1.0000
  O   O10       1.0  0.55155  0.45085  0.81087  1.0000
  O   O11       1.0  0.94845  0.95085  0.68913  1.0000
  O   O12       1.0  0.44845  0.45085  0.68913  1.0000
  O   O13       1.0  0.94845  0.04915  0.18913  1.0000
  O   O14       1.0  0.44845  0.54915  0.18913  1.0000
  O   O15       1.0  0.05155  0.04915  0.31087  1.0000
  O   O16       1.0  0.55155  0.54915  0.31087  1.0000
  O   O17       1.0  0.43033  0.51811  0.82706  1.0000
  O   O18       1.0  0.93033  0.01811  0.82706  1.0000
  O   O19       1.0  0.56967  0.51811  0.67294  1.0000
  O   O20       1.0  0.06967  0.01811  0.67294  1.0000
  O   O21       1.0  0.56967  0.48189  0.17294  1.0000
  O   O22       1.0  0.06967  0.98189  0.17294  1.0000
  O   O23       1.0  0.43033  0.48189  0.32706  1.0000
  O   O24       1.0  0.93033  0.98189  0.32706  1.0000
  O   O25       1.0  0.59696  0.52696  0.45851  1.0000
  O   O26       1.0  0.09696  0.02696  0.45851  1.0000
  O   O27       1.0  0.40304  0.52696  0.04149  1.0000
  O   O28       1.0  0.90304  0.02696  0.04149  1.0000
  O   O29       1.0  0.40304  0.47304  0.54149  1.0000
  O   O30       1.0  0.90304  0.97304  0.54149  1.0000
  O   O31       1.0  0.59696  0.47304  0.95851  1.0000
  O   O32       1.0  0.09696  0.97304  0.95851  1.0000
  O   O33       1.0  0.55927  0.45438  0.53204  1.0000
  O   O34       1.0  0.05927  0.95438  0.53204  1.0000
  O   O35       1.0  0.44073  0.45438  0.96796  1.0000
  O   O36       1.0  0.94073  0.95438  0.96796  1.0000
  O   O37       1.0  0.44073  0.54562  0.46796  1.0000
  O   O38       1.0  0.94073  0.04562  0.46796  1.0000
  O   O39       1.0  0.55927  0.54562  0.03204  1.0000
  O   O40       1.0  0.05927  0.04562  0.03204  1.0000
  O   O41       1.0  0.95238  0.09948  0.60136  1.0000
  O   O42       1.0  0.45238  0.59948  0.60136  1.0000
  O   O43       1.0  0.04762  0.09948  0.89864  1.0000
  O   O44       1.0  0.54762  0.59948  0.89864  1.0000
  O   O45       1.0  0.04762  0.90052  0.39864  1.0000
  O   O46       1.0  0.54762  0.40052  0.39864  1.0000
  O   O47       1.0  0.95238  0.90052  0.10136  1.0000
  O   O48       1.0  0.45238  0.40052  0.10136  1.0000
  O   O49       1.0  0.94528  0.11114  0.70510  1.0000
  O   O50       1.0  0.44528  0.61114  0.70510  1.0000
  O   O51       1.0  0.05472  0.11114  0.79490  1.0000
  O   O52       1.0  0.55472  0.61114  0.79490  1.0000
  O   O53       1.0  0.05472  0.88886  0.29490  1.0000
  O   O54       1.0  0.55472  0.38886  0.29490  1.0000
  O   O55       1.0  0.94528  0.88886  0.20510  1.0000
  O   O56       1.0  0.44528  0.38886  0.20510  1.0000
  O   O57       1.0  0.39501  0.59170  0.89953  1.0000
  O   O58       1.0  0.89501  0.09170  0.89953  1.0000
  O   O59       1.0  0.60499  0.59170  0.60047  1.0000
  O   O60       1.0  0.10499  0.09170  0.60047  1.0000
  O   O61       1.0  0.60499  0.40830  0.10047  1.0000
  O   O62       1.0  0.10499  0.90830  0.10047  1.0000
  O   O63       1.0  0.39501  0.40830  0.39953  1.0000
  O   O64       1.0  0.89501  0.90830  0.39953  1.0000
  Mn  Mn1       1.0  0.00703  0.99376  0.90305  1.0000
  Mn  Mn2       1.0  0.50703  0.49376  0.90305  1.0000
  Mn  Mn3       1.0  0.99297  0.99376  0.59695  1.0000
  Mn  Mn4       1.0  0.49297  0.49376  0.59695  1.0000
  Mn  Mn5       1.0  0.99297  0.00624  0.09695  1.0000
  Mn  Mn6       1.0  0.49297  0.50624  0.09695  1.0000
  Mn  Mn7       1.0  0.00703  0.00624  0.40305  1.0000
  Mn  Mn8       1.0  0.50703  0.50624  0.40305  1.0000
  Mn  Mn9       1.0  0.00000  0.02824  0.75000  1.0000
  Mn  Mn10      1.0  0.50000  0.52824  0.75000  1.0000
  Mn  Mn11      1.0  0.00000  0.97176  0.25000  1.0000
  Mn  Mn12      1.0  0.50000  0.47176  0.25000  1.0000
  F   F1        1.0  0.24564  0.74307  0.64086  1.0000
  F   F2        1.0  0.74564  0.24307  0.64086  1.0000
  F   F3        1.0  0.75436  0.74307  0.85914  1.0000
  F   F4        1.0  0.25436  0.24307  0.85914  1.0000
  F   F5        1.0  0.75436  0.25693  0.35914  1.0000
  F   F6        1.0  0.25436  0.75693  0.35914  1.0000
  F   F7        1.0  0.24564  0.25693  0.14086  1.0000
  F   F8        1.0  0.74564  0.75693  0.14086  1.0000
  F   F9        1.0  0.23607  0.64286  0.59454  1.0000
  F   F10       1.0  0.73607  0.14286  0.59454  1.0000
  F   F11       1.0  0.76393  0.64286  0.90546  1.0000
  F   F12       1.0  0.26393  0.14286  0.90546  1.0000
  F   F13       1.0  0.76393  0.35714  0.40546  1.0000
  F   F14       1.0  0.26393  0.85714  0.40546  1.0000
  F   F15       1.0  0.23607  0.35714  0.09454  1.0000
  F   F16       1.0  0.73607  0.85714  0.09454  1.0000
  F   F17       1.0  0.15915  0.72073  0.58091  1.0000
  F   F18       1.0  0.65915  0.22073  0.58091  1.0000
  F   F19       1.0  0.84085  0.72073  0.91909  1.0000
  F   F20       1.0  0.34085  0.22073  0.91909  1.0000
  F   F21       1.0  0.84085  0.27927  0.41909  1.0000
  F   F22       1.0  0.34085  0.77927  0.41909  1.0000
  F   F23       1.0  0.15915  0.27927  0.08091  1.0000
  F   F24       1.0  0.65915  0.77927  0.08091  1.0000
  F   F25       1.0  0.13979  0.56003  0.61843  1.0000
  F   F26       1.0  0.63979  0.06003  0.61843  1.0000
  F   F27       1.0  0.86021  0.56003  0.88157  1.0000
  F   F28       1.0  0.36021  0.06003  0.88157  1.0000
  F   F29       1.0  0.86021  0.43997  0.38157  1.0000
  F   F30       1.0  0.36021  0.93997  0.38157  1.0000
  F   F31       1.0  0.13979  0.43997  0.11843  1.0000
  F   F32       1.0  0.63979  0.93997  0.11843  1.0000
  F   F33       1.0  0.06301  0.63683  0.62990  1.0000
  F   F34       1.0  0.56301  0.13683  0.62990  1.0000
  F   F35       1.0  0.93699  0.63683  0.87010  1.0000
  F   F36       1.0  0.43699  0.13683  0.87010  1.0000
  F   F37       1.0  0.93699  0.36317  0.37010  1.0000
  F   F38       1.0  0.43699  0.86317  0.37010  1.0000
  F   F39       1.0  0.06301  0.36317  0.12990  1.0000
  F   F40       1.0  0.56301  0.86317  0.12990  1.0000
  F   F41       1.0  0.09415  0.56909  0.70650  1.0000
  F   F42       1.0  0.59415  0.06909  0.70650  1.0000
  F   F43       1.0  0.90585  0.56909  0.79350  1.0000
  F   F44       1.0  0.40585  0.06909  0.79350  1.0000
  F   F45       1.0  0.90585  0.43091  0.29350  1.0000
  F   F46       1.0  0.40585  0.93091  0.29350  1.0000
  F   F47       1.0  0.09415  0.43091  0.20650  1.0000
  F   F48       1.0  0.59415  0.93091  0.20650  1.0000
  F   F49       1.0  0.92782  0.42674  0.50891  1.0000
  F   F50       1.0  0.42782  0.92674  0.50891  1.0000
  F   F51       1.0  0.07218  0.42674  0.99109  1.0000
  F   F52       1.0  0.57218  0.92674  0.99109  1.0000
  F   F53       1.0  0.07218  0.57326  0.49109  1.0000
  F   F54       1.0  0.57218  0.07326  0.49109  1.0000
  F   F55       1.0  0.92782  0.57326  0.00891  1.0000
  F   F56       1.0  0.42782  0.07326  0.00891  1.0000
  F   F57       1.0  0.93441  0.52722  0.55672  1.0000
  F   F58       1.0  0.43441  0.02722  0.55672  1.0000
  F   F59       1.0  0.06559  0.52722  0.94328  1.0000
  F   F60       1.0  0.56559  0.02722  0.94328  1.0000
  F   F61       1.0  0.06559  0.47278  0.44328  1.0000
  F   F62       1.0  0.56559  0.97278  0.44328  1.0000
  F   F63       1.0  0.93441  0.47278  0.05672  1.0000
  F   F64       1.0  0.43441  0.97278  0.05672  1.0000
  F   F65       1.0  0.99156  0.43837  0.59127  1.0000
  F   F66       1.0  0.49156  0.93837  0.59127  1.0000
  F   F67       1.0  0.00844  0.43837  0.90873  1.0000
  F   F68       1.0  0.50844  0.93837  0.90873  1.0000
  F   F69       1.0  0.00844  0.56163  0.40873  1.0000
  F   F70       1.0  0.50844  0.06163  0.40873  1.0000
  F   F71       1.0  0.99156  0.56163  0.09127  1.0000
  F   F72       1.0  0.49156  0.06163  0.09127  1.0000
  F   F73       1.0  0.85778  0.54693  0.65299  1.0000
  F   F74       1.0  0.35778  0.04693  0.65299  1.0000
  F   F75       1.0  0.14222  0.54693  0.84701  1.0000
  F   F76       1.0  0.64222  0.04693  0.84701  1.0000
  F   F77       1.0  0.14222  0.45307  0.34701  1.0000
  F   F78       1.0  0.64222  0.95307  0.34701  1.0000
  F   F79       1.0  0.85778  0.45307  0.15299  1.0000
  F   F80       1.0  0.35778  0.95307  0.15299  1.0000
  F   F81       1.0  0.83846  0.45593  0.70971  1.0000
  F   F82       1.0  0.33846  0.95593  0.70971  1.0000
  F   F83       1.0  0.16154  0.45593  0.79029  1.0000
  F   F84       1.0  0.66154  0.95593  0.79029  1.0000
  F   F85       1.0  0.16154  0.54407  0.29029  1.0000
  F   F86       1.0  0.66154  0.04407  0.29029  1.0000
  F   F87       1.0  0.83846  0.54407  0.20971  1.0000
  F   F88       1.0  0.33846  0.04407  0.20971  1.0000
  F   F89       1.0  0.93941  0.48579  0.69291  1.0000
  F   F90       1.0  0.43941  0.98579  0.69291  1.0000
  F   F91       1.0  0.06059  0.48579  0.80709  1.0000
  F   F92       1.0  0.56059  0.98579  0.80709  1.0000
  F   F93       1.0  0.06059  0.51421  0.30709  1.0000
  F   F94       1.0  0.56059  0.01421  0.30709  1.0000
  F   F95       1.0  0.93941  0.51421  0.19291  1.0000
  F   F96       1.0  0.43941  0.01421  0.19291  1.0000
