data_image0
_chemical_formula_structural       U8O44C8H8C4H8C4H8C4H8C12H8C4H8
_chemical_formula_sum              "U8 O44 C36 H48"
_cell_length_a       19.8332
_cell_length_b       17.3585
_cell_length_c       16.4723
_cell_angle_alpha    90
_cell_angle_beta     110.505
_cell_angle_gamma    90

_space_group_name_H-M_alt    "P 1"
_space_group_IT_number       1

loop_
  _space_group_symop_operation_xyz
  'x, y, z'

loop_
  _atom_site_type_symbol
  _atom_site_label
  _atom_site_symmetry_multiplicity
  _atom_site_fract_x
  _atom_site_fract_y
  _atom_site_fract_z
  _atom_site_occupancy
  U   U1        1.0  0.05669  0.98261  0.43369  1.0000
  U   U2        1.0  0.94331  0.48261  0.06631  1.0000
  U   U3        1.0  0.94331  0.01739  0.56631  1.0000
  U   U4        1.0  0.05669  0.51739  0.93369  1.0000
  U   U5        1.0  0.00748  0.80026  0.53903  1.0000
  U   U6        1.0  0.99252  0.30025  0.96097  1.0000
  U   U7        1.0  0.99252  0.19974  0.46097  1.0000
  U   U8        1.0  0.00748  0.69974  0.03903  1.0000
  O   O1        1.0  0.97920  0.97430  0.33700  1.0000
  O   O2        1.0  0.02080  0.47430  0.16300  1.0000
  O   O3        1.0  0.02080  0.02570  0.66300  1.0000
  O   O4        1.0  0.97920  0.52570  0.83700  1.0000
  O   O5        1.0  0.13770  0.98940  0.52380  1.0000
  O   O6        1.0  0.86230  0.48940  0.97620  1.0000
  O   O7        1.0  0.86230  0.01060  0.47620  1.0000
  O   O8        1.0  0.13770  0.51060  0.02380  1.0000
  O   O9        1.0  0.92810  0.77720  0.45060  1.0000
  O   O10       1.0  0.07190  0.27720  0.04940  1.0000
  O   O11       1.0  0.07190  0.22280  0.54940  1.0000
  O   O12       1.0  0.92810  0.72280  0.95060  1.0000
  O   O13       1.0  0.08550  0.81670  0.63090  1.0000
  O   O14       1.0  0.91450  0.31670  0.86910  1.0000
  O   O15       1.0  0.91450  0.18330  0.36910  1.0000
  O   O16       1.0  0.08550  0.68330  0.13090  1.0000
  O   O17       1.0  0.06540  0.83330  0.43740  1.0000
  O   O18       1.0  0.93460  0.33330  0.06260  1.0000
  O   O19       1.0  0.93460  0.16670  0.56260  1.0000
  O   O20       1.0  0.06540  0.66670  0.93740  1.0000
  O   O21       1.0  0.11710  0.89700  0.36040  1.0000
  O   O22       1.0  0.88290  0.39700  0.13960  1.0000
  O   O23       1.0  0.88290  0.10300  0.63960  1.0000
  O   O24       1.0  0.11710  0.60300  0.86040  1.0000
  O   O25       1.0  0.89430  0.55910  0.15780  1.0000
  O   O26       1.0  0.10570  0.05910  0.34220  1.0000
  O   O27       1.0  0.10570  0.44090  0.84220  1.0000
  O   O28       1.0  0.89430  0.94090  0.65780  1.0000
  O   O29       1.0  0.93350  0.66360  0.11430  1.0000
  O   O30       1.0  0.06650  0.16360  0.38570  1.0000
  O   O31       1.0  0.06650  0.33640  0.88570  1.0000
  O   O32       1.0  0.93350  0.83640  0.61430  1.0000
  O   O33       1.0  0.06660  0.67620  0.52750  1.0000
  O   O34       1.0  0.93340  0.17620  0.97250  1.0000
  O   O35       1.0  0.93340  0.32380  0.47250  1.0000
  O   O36       1.0  0.06660  0.82380  0.02750  1.0000
  O   O37       1.0  0.99560  0.66960  0.60110  1.0000
  O   O38       1.0  0.00440  0.16960  0.89890  1.0000
  O   O39       1.0  0.00440  0.33040  0.39890  1.0000
  O   O40       1.0  0.99560  0.83040  0.10110  1.0000
  O   O41       1.0  0.99680  0.92560  0.51450  1.0000
  O   O42       1.0  0.00320  0.42560  0.98550  1.0000
  O   O43       1.0  0.00320  0.07440  0.48550  1.0000
  O   O44       1.0  0.99680  0.57440  0.01450  1.0000
  C   C1        1.0  0.09370  0.83370  0.37730  1.0000
  C   C2        1.0  0.90630  0.33370  0.12270  1.0000
  C   C3        1.0  0.90630  0.16630  0.62270  1.0000
  C   C4        1.0  0.09370  0.66630  0.87730  1.0000
  C   C5        1.0  0.09650  0.76250  0.32870  1.0000
  C   C6        1.0  0.90350  0.26250  0.17130  1.0000
  C   C7        1.0  0.90350  0.23750  0.67130  1.0000
  C   C8        1.0  0.09650  0.73750  0.82870  1.0000
  H   H1        1.0  0.14210  0.73710  0.35830  1.0000
  H   H2        1.0  0.85790  0.23710  0.14170  1.0000
  H   H3        1.0  0.85790  0.26290  0.64170  1.0000
  H   H4        1.0  0.14210  0.76290  0.85830  1.0000
  H   H5        1.0  0.09610  0.77730  0.27180  1.0000
  H   H6        1.0  0.90390  0.27730  0.22820  1.0000
  H   H7        1.0  0.90390  0.22270  0.72820  1.0000
  H   H8        1.0  0.09610  0.72270  0.77180  1.0000
  C   C9        1.0  0.03710  0.70470  0.31690  1.0000
  C   C10       1.0  0.96290  0.20470  0.18310  1.0000
  C   C11       1.0  0.96290  0.29530  0.68310  1.0000
  C   C12       1.0  0.03710  0.79530  0.81690  1.0000
  H   H9        1.0  0.04120  0.68440  0.37330  1.0000
  H   H10       1.0  0.95880  0.18440  0.12670  1.0000
  H   H11       1.0  0.95880  0.31560  0.62670  1.0000
  H   H12       1.0  0.04120  0.81560  0.87330  1.0000
  H   H13       1.0  0.04390  0.66210  0.28240  1.0000
  H   H14       1.0  0.95610  0.16210  0.21760  1.0000
  H   H15       1.0  0.95610  0.33790  0.71760  1.0000
  H   H16       1.0  0.04390  0.83790  0.78240  1.0000
  C   C13       1.0  0.96110  0.73700  0.27330  1.0000
  C   C14       1.0  0.03890  0.23700  0.22670  1.0000
  C   C15       1.0  0.03890  0.26300  0.72670  1.0000
  C   C16       1.0  0.96110  0.76300  0.77330  1.0000
  H   H17       1.0  0.94900  0.76990  0.31390  1.0000
  H   H18       1.0  0.05100  0.26990  0.18610  1.0000
  H   H19       1.0  0.05100  0.23010  0.68610  1.0000
  H   H20       1.0  0.94900  0.73010  0.81390  1.0000
  H   H21       1.0  0.95970  0.76830  0.22390  1.0000
  H   H22       1.0  0.04030  0.26830  0.27610  1.0000
  H   H23       1.0  0.04030  0.23170  0.77610  1.0000
  H   H24       1.0  0.95970  0.73170  0.72390  1.0000
  C   C17       1.0  0.90600  0.67330  0.24330  1.0000
  C   C18       1.0  0.09400  0.17330  0.25670  1.0000
  C   C19       1.0  0.09400  0.32670  0.75670  1.0000
  C   C20       1.0  0.90600  0.82670  0.74330  1.0000
  H   H25       1.0  0.91210  0.63840  0.29130  1.0000
  H   H26       1.0  0.08790  0.13840  0.20870  1.0000
  H   H27       1.0  0.08790  0.36160  0.70870  1.0000
  H   H28       1.0  0.91210  0.86160  0.79130  1.0000
  H   H29       1.0  0.85830  0.69560  0.22710  1.0000
  H   H30       1.0  0.14170  0.19560  0.27290  1.0000
  H   H31       1.0  0.14170  0.30440  0.77290  1.0000
  H   H32       1.0  0.85830  0.80440  0.72710  1.0000
  C   C21       1.0  0.91100  0.62790  0.16780  1.0000
  C   C22       1.0  0.08900  0.12790  0.33220  1.0000
  C   C23       1.0  0.08900  0.37210  0.83220  1.0000
  C   C24       1.0  0.91100  0.87210  0.66780  1.0000
  C   C25       1.0  0.04320  0.64270  0.57680  1.0000
  C   C26       1.0  0.95680  0.14270  0.92320  1.0000
  C   C27       1.0  0.95680  0.35730  0.42320  1.0000
  C   C28       1.0  0.04320  0.85730  0.07680  1.0000
  C   C29       1.0  0.06160  0.55890  0.60140  1.0000
  C   C30       1.0  0.93840  0.05890  0.89860  1.0000
  C   C31       1.0  0.93840  0.44110  0.39860  1.0000
  C   C32       1.0  0.06160  0.94110  0.10140  1.0000
  H   H33       1.0  0.10650  0.54560  0.59390  1.0000
  H   H34       1.0  0.89350  0.04560  0.90610  1.0000
  H   H35       1.0  0.89350  0.45440  0.40610  1.0000
  H   H36       1.0  0.10650  0.95440  0.09390  1.0000
  H   H37       1.0  0.06740  0.55110  0.66180  1.0000
  H   H38       1.0  0.93260  0.05110  0.83820  1.0000
  H   H39       1.0  0.93260  0.44890  0.33820  1.0000
  H   H40       1.0  0.06740  0.94890  0.16180  1.0000
  C   C33       1.0  0.00160  0.50730  0.54460  1.0000
  C   C34       1.0  0.99840  0.00730  0.95540  1.0000
  C   C35       1.0  0.99840  0.49270  0.45540  1.0000
  C   C36       1.0  0.00160  0.99270  0.04460  1.0000
  H   H41       1.0  0.00550  0.45800  0.57350  1.0000
  H   H42       1.0  0.99450  0.95800  0.92650  1.0000
  H   H43       1.0  0.99450  0.54200  0.42650  1.0000
  H   H44       1.0  0.00550  0.04200  0.07350  1.0000
  H   H45       1.0  0.95610  0.53000  0.54160  1.0000
  H   H46       1.0  0.04390  0.03000  0.95840  1.0000
  H   H47       1.0  0.04390  0.47000  0.45840  1.0000
  H   H48       1.0  0.95610  0.97000  0.04160  1.0000
