data_image0
_chemical_formula_structural       Cd18S18C54H36C54H18C36O72
_chemical_formula_sum              "Cd18 S18 C144 H54 O72"
_cell_length_a       23.0075
_cell_length_b       23.0075
_cell_length_c       20.808
_cell_angle_alpha    90
_cell_angle_beta     90
_cell_angle_gamma    120

_space_group_name_H-M_alt    "P 1"
_space_group_IT_number       1

loop_
  _space_group_symop_operation_xyz
  'x, y, z'

loop_
  _atom_site_type_symbol
  _atom_site_label
  _atom_site_symmetry_multiplicity
  _atom_site_fract_x
  _atom_site_fract_y
  _atom_site_fract_z
  _atom_site_occupancy
  Cd  Cd1       1.0  0.08815  0.33330  0.33330  1.0000
  Cd  Cd2       1.0  0.66670  0.75485  0.33330  1.0000
  Cd  Cd3       1.0  0.24515  0.91185  0.33330  1.0000
  Cd  Cd4       1.0  0.33330  0.08815  0.66670  1.0000
  Cd  Cd5       1.0  0.91185  0.24515  0.66670  1.0000
  Cd  Cd6       1.0  0.75485  0.66670  0.66670  1.0000
  Cd  Cd7       1.0  0.99997  0.42148  0.00003  1.0000
  Cd  Cd8       1.0  0.57852  0.57848  0.00003  1.0000
  Cd  Cd9       1.0  0.42152  0.00003  0.00003  1.0000
  Cd  Cd10      1.0  0.91185  0.66670  0.66670  1.0000
  Cd  Cd11      1.0  0.33330  0.24515  0.66670  1.0000
  Cd  Cd12      1.0  0.75485  0.08815  0.66670  1.0000
  Cd  Cd13      1.0  0.66670  0.91185  0.33330  1.0000
  Cd  Cd14      1.0  0.08815  0.75485  0.33330  1.0000
  Cd  Cd15      1.0  0.24515  0.33330  0.33330  1.0000
  Cd  Cd16      1.0  0.00003  0.57852  0.99997  1.0000
  Cd  Cd17      1.0  0.42148  0.42152  0.99997  1.0000
  Cd  Cd18      1.0  0.57848  0.99997  0.99997  1.0000
  S   S1        1.0  0.14221  0.28442  0.25657  1.0000
  S   S2        1.0  0.71558  0.85779  0.25657  1.0000
  S   S3        1.0  0.14221  0.85779  0.25657  1.0000
  S   S4        1.0  0.28442  0.14221  0.74343  1.0000
  S   S5        1.0  0.85779  0.14221  0.74343  1.0000
  S   S6        1.0  0.85779  0.71558  0.74343  1.0000
  S   S7        1.0  0.80888  0.61775  0.58990  1.0000
  S   S8        1.0  0.38225  0.19112  0.58990  1.0000
  S   S9        1.0  0.80888  0.19112  0.58990  1.0000
  S   S10       1.0  0.95109  0.47554  0.07676  1.0000
  S   S11       1.0  0.52446  0.47554  0.07676  1.0000
  S   S12       1.0  0.52446  0.04891  0.07676  1.0000
  S   S13       1.0  0.47554  0.95109  0.92324  1.0000
  S   S14       1.0  0.04891  0.52446  0.92324  1.0000
  S   S15       1.0  0.47554  0.52446  0.92324  1.0000
  S   S16       1.0  0.61775  0.80888  0.41010  1.0000
  S   S17       1.0  0.19112  0.80888  0.41010  1.0000
  S   S18       1.0  0.19112  0.38225  0.41010  1.0000
  C   C1        1.0  0.16429  0.32858  0.18191  1.0000
  C   C2        1.0  0.67142  0.83571  0.18191  1.0000
  C   C3        1.0  0.16429  0.83571  0.18191  1.0000
  C   C4        1.0  0.32858  0.16429  0.81809  1.0000
  C   C5        1.0  0.83571  0.16429  0.81809  1.0000
  C   C6        1.0  0.83571  0.67142  0.81809  1.0000
  C   C7        1.0  0.83096  0.66191  0.51524  1.0000
  C   C8        1.0  0.33809  0.16904  0.51524  1.0000
  C   C9        1.0  0.83096  0.16904  0.51524  1.0000
  C   C10       1.0  0.99525  0.49762  0.15142  1.0000
  C   C11       1.0  0.50238  0.49762  0.15142  1.0000
  C   C12       1.0  0.50238  0.00475  0.15142  1.0000
  C   C13       1.0  0.49762  0.99525  0.84858  1.0000
  C   C14       1.0  0.00475  0.50238  0.84858  1.0000
  C   C15       1.0  0.49762  0.50238  0.84858  1.0000
  C   C16       1.0  0.66191  0.83096  0.48476  1.0000
  C   C17       1.0  0.16904  0.83096  0.48476  1.0000
  C   C18       1.0  0.16904  0.33809  0.48476  1.0000
  C   C19       1.0  0.11992  0.34370  0.15119  1.0000
  C   C20       1.0  0.65630  0.77622  0.15119  1.0000
  C   C21       1.0  0.22378  0.88008  0.15119  1.0000
  C   C22       1.0  0.34370  0.11992  0.84881  1.0000
  C   C23       1.0  0.88008  0.22378  0.84881  1.0000
  C   C24       1.0  0.77622  0.65630  0.84881  1.0000
  C   C25       1.0  0.78659  0.67703  0.48452  1.0000
  C   C26       1.0  0.32297  0.10955  0.48452  1.0000
  C   C27       1.0  0.89045  0.21341  0.48452  1.0000
  C   C28       1.0  0.01037  0.45325  0.18214  1.0000
  C   C29       1.0  0.54675  0.55711  0.18214  1.0000
  C   C30       1.0  0.44289  0.98963  0.18214  1.0000
  C   C31       1.0  0.45325  0.01037  0.81786  1.0000
  C   C32       1.0  0.98963  0.44289  0.81786  1.0000
  C   C33       1.0  0.55711  0.54675  0.81786  1.0000
  C   C34       1.0  0.67703  0.78659  0.51548  1.0000
  C   C35       1.0  0.21341  0.89045  0.51548  1.0000
  C   C36       1.0  0.10955  0.32297  0.51548  1.0000
  C   C37       1.0  0.88008  0.65630  0.84881  1.0000
  C   C38       1.0  0.34370  0.22378  0.84881  1.0000
  C   C39       1.0  0.77622  0.11992  0.84881  1.0000
  C   C40       1.0  0.65630  0.88008  0.15119  1.0000
  C   C41       1.0  0.11992  0.77622  0.15119  1.0000
  C   C42       1.0  0.22378  0.34370  0.15119  1.0000
  C   C43       1.0  0.21341  0.32297  0.51548  1.0000
  C   C44       1.0  0.67703  0.89045  0.51548  1.0000
  C   C45       1.0  0.10955  0.78659  0.51548  1.0000
  C   C46       1.0  0.98963  0.54675  0.81786  1.0000
  C   C47       1.0  0.45325  0.44289  0.81786  1.0000
  C   C48       1.0  0.55711  0.01037  0.81786  1.0000
  C   C49       1.0  0.54675  0.98963  0.18214  1.0000
  C   C50       1.0  0.01037  0.55711  0.18214  1.0000
  C   C51       1.0  0.44289  0.45325  0.18214  1.0000
  C   C52       1.0  0.32297  0.21341  0.48452  1.0000
  C   C53       1.0  0.78659  0.10955  0.48452  1.0000
  C   C54       1.0  0.89045  0.67703  0.48452  1.0000
  H   H1        1.0  0.07870  0.33130  0.17000  1.0000
  H   H2        1.0  0.66870  0.74740  0.17000  1.0000
  H   H3        1.0  0.25260  0.92130  0.17000  1.0000
  H   H4        1.0  0.33130  0.07870  0.83000  1.0000
  H   H5        1.0  0.92130  0.25260  0.83000  1.0000
  H   H6        1.0  0.74740  0.66870  0.83000  1.0000
  H   H7        1.0  0.74537  0.66463  0.50333  1.0000
  H   H8        1.0  0.33537  0.08073  0.50333  1.0000
  H   H9        1.0  0.91927  0.25463  0.50333  1.0000
  H   H10       1.0  0.99797  0.41203  0.16333  1.0000
  H   H11       1.0  0.58797  0.58593  0.16333  1.0000
  H   H12       1.0  0.41407  0.00203  0.16333  1.0000
  H   H13       1.0  0.41203  0.99797  0.83667  1.0000
  H   H14       1.0  0.00203  0.41407  0.83667  1.0000
  H   H15       1.0  0.58593  0.58797  0.83667  1.0000
  H   H16       1.0  0.66463  0.74537  0.49667  1.0000
  H   H17       1.0  0.25463  0.91927  0.49667  1.0000
  H   H18       1.0  0.08073  0.33537  0.49667  1.0000
  H   H19       1.0  0.92130  0.66870  0.83000  1.0000
  H   H20       1.0  0.33130  0.25260  0.83000  1.0000
  H   H21       1.0  0.74740  0.07870  0.83000  1.0000
  H   H22       1.0  0.66870  0.92130  0.17000  1.0000
  H   H23       1.0  0.07870  0.74740  0.17000  1.0000
  H   H24       1.0  0.25260  0.33130  0.17000  1.0000
  H   H25       1.0  0.25463  0.33537  0.49667  1.0000
  H   H26       1.0  0.66463  0.91927  0.49667  1.0000
  H   H27       1.0  0.08073  0.74537  0.49667  1.0000
  H   H28       1.0  0.00203  0.58797  0.83667  1.0000
  H   H29       1.0  0.41203  0.41407  0.83667  1.0000
  H   H30       1.0  0.58593  0.99797  0.83667  1.0000
  H   H31       1.0  0.58797  0.00203  0.16333  1.0000
  H   H32       1.0  0.99797  0.58593  0.16333  1.0000
  H   H33       1.0  0.41407  0.41203  0.16333  1.0000
  H   H34       1.0  0.33537  0.25463  0.50333  1.0000
  H   H35       1.0  0.74537  0.08073  0.50333  1.0000
  H   H36       1.0  0.91927  0.66463  0.50333  1.0000
  C   C55       1.0  0.13658  0.37709  0.09273  1.0000
  C   C56       1.0  0.62291  0.75949  0.09273  1.0000
  C   C57       1.0  0.24051  0.86342  0.09273  1.0000
  C   C58       1.0  0.37709  0.13658  0.90727  1.0000
  C   C59       1.0  0.86342  0.24051  0.90727  1.0000
  C   C60       1.0  0.75949  0.62291  0.90727  1.0000
  C   C61       1.0  0.80325  0.71042  0.42606  1.0000
  C   C62       1.0  0.28958  0.09282  0.42606  1.0000
  C   C63       1.0  0.90718  0.19675  0.42606  1.0000
  C   C64       1.0  0.04376  0.46991  0.24060  1.0000
  C   C65       1.0  0.53009  0.57384  0.24060  1.0000
  C   C66       1.0  0.42616  0.95624  0.24060  1.0000
  C   C67       1.0  0.46991  0.04376  0.75940  1.0000
  C   C68       1.0  0.95624  0.42616  0.75940  1.0000
  C   C69       1.0  0.57384  0.53009  0.75940  1.0000
  C   C70       1.0  0.71042  0.80325  0.57394  1.0000
  C   C71       1.0  0.19675  0.90718  0.57394  1.0000
  C   C72       1.0  0.09282  0.28958  0.57394  1.0000
  C   C73       1.0  0.86342  0.62291  0.90727  1.0000
  C   C74       1.0  0.37709  0.24051  0.90727  1.0000
  C   C75       1.0  0.75949  0.13658  0.90727  1.0000
  C   C76       1.0  0.62291  0.86342  0.09273  1.0000
  C   C77       1.0  0.13658  0.75949  0.09273  1.0000
  C   C78       1.0  0.24051  0.37709  0.09273  1.0000
  C   C79       1.0  0.19675  0.28958  0.57394  1.0000
  C   C80       1.0  0.71042  0.90718  0.57394  1.0000
  C   C81       1.0  0.09282  0.80325  0.57394  1.0000
  C   C82       1.0  0.95624  0.53009  0.75940  1.0000
  C   C83       1.0  0.46991  0.42616  0.75940  1.0000
  C   C84       1.0  0.57384  0.04376  0.75940  1.0000
  C   C85       1.0  0.53009  0.95624  0.24060  1.0000
  C   C86       1.0  0.04376  0.57384  0.24060  1.0000
  C   C87       1.0  0.42616  0.46991  0.24060  1.0000
  C   C88       1.0  0.28958  0.19675  0.42606  1.0000
  C   C89       1.0  0.80325  0.09282  0.42606  1.0000
  C   C90       1.0  0.90718  0.71042  0.42606  1.0000
  C   C91       1.0  0.19743  0.39485  0.06397  1.0000
  C   C92       1.0  0.60515  0.80258  0.06397  1.0000
  C   C93       1.0  0.19742  0.80257  0.06397  1.0000
  C   C94       1.0  0.39485  0.19743  0.93603  1.0000
  C   C95       1.0  0.80257  0.19742  0.93603  1.0000
  C   C96       1.0  0.80258  0.60515  0.93603  1.0000
  C   C97       1.0  0.86410  0.72818  0.39730  1.0000
  C   C98       1.0  0.27182  0.13591  0.39730  1.0000
  C   C99       1.0  0.86409  0.13590  0.39730  1.0000
  C   C100      1.0  0.06152  0.53076  0.26936  1.0000
  C   C101      1.0  0.46924  0.53075  0.26936  1.0000
  C   C102      1.0  0.46925  0.93848  0.26936  1.0000
  C   C103      1.0  0.53076  0.06152  0.73064  1.0000
  C   C104      1.0  0.93848  0.46925  0.73064  1.0000
  C   C105      1.0  0.53075  0.46924  0.73064  1.0000
  C   C106      1.0  0.72818  0.86410  0.60270  1.0000
  C   C107      1.0  0.13590  0.86409  0.60270  1.0000
  C   C108      1.0  0.13591  0.27182  0.60270  1.0000
  H   H37       1.0  0.20930  0.41860  0.02550  1.0000
  H   H38       1.0  0.58140  0.79070  0.02550  1.0000
  H   H39       1.0  0.20930  0.79070  0.02550  1.0000
  H   H40       1.0  0.41860  0.20930  0.97450  1.0000
  H   H41       1.0  0.79070  0.20930  0.97450  1.0000
  H   H42       1.0  0.79070  0.58140  0.97450  1.0000
  H   H43       1.0  0.87597  0.75193  0.35883  1.0000
  H   H44       1.0  0.24807  0.12403  0.35883  1.0000
  H   H45       1.0  0.87597  0.12403  0.35883  1.0000
  H   H46       1.0  0.08527  0.54263  0.30783  1.0000
  H   H47       1.0  0.45737  0.54263  0.30783  1.0000
  H   H48       1.0  0.45737  0.91473  0.30783  1.0000
  H   H49       1.0  0.54263  0.08527  0.69217  1.0000
  H   H50       1.0  0.91473  0.45737  0.69217  1.0000
  H   H51       1.0  0.54263  0.45737  0.69217  1.0000
  H   H52       1.0  0.75193  0.87597  0.64117  1.0000
  H   H53       1.0  0.12403  0.87597  0.64117  1.0000
  H   H54       1.0  0.12403  0.24807  0.64117  1.0000
  C   C109      1.0  0.08764  0.39264  0.06074  1.0000
  C   C110      1.0  0.60736  0.69500  0.06074  1.0000
  C   C111      1.0  0.30500  0.91236  0.06074  1.0000
  C   C112      1.0  0.39264  0.08764  0.93926  1.0000
  C   C113      1.0  0.91236  0.30500  0.93926  1.0000
  C   C114      1.0  0.69500  0.60736  0.93926  1.0000
  C   C115      1.0  0.75431  0.72597  0.39407  1.0000
  C   C116      1.0  0.27403  0.02833  0.39407  1.0000
  C   C117      1.0  0.97167  0.24569  0.39407  1.0000
  C   C118      1.0  0.05931  0.42097  0.27259  1.0000
  C   C119      1.0  0.57903  0.63833  0.27259  1.0000
  C   C120      1.0  0.36167  0.94069  0.27259  1.0000
  C   C121      1.0  0.42097  0.05931  0.72741  1.0000
  C   C122      1.0  0.94069  0.36167  0.72741  1.0000
  C   C123      1.0  0.63833  0.57903  0.72741  1.0000
  C   C124      1.0  0.72597  0.75431  0.60593  1.0000
  C   C125      1.0  0.24569  0.97167  0.60593  1.0000
  C   C126      1.0  0.02833  0.27403  0.60593  1.0000
  C   C127      1.0  0.91236  0.60736  0.93926  1.0000
  C   C128      1.0  0.39264  0.30500  0.93926  1.0000
  C   C129      1.0  0.69500  0.08764  0.93926  1.0000
  C   C130      1.0  0.60736  0.91236  0.06074  1.0000
  C   C131      1.0  0.08764  0.69500  0.06074  1.0000
  C   C132      1.0  0.30500  0.39264  0.06074  1.0000
  C   C133      1.0  0.24569  0.27403  0.60593  1.0000
  C   C134      1.0  0.72597  0.97167  0.60593  1.0000
  C   C135      1.0  0.02833  0.75431  0.60593  1.0000
  C   C136      1.0  0.94069  0.57903  0.72741  1.0000
  C   C137      1.0  0.42097  0.36167  0.72741  1.0000
  C   C138      1.0  0.63833  0.05931  0.72741  1.0000
  C   C139      1.0  0.57903  0.94069  0.27259  1.0000
  C   C140      1.0  0.05931  0.63833  0.27259  1.0000
  C   C141      1.0  0.36167  0.42097  0.27259  1.0000
  C   C142      1.0  0.27403  0.24569  0.39407  1.0000
  C   C143      1.0  0.75431  0.02833  0.39407  1.0000
  C   C144      1.0  0.97167  0.72597  0.39407  1.0000
  O   O1        1.0  0.02687  0.35874  0.07376  1.0000
  O   O2        1.0  0.64126  0.66813  0.07376  1.0000
  O   O3        1.0  0.33187  0.97313  0.07376  1.0000
  O   O4        1.0  0.35874  0.02687  0.92624  1.0000
  O   O5        1.0  0.97313  0.33187  0.92624  1.0000
  O   O6        1.0  0.66813  0.64126  0.92624  1.0000
  O   O7        1.0  0.69354  0.69207  0.40709  1.0000
  O   O8        1.0  0.30793  0.00146  0.40709  1.0000
  O   O9        1.0  0.99854  0.30646  0.40709  1.0000
  O   O10       1.0  0.02541  0.36020  0.25957  1.0000
  O   O11       1.0  0.63980  0.66520  0.25957  1.0000
  O   O12       1.0  0.33480  0.97459  0.25957  1.0000
  O   O13       1.0  0.36020  0.02541  0.74043  1.0000
  O   O14       1.0  0.97459  0.33480  0.74043  1.0000
  O   O15       1.0  0.66520  0.63980  0.74043  1.0000
  O   O16       1.0  0.69207  0.69354  0.59291  1.0000
  O   O17       1.0  0.30646  0.99854  0.59291  1.0000
  O   O18       1.0  0.00146  0.30793  0.59291  1.0000
  O   O19       1.0  0.97313  0.64126  0.92624  1.0000
  O   O20       1.0  0.35874  0.33187  0.92624  1.0000
  O   O21       1.0  0.66813  0.02687  0.92624  1.0000
  O   O22       1.0  0.64126  0.97313  0.07376  1.0000
  O   O23       1.0  0.02687  0.66813  0.07376  1.0000
  O   O24       1.0  0.33187  0.35874  0.07376  1.0000
  O   O25       1.0  0.30646  0.30793  0.59291  1.0000
  O   O26       1.0  0.69207  0.99854  0.59291  1.0000
  O   O27       1.0  0.00146  0.69354  0.59291  1.0000
  O   O28       1.0  0.97459  0.63980  0.74043  1.0000
  O   O29       1.0  0.36020  0.33480  0.74043  1.0000
  O   O30       1.0  0.66520  0.02541  0.74043  1.0000
  O   O31       1.0  0.63980  0.97459  0.25957  1.0000
  O   O32       1.0  0.02541  0.66520  0.25957  1.0000
  O   O33       1.0  0.33480  0.36020  0.25957  1.0000
  O   O34       1.0  0.30793  0.30646  0.40709  1.0000
  O   O35       1.0  0.69354  0.00146  0.40709  1.0000
  O   O36       1.0  0.99854  0.69207  0.40709  1.0000
  O   O37       1.0  0.10909  0.44039  0.02053  1.0000
  O   O38       1.0  0.55961  0.66870  0.02053  1.0000
  O   O39       1.0  0.33130  0.89091  0.02053  1.0000
  O   O40       1.0  0.44039  0.10909  0.97947  1.0000
  O   O41       1.0  0.89091  0.33130  0.97947  1.0000
  O   O42       1.0  0.66870  0.55961  0.97947  1.0000
  O   O43       1.0  0.77576  0.77372  0.35386  1.0000
  O   O44       1.0  0.22628  0.00203  0.35386  1.0000
  O   O45       1.0  0.99797  0.22424  0.35386  1.0000
  O   O46       1.0  0.10706  0.44242  0.31280  1.0000
  O   O47       1.0  0.55758  0.66463  0.31280  1.0000
  O   O48       1.0  0.33537  0.89294  0.31280  1.0000
  O   O49       1.0  0.44242  0.10706  0.68720  1.0000
  O   O50       1.0  0.89294  0.33537  0.68720  1.0000
  O   O51       1.0  0.66463  0.55758  0.68720  1.0000
  O   O52       1.0  0.77372  0.77576  0.64614  1.0000
  O   O53       1.0  0.22424  0.99797  0.64614  1.0000
  O   O54       1.0  0.00203  0.22628  0.64614  1.0000
  O   O55       1.0  0.89091  0.55961  0.97947  1.0000
  O   O56       1.0  0.44039  0.33130  0.97947  1.0000
  O   O57       1.0  0.66870  0.10909  0.97947  1.0000
  O   O58       1.0  0.55961  0.89091  0.02053  1.0000
  O   O59       1.0  0.10909  0.66870  0.02053  1.0000
  O   O60       1.0  0.33130  0.44039  0.02053  1.0000
  O   O61       1.0  0.22424  0.22628  0.64614  1.0000
  O   O62       1.0  0.77372  0.99797  0.64614  1.0000
  O   O63       1.0  0.00203  0.77576  0.64614  1.0000
  O   O64       1.0  0.89294  0.55758  0.68720  1.0000
  O   O65       1.0  0.44242  0.33537  0.68720  1.0000
  O   O66       1.0  0.66463  0.10706  0.68720  1.0000
  O   O67       1.0  0.55758  0.89294  0.31280  1.0000
  O   O68       1.0  0.10706  0.66463  0.31280  1.0000
  O   O69       1.0  0.33537  0.44242  0.31280  1.0000
  O   O70       1.0  0.22628  0.22424  0.35386  1.0000
  O   O71       1.0  0.77576  0.00203  0.35386  1.0000
  O   O72       1.0  0.99797  0.77372  0.35386  1.0000
