data_image0
_chemical_formula_structural       Cd16C16H8C16H8C16H8C32H8C16H8C16H8C16O64S16
_chemical_formula_sum              "Cd16 C128 H48 O64 S16"
_cell_length_a       14.425
_cell_length_b       33.813
_cell_length_c       19.194
_cell_angle_alpha    90
_cell_angle_beta     104.061
_cell_angle_gamma    90

_space_group_name_H-M_alt    "P 1"
_space_group_IT_number       1

loop_
  _space_group_symop_operation_xyz
  'x, y, z'

loop_
  _atom_site_type_symbol
  _atom_site_label
  _atom_site_symmetry_multiplicity
  _atom_site_fract_x
  _atom_site_fract_y
  _atom_site_fract_z
  _atom_site_occupancy
  Cd  Cd1       1.0  0.82465  0.21978  0.20967  1.0000
  Cd  Cd2       1.0  0.67535  0.21978  0.79033  1.0000
  Cd  Cd3       1.0  0.32465  0.71978  0.70967  1.0000
  Cd  Cd4       1.0  0.17535  0.71978  0.29033  1.0000
  Cd  Cd5       1.0  0.17535  0.78022  0.79033  1.0000
  Cd  Cd6       1.0  0.32465  0.78022  0.20967  1.0000
  Cd  Cd7       1.0  0.67535  0.28022  0.29033  1.0000
  Cd  Cd8       1.0  0.82465  0.28022  0.70967  1.0000
  Cd  Cd9       1.0  0.25000  0.37664  0.00000  1.0000
  Cd  Cd10      1.0  0.75000  0.87664  0.50000  1.0000
  Cd  Cd11      1.0  0.75000  0.62336  0.00000  1.0000
  Cd  Cd12      1.0  0.25000  0.12336  0.50000  1.0000
  Cd  Cd13      1.0  0.25000  0.01640  0.50000  1.0000
  Cd  Cd14      1.0  0.75000  0.51640  0.00000  1.0000
  Cd  Cd15      1.0  0.75000  0.98360  0.50000  1.0000
  Cd  Cd16      1.0  0.25000  0.48360  0.00000  1.0000
  C   C1        1.0  0.58036  0.25596  0.97220  1.0000
  C   C2        1.0  0.91964  0.25596  0.02780  1.0000
  C   C3        1.0  0.08036  0.75596  0.47220  1.0000
  C   C4        1.0  0.41964  0.75596  0.52780  1.0000
  C   C5        1.0  0.41964  0.74404  0.02780  1.0000
  C   C6        1.0  0.08036  0.74404  0.97220  1.0000
  C   C7        1.0  0.91964  0.24404  0.52780  1.0000
  C   C8        1.0  0.58036  0.24404  0.47220  1.0000
  C   C9        1.0  0.51116  0.28466  0.96575  1.0000
  C   C10       1.0  0.98884  0.28466  0.03425  1.0000
  C   C11       1.0  0.01116  0.78466  0.46575  1.0000
  C   C12       1.0  0.48884  0.78466  0.53425  1.0000
  C   C13       1.0  0.48884  0.71534  0.03425  1.0000
  C   C14       1.0  0.01116  0.71534  0.96575  1.0000
  C   C15       1.0  0.98884  0.21534  0.53425  1.0000
  C   C16       1.0  0.51116  0.21534  0.46575  1.0000
  H   H1        1.0  0.48550  0.29630  0.92130  1.0000
  H   H2        1.0  0.01450  0.29630  0.07870  1.0000
  H   H3        1.0  0.98550  0.79630  0.42130  1.0000
  H   H4        1.0  0.51450  0.79630  0.57870  1.0000
  H   H5        1.0  0.51450  0.70370  0.07870  1.0000
  H   H6        1.0  0.98550  0.70370  0.92130  1.0000
  H   H7        1.0  0.01450  0.20370  0.57870  1.0000
  H   H8        1.0  0.48550  0.20370  0.42130  1.0000
  C   C17       1.0  0.47963  0.29627  0.02510  1.0000
  C   C18       1.0  0.02037  0.29627  0.97490  1.0000
  C   C19       1.0  0.97963  0.79627  0.52510  1.0000
  C   C20       1.0  0.52037  0.79627  0.47490  1.0000
  C   C21       1.0  0.52037  0.70373  0.97490  1.0000
  C   C22       1.0  0.97963  0.70373  0.02510  1.0000
  C   C23       1.0  0.02037  0.20373  0.47490  1.0000
  C   C24       1.0  0.47963  0.20373  0.52510  1.0000
  C   C25       1.0  0.52133  0.27980  0.09184  1.0000
  C   C26       1.0  0.97867  0.27980  0.90816  1.0000
  C   C27       1.0  0.02133  0.77980  0.59184  1.0000
  C   C28       1.0  0.47867  0.77980  0.40816  1.0000
  C   C29       1.0  0.47867  0.72020  0.90816  1.0000
  C   C30       1.0  0.02133  0.72020  0.09184  1.0000
  C   C31       1.0  0.97867  0.22020  0.40816  1.0000
  C   C32       1.0  0.52133  0.22020  0.59184  1.0000
  H   H9        1.0  0.50060  0.28780  0.13190  1.0000
  H   H10       1.0  0.99940  0.28780  0.86810  1.0000
  H   H11       1.0  0.00060  0.78780  0.63190  1.0000
  H   H12       1.0  0.49940  0.78780  0.36810  1.0000
  H   H13       1.0  0.49940  0.71220  0.86810  1.0000
  H   H14       1.0  0.00060  0.71220  0.13190  1.0000
  H   H15       1.0  0.99940  0.21220  0.36810  1.0000
  H   H16       1.0  0.50060  0.21220  0.63190  1.0000
  C   C33       1.0  0.59314  0.25177  0.09973  1.0000
  C   C34       1.0  0.90686  0.25177  0.90027  1.0000
  C   C35       1.0  0.09314  0.75177  0.59973  1.0000
  C   C36       1.0  0.40686  0.75177  0.40027  1.0000
  C   C37       1.0  0.40686  0.74823  0.90027  1.0000
  C   C38       1.0  0.09314  0.74823  0.09973  1.0000
  C   C39       1.0  0.90686  0.24823  0.40027  1.0000
  C   C40       1.0  0.59314  0.24823  0.59973  1.0000
  C   C41       1.0  0.62139  0.23937  0.03852  1.0000
  C   C42       1.0  0.87861  0.23937  0.96148  1.0000
  C   C43       1.0  0.12139  0.73937  0.53852  1.0000
  C   C44       1.0  0.37861  0.73937  0.46148  1.0000
  C   C45       1.0  0.37861  0.76063  0.96148  1.0000
  C   C46       1.0  0.12139  0.76063  0.03852  1.0000
  C   C47       1.0  0.87861  0.26063  0.46148  1.0000
  C   C48       1.0  0.62139  0.26063  0.53852  1.0000
  H   H17       1.0  0.66790  0.21990  0.04230  1.0000
  H   H18       1.0  0.83210  0.21990  0.95770  1.0000
  H   H19       1.0  0.16790  0.71990  0.54230  1.0000
  H   H20       1.0  0.33210  0.71990  0.45770  1.0000
  H   H21       1.0  0.33210  0.78010  0.95770  1.0000
  H   H22       1.0  0.16790  0.78010  0.04230  1.0000
  H   H23       1.0  0.83210  0.28010  0.45770  1.0000
  H   H24       1.0  0.66790  0.28010  0.54230  1.0000
  C   C49       1.0  0.61211  0.24169  0.90723  1.0000
  C   C50       1.0  0.88789  0.24169  0.09277  1.0000
  C   C51       1.0  0.11211  0.74169  0.40723  1.0000
  C   C52       1.0  0.38789  0.74169  0.59277  1.0000
  C   C53       1.0  0.38789  0.75831  0.09277  1.0000
  C   C54       1.0  0.11211  0.75831  0.90723  1.0000
  C   C55       1.0  0.88789  0.25831  0.59277  1.0000
  C   C56       1.0  0.61211  0.25831  0.40723  1.0000
  C   C57       1.0  0.39925  0.32560  0.01815  1.0000
  C   C58       1.0  0.10075  0.32560  0.98185  1.0000
  C   C59       1.0  0.89925  0.82560  0.51815  1.0000
  C   C60       1.0  0.60075  0.82560  0.48185  1.0000
  C   C61       1.0  0.60075  0.67440  0.98185  1.0000
  C   C62       1.0  0.89925  0.67440  0.01815  1.0000
  C   C63       1.0  0.10075  0.17440  0.48185  1.0000
  C   C64       1.0  0.39925  0.17440  0.51815  1.0000
  C   C65       1.0  0.92652  0.11552  0.32332  1.0000
  C   C66       1.0  0.57348  0.11552  0.67668  1.0000
  C   C67       1.0  0.42652  0.61552  0.82332  1.0000
  C   C68       1.0  0.07348  0.61552  0.17668  1.0000
  C   C69       1.0  0.07348  0.88448  0.67668  1.0000
  C   C70       1.0  0.42652  0.88448  0.32332  1.0000
  C   C71       1.0  0.57348  0.38448  0.17668  1.0000
  C   C72       1.0  0.92652  0.38448  0.82332  1.0000
  C   C73       1.0  0.86702  0.09131  0.35036  1.0000
  C   C74       1.0  0.63298  0.09131  0.64964  1.0000
  C   C75       1.0  0.36702  0.59131  0.85036  1.0000
  C   C76       1.0  0.13298  0.59131  0.14964  1.0000
  C   C77       1.0  0.13298  0.90869  0.64964  1.0000
  C   C78       1.0  0.36702  0.90869  0.35036  1.0000
  C   C79       1.0  0.63298  0.40869  0.14964  1.0000
  C   C80       1.0  0.86702  0.40869  0.85036  1.0000
  H   H25       1.0  0.80150  0.09600  0.33900  1.0000
  H   H26       1.0  0.69850  0.09600  0.66100  1.0000
  H   H27       1.0  0.30150  0.59600  0.83900  1.0000
  H   H28       1.0  0.19850  0.59600  0.16100  1.0000
  H   H29       1.0  0.19850  0.90400  0.66100  1.0000
  H   H30       1.0  0.30150  0.90400  0.33900  1.0000
  H   H31       1.0  0.69850  0.40400  0.16100  1.0000
  H   H32       1.0  0.80150  0.40400  0.83900  1.0000
  C   C81       1.0  0.90493  0.05993  0.39465  1.0000
  C   C82       1.0  0.59507  0.05993  0.60535  1.0000
  C   C83       1.0  0.40493  0.55993  0.89465  1.0000
  C   C84       1.0  0.09507  0.55993  0.10535  1.0000
  C   C85       1.0  0.09507  0.94007  0.60535  1.0000
  C   C86       1.0  0.40493  0.94007  0.39465  1.0000
  C   C87       1.0  0.59507  0.44007  0.10535  1.0000
  C   C88       1.0  0.90493  0.44007  0.89465  1.0000
  C   C89       1.0  0.00286  0.05318  0.41147  1.0000
  C   C90       1.0  0.49714  0.05318  0.58853  1.0000
  C   C91       1.0  0.50286  0.55318  0.91147  1.0000
  C   C92       1.0  0.99714  0.55318  0.08853  1.0000
  C   C93       1.0  0.99714  0.94682  0.58853  1.0000
  C   C94       1.0  0.50286  0.94682  0.41147  1.0000
  C   C95       1.0  0.49714  0.44682  0.08853  1.0000
  C   C96       1.0  0.00286  0.44682  0.91147  1.0000
  H   H33       1.0  0.02810  0.03220  0.44150  1.0000
  H   H34       1.0  0.47190  0.03220  0.55850  1.0000
  H   H35       1.0  0.52810  0.53220  0.94150  1.0000
  H   H36       1.0  0.97190  0.53220  0.05850  1.0000
  H   H37       1.0  0.97190  0.96780  0.55850  1.0000
  H   H38       1.0  0.52810  0.96780  0.44150  1.0000
  H   H39       1.0  0.47190  0.46780  0.05850  1.0000
  H   H40       1.0  0.02810  0.46780  0.94150  1.0000
  C   C97       1.0  0.06328  0.07711  0.38419  1.0000
  C   C98       1.0  0.43672  0.07711  0.61581  1.0000
  C   C99       1.0  0.56328  0.57711  0.88419  1.0000
  C   C100      1.0  0.93672  0.57711  0.11581  1.0000
  C   C101      1.0  0.93672  0.92289  0.61581  1.0000
  C   C102      1.0  0.56328  0.92289  0.38419  1.0000
  C   C103      1.0  0.43672  0.42289  0.11581  1.0000
  C   C104      1.0  0.06328  0.42289  0.88419  1.0000
  C   C105      1.0  0.02321  0.10861  0.33931  1.0000
  C   C106      1.0  0.47679  0.10861  0.66069  1.0000
  C   C107      1.0  0.52321  0.60861  0.83931  1.0000
  C   C108      1.0  0.97679  0.60861  0.16069  1.0000
  C   C109      1.0  0.97679  0.89139  0.66069  1.0000
  C   C110      1.0  0.52321  0.89139  0.33931  1.0000
  C   C111      1.0  0.47679  0.39139  0.16069  1.0000
  C   C112      1.0  0.02321  0.39139  0.83931  1.0000
  H   H41       1.0  0.06260  0.12500  0.32020  1.0000
  H   H42       1.0  0.43740  0.12500  0.67980  1.0000
  H   H43       1.0  0.56260  0.62500  0.82020  1.0000
  H   H44       1.0  0.93740  0.62500  0.17980  1.0000
  H   H45       1.0  0.93740  0.87500  0.67980  1.0000
  H   H46       1.0  0.56260  0.87500  0.32020  1.0000
  H   H47       1.0  0.43740  0.37500  0.17980  1.0000
  H   H48       1.0  0.06260  0.37500  0.82020  1.0000
  C   C113      1.0  0.88640  0.15126  0.27833  1.0000
  C   C114      1.0  0.61360  0.15126  0.72167  1.0000
  C   C115      1.0  0.38640  0.65126  0.77833  1.0000
  C   C116      1.0  0.11360  0.65126  0.22167  1.0000
  C   C117      1.0  0.11360  0.84874  0.72167  1.0000
  C   C118      1.0  0.38640  0.84874  0.27833  1.0000
  C   C119      1.0  0.61360  0.34874  0.22167  1.0000
  C   C120      1.0  0.88640  0.34874  0.77833  1.0000
  C   C121      1.0  0.84106  0.03452  0.42687  1.0000
  C   C122      1.0  0.65894  0.03452  0.57313  1.0000
  C   C123      1.0  0.34106  0.53452  0.92687  1.0000
  C   C124      1.0  0.15894  0.53452  0.07313  1.0000
  C   C125      1.0  0.15894  0.96548  0.57313  1.0000
  C   C126      1.0  0.34106  0.96548  0.42687  1.0000
  C   C127      1.0  0.65894  0.46548  0.07313  1.0000
  C   C128      1.0  0.84106  0.46548  0.92687  1.0000
  O   O1        1.0  0.65445  0.20962  0.90877  1.0000
  O   O2        1.0  0.84555  0.20962  0.09123  1.0000
  O   O3        1.0  0.15445  0.70962  0.40877  1.0000
  O   O4        1.0  0.34555  0.70962  0.59123  1.0000
  O   O5        1.0  0.34555  0.79038  0.09123  1.0000
  O   O6        1.0  0.15445  0.79038  0.90877  1.0000
  O   O7        1.0  0.84555  0.29038  0.59123  1.0000
  O   O8        1.0  0.65445  0.29038  0.40877  1.0000
  O   O9        1.0  0.59530  0.26310  0.85235  1.0000
  O   O10       1.0  0.90470  0.26310  0.14765  1.0000
  O   O11       1.0  0.09530  0.76310  0.35235  1.0000
  O   O12       1.0  0.40470  0.76310  0.64765  1.0000
  O   O13       1.0  0.40470  0.73690  0.14765  1.0000
  O   O14       1.0  0.09530  0.73690  0.85235  1.0000
  O   O15       1.0  0.90470  0.23690  0.64765  1.0000
  O   O16       1.0  0.59530  0.23690  0.35235  1.0000
  O   O17       1.0  0.38237  0.34919  0.96552  1.0000
  O   O18       1.0  0.11763  0.34919  0.03448  1.0000
  O   O19       1.0  0.88237  0.84919  0.46552  1.0000
  O   O20       1.0  0.61763  0.84919  0.53448  1.0000
  O   O21       1.0  0.61763  0.65081  0.03448  1.0000
  O   O22       1.0  0.88237  0.65081  0.96552  1.0000
  O   O23       1.0  0.11763  0.15081  0.53448  1.0000
  O   O24       1.0  0.38237  0.15081  0.46552  1.0000
  O   O25       1.0  0.35076  0.32554  0.06400  1.0000
  O   O26       1.0  0.14924  0.32554  0.93600  1.0000
  O   O27       1.0  0.85076  0.82554  0.56400  1.0000
  O   O28       1.0  0.64924  0.82554  0.43600  1.0000
  O   O29       1.0  0.64924  0.67446  0.93600  1.0000
  O   O30       1.0  0.85076  0.67446  0.06400  1.0000
  O   O31       1.0  0.14924  0.17446  0.43600  1.0000
  O   O32       1.0  0.35076  0.17446  0.56400  1.0000
  O   O33       1.0  0.94026  0.17155  0.25091  1.0000
  O   O34       1.0  0.55974  0.17155  0.74909  1.0000
  O   O35       1.0  0.44026  0.67155  0.75091  1.0000
  O   O36       1.0  0.05974  0.67155  0.24909  1.0000
  O   O37       1.0  0.05974  0.82845  0.74909  1.0000
  O   O38       1.0  0.44026  0.82845  0.25091  1.0000
  O   O39       1.0  0.55974  0.32845  0.24909  1.0000
  O   O40       1.0  0.94026  0.32845  0.75091  1.0000
  O   O41       1.0  0.80000  0.15941  0.27008  1.0000
  O   O42       1.0  0.70000  0.15941  0.72992  1.0000
  O   O43       1.0  0.30000  0.65941  0.77008  1.0000
  O   O44       1.0  0.20000  0.65941  0.22992  1.0000
  O   O45       1.0  0.20000  0.84059  0.72992  1.0000
  O   O46       1.0  0.30000  0.84059  0.27008  1.0000
  O   O47       1.0  0.70000  0.34059  0.22992  1.0000
  O   O48       1.0  0.80000  0.34059  0.77008  1.0000
  O   O49       1.0  0.75385  0.04023  0.41251  1.0000
  O   O50       1.0  0.74615  0.04023  0.58749  1.0000
  O   O51       1.0  0.25385  0.54023  0.91251  1.0000
  O   O52       1.0  0.24615  0.54023  0.08749  1.0000
  O   O53       1.0  0.24615  0.95977  0.58749  1.0000
  O   O54       1.0  0.25385  0.95977  0.41251  1.0000
  O   O55       1.0  0.74615  0.45977  0.08749  1.0000
  O   O56       1.0  0.75385  0.45977  0.91251  1.0000
  O   O57       1.0  0.87805  0.00741  0.46782  1.0000
  O   O58       1.0  0.62195  0.00741  0.53218  1.0000
  O   O59       1.0  0.37805  0.50741  0.96782  1.0000
  O   O60       1.0  0.12195  0.50741  0.03218  1.0000
  O   O61       1.0  0.12195  0.99259  0.53218  1.0000
  O   O62       1.0  0.37805  0.99259  0.46782  1.0000
  O   O63       1.0  0.62195  0.49259  0.03218  1.0000
  O   O64       1.0  0.87805  0.49259  0.96782  1.0000
  S   S1        1.0  0.64132  0.22927  0.18402  1.0000
  S   S2        1.0  0.85868  0.22927  0.81598  1.0000
  S   S3        1.0  0.14132  0.72927  0.68402  1.0000
  S   S4        1.0  0.35868  0.72927  0.31598  1.0000
  S   S5        1.0  0.35868  0.77073  0.81598  1.0000
  S   S6        1.0  0.14132  0.77073  0.18402  1.0000
  S   S7        1.0  0.85868  0.27073  0.31598  1.0000
  S   S8        1.0  0.64132  0.27073  0.68402  1.0000
  S   S9        1.0  0.18898  0.06973  0.40239  1.0000
  S   S10       1.0  0.31102  0.06973  0.59761  1.0000
  S   S11       1.0  0.68898  0.56973  0.90239  1.0000
  S   S12       1.0  0.81102  0.56973  0.09761  1.0000
  S   S13       1.0  0.81102  0.93027  0.59761  1.0000
  S   S14       1.0  0.68898  0.93027  0.40239  1.0000
  S   S15       1.0  0.31102  0.43027  0.09761  1.0000
  S   S16       1.0  0.18898  0.43027  0.90239  1.0000
