data_image0
_chemical_formula_structural       U3O24C20H28
_chemical_formula_sum              "U3 O24 C20 H28"
_cell_length_a       11.393
_cell_length_b       11.466
_cell_length_c       8.7817
_cell_angle_alpha    97.64
_cell_angle_beta     94.081
_cell_angle_gamma    79.79

_space_group_name_H-M_alt    "P 1"
_space_group_IT_number       1

loop_
  _space_group_symop_operation_xyz
  'x, y, z'

loop_
  _atom_site_type_symbol
  _atom_site_label
  _atom_site_symmetry_multiplicity
  _atom_site_fract_x
  _atom_site_fract_y
  _atom_site_fract_z
  _atom_site_occupancy
  U   U1        1.0  1.00000  0.00000  0.00000  1.0000
  U   U2        1.0  0.58269  0.65450  0.49993  1.0000
  U   U3        1.0  0.41731  0.34550  0.50007  1.0000
  O   O1        1.0  0.74410  0.75440  0.63720  1.0000
  O   O2        1.0  0.25590  0.24560  0.36280  1.0000
  O   O3        1.0  0.64510  0.83880  0.45070  1.0000
  O   O4        1.0  0.35490  0.16120  0.54930  1.0000
  O   O5        1.0  0.98860  0.89980  0.73350  1.0000
  O   O6        1.0  0.01140  0.10020  0.26650  1.0000
  O   O7        1.0  0.82110  0.99970  0.81920  1.0000
  O   O8        1.0  0.17890  0.00030  0.18080  1.0000
  O   O9        1.0  0.67070  0.57920  0.74820  1.0000
  O   O10       1.0  0.32930  0.42080  0.25180  1.0000
  O   O11       1.0  0.56180  0.46720  0.61120  1.0000
  O   O12       1.0  0.43820  0.53280  0.38880  1.0000
  O   O13       1.0  0.51040  0.28720  0.72900  1.0000
  O   O14       1.0  0.48960  0.71280  0.27100  1.0000
  O   O15       1.0  0.61020  0.23360  0.93770  1.0000
  O   O16       1.0  0.38980  0.76640  0.06230  1.0000
  O   O17       1.0  0.69780  0.56680  0.39500  1.0000
  O   O18       1.0  0.30220  0.43320  0.60500  1.0000
  O   O19       1.0  0.46760  0.73990  0.60750  1.0000
  O   O20       1.0  0.53240  0.26010  0.39250  1.0000
  O   O21       1.0  0.03270  0.12590  0.92950  1.0000
  O   O22       1.0  0.96730  0.87410  0.07050  1.0000
  O   O23       1.0  0.81170  0.12010  0.09670  1.0000
  O   O24       1.0  0.18830  0.87990  0.90330  1.0000
  C   C1        1.0  0.73120  0.83380  0.54920  1.0000
  C   C2        1.0  0.26880  0.16620  0.45080  1.0000
  C   C3        1.0  0.82090  0.91650  0.54920  1.0000
  C   C4        1.0  0.17910  0.08350  0.45080  1.0000
  C   C5        1.0  0.91440  0.85200  0.43410  1.0000
  C   C6        1.0  0.08560  0.14800  0.56590  1.0000
  C   C7        1.0  0.76120  0.03680  0.50100  1.0000
  C   C8        1.0  0.23880  0.96320  0.49900  1.0000
  C   C9        1.0  0.88060  0.93940  0.71120  1.0000
  C   C10       1.0  0.11940  0.06060  0.28880  1.0000
  C   C11       1.0  0.63230  0.48500  0.72830  1.0000
  C   C12       1.0  0.36770  0.51500  0.27170  1.0000
  C   C13       1.0  0.67430  0.38960  0.83050  1.0000
  C   C14       1.0  0.32570  0.61040  0.16950  1.0000
  C   C15       1.0  0.69800  0.44680  0.99400  1.0000
  C   C16       1.0  0.30200  0.55320  0.00600  1.0000
  C   C17       1.0  0.79210  0.32230  0.76300  1.0000
  C   C18       1.0  0.20790  0.67770  0.23700  1.0000
  C   C19       1.0  0.59100  0.29710  0.83250  1.0000
  C   C20       1.0  0.40900  0.70290  0.16750  1.0000
  H   H1        1.0  0.97360  0.89980  0.42820  1.0000
  H   H2        1.0  0.02640  0.10020  0.57180  1.0000
  H   H3        1.0  0.95160  0.77740  0.46630  1.0000
  H   H4        1.0  0.04840  0.22260  0.53370  1.0000
  H   H5        1.0  0.87630  0.83760  0.33470  1.0000
  H   H6        1.0  0.12370  0.16240  0.66530  1.0000
  H   H7        1.0  0.70210  0.07340  0.57160  1.0000
  H   H8        1.0  0.29790  0.92660  0.42840  1.0000
  H   H9        1.0  0.81980  0.08710  0.50260  1.0000
  H   H10       1.0  0.18020  0.91290  0.49740  1.0000
  H   H11       1.0  0.72570  0.02560  0.40090  1.0000
  H   H12       1.0  0.27430  0.97440  0.59910  1.0000
  H   H13       1.0  0.62120  0.49430  0.03190  1.0000
  H   H14       1.0  0.37880  0.50570  0.96810  1.0000
  H   H15       1.0  0.72200  0.38800  0.06010  1.0000
  H   H16       1.0  0.27800  0.61200  0.93990  1.0000
  H   H17       1.0  0.75180  0.49900  0.99720  1.0000
  H   H18       1.0  0.24820  0.50100  0.00280  1.0000
  H   H19       1.0  0.84510  0.37700  0.76870  1.0000
  H   H20       1.0  0.15490  0.62300  0.23130  1.0000
  H   H21       1.0  0.82210  0.26120  0.82610  1.0000
  H   H22       1.0  0.17790  0.73880  0.17390  1.0000
  H   H23       1.0  0.77580  0.29030  0.66260  1.0000
  H   H24       1.0  0.22420  0.70970  0.33740  1.0000
  H   H25       1.0  0.80900  0.17650  0.19460  1.0000
  H   H26       1.0  0.19100  0.82350  0.80540  1.0000
  H   H27       1.0  0.74830  0.14210  0.03450  1.0000
  H   H28       1.0  0.25170  0.85790  0.96550  1.0000
