data_image0
_chemical_formula_structural       Ag12S16C96H80
_chemical_formula_sum              "Ag12 S16 C96 H80"
_cell_length_a       12.252
_cell_length_b       13.371
_cell_length_c       18.831
_cell_angle_alpha    92.15
_cell_angle_beta     96.18
_cell_angle_gamma    84.64

_space_group_name_H-M_alt    "P 1"
_space_group_IT_number       1

loop_
  _space_group_symop_operation_xyz
  'x, y, z'

loop_
  _atom_site_type_symbol
  _atom_site_label
  _atom_site_symmetry_multiplicity
  _atom_site_fract_x
  _atom_site_fract_y
  _atom_site_fract_z
  _atom_site_occupancy
  Ag  Ag1       1.0  0.10223  0.50929  0.94739  1.0000
  Ag  Ag2       1.0  0.89777  0.49071  0.05261  1.0000
  Ag  Ag3       1.0  0.97338  0.63338  0.83536  1.0000
  Ag  Ag4       1.0  0.02662  0.36662  0.16464  1.0000
  Ag  Ag5       1.0  0.18895  0.68213  0.77940  1.0000
  Ag  Ag6       1.0  0.81105  0.31787  0.22060  1.0000
  Ag  Ag7       1.0  0.03348  0.53399  0.68794  1.0000
  Ag  Ag8       1.0  0.96652  0.46601  0.31206  1.0000
  Ag  Ag9       1.0  0.06505  0.81116  0.66564  1.0000
  Ag  Ag10      1.0  0.93495  0.18884  0.33436  1.0000
  Ag  Ag11      1.0  0.05385  0.61929  0.54387  1.0000
  Ag  Ag12      1.0  0.94615  0.38071  0.45613  1.0000
  S   S1        1.0  0.24480  0.59690  0.89430  1.0000
  S   S2        1.0  0.75520  0.40310  0.10570  1.0000
  S   S3        1.0  0.89120  0.61570  0.95610  1.0000
  S   S4        1.0  0.10880  0.38430  0.04390  1.0000
  S   S5        1.0  0.18010  0.87540  0.77120  1.0000
  S   S6        1.0  0.81990  0.12460  0.22880  1.0000
  S   S7        1.0  0.22050  0.58920  0.66040  1.0000
  S   S8        1.0  0.77950  0.41080  0.33960  1.0000
  S   S9        1.0  0.02990  0.44820  0.80320  1.0000
  S   S10       1.0  0.97010  0.55180  0.19680  1.0000
  S   S11       1.0  0.91840  0.74930  0.73890  1.0000
  S   S12       1.0  0.08160  0.25070  0.26110  1.0000
  S   S13       1.0  0.03920  0.80610  0.53620  1.0000
  S   S14       1.0  0.96080  0.19390  0.46380  1.0000
  S   S15       1.0  0.91040  0.50240  0.57100  1.0000
  S   S16       1.0  0.08960  0.49760  0.42900  1.0000
  C   C1        1.0  0.32290  0.67370  0.95400  1.0000
  C   C2        1.0  0.67710  0.32630  0.04600  1.0000
  C   C3        1.0  0.40610  0.63130  0.00150  1.0000
  C   C4        1.0  0.59390  0.36870  0.99850  1.0000
  C   C5        1.0  0.47200  0.68670  0.04600  1.0000
  C   C6        1.0  0.52800  0.31330  0.95400  1.0000
  C   C7        1.0  0.45490  0.79050  0.04560  1.0000
  C   C8        1.0  0.54510  0.20950  0.95440  1.0000
  C   C9        1.0  0.37300  0.83450  0.99940  1.0000
  C   C10       1.0  0.62700  0.16550  0.00060  1.0000
  C   C11       1.0  0.30600  0.77570  0.95360  1.0000
  C   C12       1.0  0.69400  0.22430  0.04640  1.0000
  C   C13       1.0  0.89450  0.73220  0.00210  1.0000
  C   C14       1.0  0.10550  0.26780  0.99790  1.0000
  C   C15       1.0  0.80520  0.77080  0.03720  1.0000
  C   C16       1.0  0.19480  0.22920  0.96280  1.0000
  C   C17       1.0  0.80750  0.86260  0.07340  1.0000
  C   C18       1.0  0.19250  0.13740  0.92660  1.0000
  C   C19       1.0  0.89600  0.91560  0.07350  1.0000
  C   C20       1.0  0.10400  0.08440  0.92650  1.0000
  C   C21       1.0  0.98620  0.88130  0.03930  1.0000
  C   C22       1.0  0.01380  0.11870  0.96070  1.0000
  C   C23       1.0  0.98270  0.78720  0.00500  1.0000
  C   C24       1.0  0.01730  0.21280  0.99500  1.0000
  C   C25       1.0  0.30600  0.90500  0.74350  1.0000
  C   C26       1.0  0.69400  0.09500  0.25650  1.0000
  C   C27       1.0  0.37910  0.95170  0.79330  1.0000
  C   C28       1.0  0.62090  0.04830  0.20670  1.0000
  C   C29       1.0  0.47600  0.98120  0.77310  1.0000
  C   C30       1.0  0.52400  0.01880  0.22690  1.0000
  C   C31       1.0  0.50530  0.96470  0.70710  1.0000
  C   C32       1.0  0.49470  0.03530  0.29290  1.0000
  C   C33       1.0  0.43420  0.91640  0.65720  1.0000
  C   C34       1.0  0.56580  0.08360  0.34280  1.0000
  C   C35       1.0  0.33570  0.88650  0.67520  1.0000
  C   C36       1.0  0.66430  0.11350  0.32480  1.0000
  C   C37       1.0  0.29670  0.46950  0.67130  1.0000
  C   C38       1.0  0.70330  0.53050  0.32870  1.0000
  C   C39       1.0  0.32880  0.43040  0.73780  1.0000
  C   C40       1.0  0.67120  0.56960  0.26220  1.0000
  C   C41       1.0  0.39090  0.33900  0.74530  1.0000
  C   C42       1.0  0.60910  0.66100  0.25470  1.0000
  C   C43       1.0  0.42270  0.28560  0.68530  1.0000
  C   C44       1.0  0.57730  0.71440  0.31470  1.0000
  C   C45       1.0  0.39080  0.32480  0.62030  1.0000
  C   C46       1.0  0.60920  0.67520  0.37970  1.0000
  C   C47       1.0  0.32630  0.41450  0.61260  1.0000
  C   C48       1.0  0.67370  0.58550  0.38740  1.0000
  C   C49       1.0  0.90010  0.39710  0.80260  1.0000
  C   C50       1.0  0.09990  0.60290  0.19740  1.0000
  C   C51       1.0  0.82700  0.39270  0.74210  1.0000
  C   C52       1.0  0.17300  0.60730  0.25790  1.0000
  C   C53       1.0  0.72970  0.34730  0.74090  1.0000
  C   C54       1.0  0.27030  0.65270  0.25910  1.0000
  C   C55       1.0  0.70490  0.30930  0.80370  1.0000
  C   C56       1.0  0.29510  0.69070  0.19630  1.0000
  C   C57       1.0  0.77610  0.31280  0.86460  1.0000
  C   C58       1.0  0.22390  0.68720  0.13540  1.0000
  C   C59       1.0  0.87180  0.35850  0.86350  1.0000
  C   C60       1.0  0.12820  0.64150  0.13650  1.0000
  C   C61       1.0  0.86100  0.86450  0.77470  1.0000
  C   C62       1.0  0.13900  0.13550  0.22530  1.0000
  C   C63       1.0  0.83830  0.87270  0.84470  1.0000
  C   C64       1.0  0.16170  0.12730  0.15530  1.0000
  C   C65       1.0  0.79020  0.96100  0.87180  1.0000
  C   C66       1.0  0.20980  0.03900  0.12820  1.0000
  C   C67       1.0  0.76190  0.04100  0.83110  1.0000
  C   C68       1.0  0.23810  0.95900  0.16890  1.0000
  C   C69       1.0  0.78200  0.03530  0.76170  1.0000
  C   C70       1.0  0.21800  0.96470  0.23830  1.0000
  C   C71       1.0  0.83100  0.94550  0.73220  1.0000
  C   C72       1.0  0.16900  0.05450  0.26780  1.0000
  C   C73       1.0  0.16160  0.83920  0.50320  1.0000
  C   C74       1.0  0.83840  0.16080  0.49680  1.0000
  C   C75       1.0  0.24900  0.76670  0.49390  1.0000
  C   C76       1.0  0.75100  0.23330  0.50610  1.0000
  C   C77       1.0  0.33930  0.79470  0.46570  1.0000
  C   C78       1.0  0.66070  0.20530  0.53430  1.0000
  C   C79       1.0  0.34930  0.89000  0.44660  1.0000
  C   C80       1.0  0.65070  0.11000  0.55340  1.0000
  C   C81       1.0  0.26370  0.96120  0.45600  1.0000
  C   C82       1.0  0.73630  0.03880  0.54400  1.0000
  C   C83       1.0  0.17000  0.93640  0.48440  1.0000
  C   C84       1.0  0.83000  0.06360  0.51560  1.0000
  C   C85       1.0  0.77660  0.56290  0.57630  1.0000
  C   C86       1.0  0.22340  0.43710  0.42370  1.0000
  C   C87       1.0  0.75690  0.66560  0.57790  1.0000
  C   C88       1.0  0.24310  0.33440  0.42210  1.0000
  C   C89       1.0  0.65100  0.71170  0.58150  1.0000
  C   C90       1.0  0.34900  0.28830  0.41850  1.0000
  C   C91       1.0  0.56480  0.65720  0.58350  1.0000
  C   C92       1.0  0.43520  0.34280  0.41650  1.0000
  C   C93       1.0  0.58270  0.55370  0.58240  1.0000
  C   C94       1.0  0.41730  0.44630  0.41760  1.0000
  C   C95       1.0  0.68850  0.50600  0.57960  1.0000
  C   C96       1.0  0.31150  0.49400  0.42040  1.0000
  H   H1        1.0  0.41730  0.56040  0.00260  1.0000
  H   H2        1.0  0.58270  0.43960  0.99740  1.0000
  H   H3        1.0  0.52900  0.65450  0.07840  1.0000
  H   H4        1.0  0.47100  0.34550  0.92160  1.0000
  H   H5        1.0  0.50280  0.82810  0.07680  1.0000
  H   H6        1.0  0.49720  0.17190  0.92320  1.0000
  H   H7        1.0  0.36180  0.90640  0.99960  1.0000
  H   H8        1.0  0.63820  0.09360  0.00040  1.0000
  H   H9        1.0  0.24810  0.80830  0.92260  1.0000
  H   H10       1.0  0.75190  0.19170  0.07740  1.0000
  H   H11       1.0  0.74200  0.73330  0.03660  1.0000
  H   H12       1.0  0.25800  0.26670  0.96340  1.0000
  H   H13       1.0  0.74440  0.88820  0.09730  1.0000
  H   H14       1.0  0.25560  0.11180  0.90270  1.0000
  H   H15       1.0  0.89400  0.97710  0.09800  1.0000
  H   H16       1.0  0.10600  0.02290  0.90200  1.0000
  H   H17       1.0  0.04850  0.92020  0.04090  1.0000
  H   H18       1.0  0.95150  0.07980  0.95910  1.0000
  H   H19       1.0  0.04530  0.76110  0.98270  1.0000
  H   H20       1.0  0.95470  0.23890  0.01730  1.0000
  H   H21       1.0  0.36130  0.96410  0.84130  1.0000
  H   H22       1.0  0.63870  0.03590  0.15870  1.0000
  H   H23       1.0  0.52270  0.01520  0.80790  1.0000
  H   H24       1.0  0.47730  0.98480  0.19210  1.0000
  H   H25       1.0  0.57200  0.98520  0.69390  1.0000
  H   H26       1.0  0.42800  0.01480  0.30610  1.0000
  H   H27       1.0  0.45370  0.90350  0.60990  1.0000
  H   H28       1.0  0.54630  0.09650  0.39010  1.0000
  H   H29       1.0  0.28830  0.85370  0.64060  1.0000
  H   H30       1.0  0.71170  0.14630  0.35940  1.0000
  H   H31       1.0  0.30750  0.46640  0.77910  1.0000
  H   H32       1.0  0.69250  0.53360  0.22090  1.0000
  H   H33       1.0  0.41220  0.31310  0.79140  1.0000
  H   H34       1.0  0.58780  0.68690  0.20860  1.0000
  H   H35       1.0  0.46690  0.22420  0.69020  1.0000
  H   H36       1.0  0.53310  0.77580  0.30980  1.0000
  H   H37       1.0  0.41280  0.28940  0.57890  1.0000
  H   H38       1.0  0.58720  0.71060  0.42110  1.0000
  H   H39       1.0  0.30150  0.43830  0.56620  1.0000
  H   H40       1.0  0.69850  0.56170  0.43380  1.0000
  H   H41       1.0  0.84300  0.42190  0.69970  1.0000
  H   H42       1.0  0.15700  0.57810  0.30030  1.0000
  H   H43       1.0  0.68180  0.34220  0.69820  1.0000
  H   H44       1.0  0.31820  0.65780  0.30180  1.0000
  H   H45       1.0  0.63710  0.27990  0.80450  1.0000
  H   H46       1.0  0.36290  0.72010  0.19550  1.0000
  H   H47       1.0  0.76020  0.28360  0.90740  1.0000
  H   H48       1.0  0.23980  0.71640  0.09260  1.0000
  H   H49       1.0  0.91950  0.36370  0.90650  1.0000
  H   H50       1.0  0.08050  0.63630  0.09350  1.0000
  H   H51       1.0  0.85620  0.81660  0.87490  1.0000
  H   H52       1.0  0.14380  0.18340  0.12510  1.0000
  H   H53       1.0  0.77720  0.96450  0.92080  1.0000
  H   H54       1.0  0.22280  0.03550  0.07920  1.0000
  H   H55       1.0  0.72760  0.10080  0.85010  1.0000
  H   H56       1.0  0.27240  0.89920  0.14990  1.0000
  H   H57       1.0  0.76310  0.09150  0.73210  1.0000
  H   H58       1.0  0.23690  0.90850  0.26790  1.0000
  H   H59       1.0  0.84300  0.94240  0.68290  1.0000
  H   H60       1.0  0.15700  0.05760  0.31710  1.0000
  H   H61       1.0  0.24540  0.69960  0.50720  1.0000
  H   H62       1.0  0.75460  0.30040  0.49280  1.0000
  H   H63       1.0  0.39820  0.74470  0.45900  1.0000
  H   H64       1.0  0.60180  0.25530  0.54100  1.0000
  H   H65       1.0  0.41340  0.90690  0.42780  1.0000
  H   H66       1.0  0.58660  0.09310  0.57220  1.0000
  H   H67       1.0  0.26840  0.02860  0.44240  1.0000
  H   H68       1.0  0.73160  0.97140  0.55760  1.0000
  H   H69       1.0  0.11250  0.98680  0.49110  1.0000
  H   H70       1.0  0.88750  0.01320  0.50890  1.0000
  H   H71       1.0  0.81670  0.70590  0.57670  1.0000
  H   H72       1.0  0.18330  0.29410  0.42330  1.0000
  H   H73       1.0  0.63960  0.78280  0.58280  1.0000
  H   H74       1.0  0.36040  0.21720  0.41720  1.0000
  H   H75       1.0  0.49260  0.68720  0.58540  1.0000
  H   H76       1.0  0.50740  0.31280  0.41460  1.0000
  H   H77       1.0  0.52270  0.51330  0.58310  1.0000
  H   H78       1.0  0.47730  0.48670  0.41690  1.0000
  H   H79       1.0  0.70080  0.43430  0.58050  1.0000
  H   H80       1.0  0.29920  0.56570  0.41950  1.0000
