data_image0
_chemical_formula_structural       Zn12O40C8O8C16H8C32H8C16H8O8C8H8C8H8C8H8O8C24H8C8H8
_chemical_formula_sum              "Zn12 O64 C128 H64"
_cell_length_a       33.2338
_cell_length_b       9.7575
_cell_length_c       18.2013
_cell_angle_alpha    90
_cell_angle_beta     93.461
_cell_angle_gamma    90

_space_group_name_H-M_alt    "P 1"
_space_group_IT_number       1

loop_
  _space_group_symop_operation_xyz
  'x, y, z'

loop_
  _atom_site_type_symbol
  _atom_site_label
  _atom_site_symmetry_multiplicity
  _atom_site_fract_x
  _atom_site_fract_y
  _atom_site_fract_z
  _atom_site_occupancy
  Zn  Zn1       1.0  0.15285  0.30074  0.48450  1.0000
  Zn  Zn2       1.0  0.84715  0.30074  0.01550  1.0000
  Zn  Zn3       1.0  0.65285  0.80074  0.48450  1.0000
  Zn  Zn4       1.0  0.34715  0.80074  0.01550  1.0000
  Zn  Zn5       1.0  0.84715  0.69926  0.51550  1.0000
  Zn  Zn6       1.0  0.15285  0.69926  0.98450  1.0000
  Zn  Zn7       1.0  0.34715  0.19926  0.51550  1.0000
  Zn  Zn8       1.0  0.65285  0.19926  0.98450  1.0000
  Zn  Zn9       1.0  0.25000  0.25000  0.50000  1.0000
  Zn  Zn10      1.0  0.75000  0.25000  0.00000  1.0000
  Zn  Zn11      1.0  0.75000  0.75000  0.50000  1.0000
  Zn  Zn12      1.0  0.25000  0.75000  0.00000  1.0000
  O   O1        1.0  0.22652  0.18870  0.39891  1.0000
  O   O2        1.0  0.77348  0.18870  0.10109  1.0000
  O   O3        1.0  0.72652  0.68870  0.39891  1.0000
  O   O4        1.0  0.27348  0.68870  0.10109  1.0000
  O   O5        1.0  0.77348  0.81130  0.60109  1.0000
  O   O6        1.0  0.22652  0.81130  0.89891  1.0000
  O   O7        1.0  0.27348  0.31130  0.60109  1.0000
  O   O8        1.0  0.72652  0.31130  0.89891  1.0000
  O   O9        1.0  0.15948  0.18050  0.39938  1.0000
  O   O10       1.0  0.84052  0.18050  0.10062  1.0000
  O   O11       1.0  0.65948  0.68050  0.39938  1.0000
  O   O12       1.0  0.34052  0.68050  0.10062  1.0000
  O   O13       1.0  0.84052  0.81950  0.60062  1.0000
  O   O14       1.0  0.15948  0.81950  0.89938  1.0000
  O   O15       1.0  0.34052  0.31950  0.60062  1.0000
  O   O16       1.0  0.65948  0.31950  0.89938  1.0000
  O   O17       1.0  0.15393  0.81100  0.07496  1.0000
  O   O18       1.0  0.84607  0.81100  0.42504  1.0000
  O   O19       1.0  0.65393  0.31100  0.07496  1.0000
  O   O20       1.0  0.34607  0.31100  0.42504  1.0000
  O   O21       1.0  0.84607  0.18900  0.92504  1.0000
  O   O22       1.0  0.15393  0.18900  0.57496  1.0000
  O   O23       1.0  0.34607  0.68900  0.92504  1.0000
  O   O24       1.0  0.65393  0.68900  0.57496  1.0000
  O   O25       1.0  0.20226  0.41250  0.50518  1.0000
  O   O26       1.0  0.79774  0.41250  0.99482  1.0000
  O   O27       1.0  0.70226  0.91250  0.50518  1.0000
  O   O28       1.0  0.29774  0.91250  0.99482  1.0000
  O   O29       1.0  0.79774  0.58750  0.49482  1.0000
  O   O30       1.0  0.20226  0.58750  0.00518  1.0000
  O   O31       1.0  0.29774  0.08750  0.49482  1.0000
  O   O32       1.0  0.70226  0.08750  0.00518  1.0000
  O   O33       1.0  0.21626  0.88310  0.05596  1.0000
  O   O34       1.0  0.78374  0.88310  0.44404  1.0000
  O   O35       1.0  0.71626  0.38310  0.05596  1.0000
  O   O36       1.0  0.28374  0.38310  0.44404  1.0000
  O   O37       1.0  0.78374  0.11690  0.94404  1.0000
  O   O38       1.0  0.21626  0.11690  0.55596  1.0000
  O   O39       1.0  0.28374  0.61690  0.94404  1.0000
  O   O40       1.0  0.71626  0.61690  0.55596  1.0000
  C   C1        1.0  0.18595  0.87710  0.09310  1.0000
  C   C2        1.0  0.81405  0.87710  0.40690  1.0000
  C   C3        1.0  0.68595  0.37710  0.09310  1.0000
  C   C4        1.0  0.31405  0.37710  0.40690  1.0000
  C   C5        1.0  0.81405  0.12290  0.90690  1.0000
  C   C6        1.0  0.18595  0.12290  0.59310  1.0000
  C   C7        1.0  0.31405  0.62290  0.90690  1.0000
  C   C8        1.0  0.68595  0.62290  0.59310  1.0000
  O   O41       1.0  0.09639  0.34850  0.46320  1.0000
  O   O42       1.0  0.90361  0.34850  0.03680  1.0000
  O   O43       1.0  0.59639  0.84850  0.46320  1.0000
  O   O44       1.0  0.40361  0.84850  0.03680  1.0000
  O   O45       1.0  0.90361  0.65150  0.53680  1.0000
  O   O46       1.0  0.09639  0.65150  0.96320  1.0000
  O   O47       1.0  0.40361  0.15150  0.53680  1.0000
  O   O48       1.0  0.59639  0.15150  0.96320  1.0000
  C   C9        1.0  0.22619  0.63660  0.48130  1.0000
  C   C10       1.0  0.77381  0.63660  0.01870  1.0000
  C   C11       1.0  0.72619  0.13660  0.48130  1.0000
  C   C12       1.0  0.27381  0.13660  0.01870  1.0000
  C   C13       1.0  0.77381  0.36340  0.51870  1.0000
  C   C14       1.0  0.22619  0.36340  0.98130  1.0000
  C   C15       1.0  0.27381  0.86340  0.51870  1.0000
  C   C16       1.0  0.72619  0.86340  0.98130  1.0000
  C   C17       1.0  0.24973  0.63920  0.54710  1.0000
  C   C18       1.0  0.75027  0.63920  0.95290  1.0000
  C   C19       1.0  0.74973  0.13920  0.54710  1.0000
  C   C20       1.0  0.25027  0.13920  0.95290  1.0000
  C   C21       1.0  0.75027  0.36080  0.45290  1.0000
  C   C22       1.0  0.24973  0.36080  0.04710  1.0000
  C   C23       1.0  0.25027  0.86080  0.45290  1.0000
  C   C24       1.0  0.74973  0.86080  0.04710  1.0000
  H   H1        1.0  0.24940  0.56530  0.57930  1.0000
  H   H2        1.0  0.75060  0.56530  0.92070  1.0000
  H   H3        1.0  0.74940  0.06530  0.57930  1.0000
  H   H4        1.0  0.25060  0.06530  0.92070  1.0000
  H   H5        1.0  0.75060  0.43470  0.42070  1.0000
  H   H6        1.0  0.24940  0.43470  0.07930  1.0000
  H   H7        1.0  0.25060  0.93470  0.42070  1.0000
  H   H8        1.0  0.74940  0.93470  0.07930  1.0000
  C   C25       1.0  0.19035  0.08410  0.29950  1.0000
  C   C26       1.0  0.80965  0.08410  0.20050  1.0000
  C   C27       1.0  0.69035  0.58410  0.29950  1.0000
  C   C28       1.0  0.30965  0.58410  0.20050  1.0000
  C   C29       1.0  0.80965  0.91590  0.70050  1.0000
  C   C30       1.0  0.19035  0.91590  0.79950  1.0000
  C   C31       1.0  0.30965  0.41590  0.70050  1.0000
  C   C32       1.0  0.69035  0.41590  0.79950  1.0000
  C   C33       1.0  0.19972  0.51680  0.46240  1.0000
  C   C34       1.0  0.80028  0.51680  0.03760  1.0000
  C   C35       1.0  0.69972  0.01680  0.46240  1.0000
  C   C36       1.0  0.30028  0.01680  0.03760  1.0000
  C   C37       1.0  0.80028  0.48320  0.53760  1.0000
  C   C38       1.0  0.19972  0.48320  0.96240  1.0000
  C   C39       1.0  0.30028  0.98320  0.53760  1.0000
  C   C40       1.0  0.69972  0.98320  0.96240  1.0000
  C   C41       1.0  0.19291  0.15770  0.37230  1.0000
  C   C42       1.0  0.80709  0.15770  0.12770  1.0000
  C   C43       1.0  0.69291  0.65770  0.37230  1.0000
  C   C44       1.0  0.30709  0.65770  0.12770  1.0000
  C   C45       1.0  0.80709  0.84230  0.62770  1.0000
  C   C46       1.0  0.19291  0.84230  0.87230  1.0000
  C   C47       1.0  0.30709  0.34230  0.62770  1.0000
  C   C48       1.0  0.69291  0.34230  0.87230  1.0000
  C   C49       1.0  0.15524  0.03220  0.26980  1.0000
  C   C50       1.0  0.84476  0.03220  0.23020  1.0000
  C   C51       1.0  0.65524  0.53220  0.26980  1.0000
  C   C52       1.0  0.34476  0.53220  0.23020  1.0000
  C   C53       1.0  0.84476  0.96780  0.73020  1.0000
  C   C54       1.0  0.15524  0.96780  0.76980  1.0000
  C   C55       1.0  0.34476  0.46780  0.73020  1.0000
  C   C56       1.0  0.65524  0.46780  0.76980  1.0000
  H   H9        1.0  0.13190  0.04130  0.29500  1.0000
  H   H10       1.0  0.86810  0.04130  0.20500  1.0000
  H   H11       1.0  0.63190  0.54130  0.29500  1.0000
  H   H12       1.0  0.36810  0.54130  0.20500  1.0000
  H   H13       1.0  0.86810  0.95870  0.70500  1.0000
  H   H14       1.0  0.13190  0.95870  0.79500  1.0000
  H   H15       1.0  0.36810  0.45870  0.70500  1.0000
  H   H16       1.0  0.63190  0.45870  0.79500  1.0000
  C   C57       1.0  0.18737  0.95140  0.16390  1.0000
  C   C58       1.0  0.81263  0.95140  0.33610  1.0000
  C   C59       1.0  0.68737  0.45140  0.16390  1.0000
  C   C60       1.0  0.31263  0.45140  0.33610  1.0000
  C   C61       1.0  0.81263  0.04860  0.83610  1.0000
  C   C62       1.0  0.18737  0.04860  0.66390  1.0000
  C   C63       1.0  0.31263  0.54860  0.83610  1.0000
  C   C64       1.0  0.68737  0.54860  0.66390  1.0000
  C   C65       1.0  0.22645  0.74860  0.43540  1.0000
  C   C66       1.0  0.77355  0.74860  0.06460  1.0000
  C   C67       1.0  0.72645  0.24860  0.43540  1.0000
  C   C68       1.0  0.27355  0.24860  0.06460  1.0000
  C   C69       1.0  0.77355  0.25140  0.56460  1.0000
  C   C70       1.0  0.22645  0.25140  0.93540  1.0000
  C   C71       1.0  0.27355  0.75140  0.56460  1.0000
  C   C72       1.0  0.72645  0.75140  0.93540  1.0000
  H   H17       1.0  0.21030  0.74850  0.39190  1.0000
  H   H18       1.0  0.78970  0.74850  0.10810  1.0000
  H   H19       1.0  0.71030  0.24850  0.39190  1.0000
  H   H20       1.0  0.28970  0.24850  0.10810  1.0000
  H   H21       1.0  0.78970  0.25150  0.60810  1.0000
  H   H22       1.0  0.21030  0.25150  0.89190  1.0000
  H   H23       1.0  0.28970  0.75150  0.60810  1.0000
  H   H24       1.0  0.71030  0.75150  0.89190  1.0000
  O   O49       1.0  0.17600  0.51980  0.40800  1.0000
  O   O50       1.0  0.82400  0.51980  0.09200  1.0000
  O   O51       1.0  0.67600  0.01980  0.40800  1.0000
  O   O52       1.0  0.32400  0.01980  0.09200  1.0000
  O   O53       1.0  0.82400  0.48020  0.59200  1.0000
  O   O54       1.0  0.17600  0.48020  0.90800  1.0000
  O   O55       1.0  0.32400  0.98020  0.59200  1.0000
  O   O56       1.0  0.67600  0.98020  0.90800  1.0000
  C   C73       1.0  0.22307  0.00530  0.19350  1.0000
  C   C74       1.0  0.77693  0.00530  0.30650  1.0000
  C   C75       1.0  0.72307  0.50530  0.19350  1.0000
  C   C76       1.0  0.27693  0.50530  0.30650  1.0000
  C   C77       1.0  0.77693  0.99470  0.80650  1.0000
  C   C78       1.0  0.22307  0.99470  0.69350  1.0000
  C   C79       1.0  0.27693  0.49470  0.80650  1.0000
  C   C80       1.0  0.72307  0.49470  0.69350  1.0000
  H   H25       1.0  0.24630  0.99780  0.16780  1.0000
  H   H26       1.0  0.75370  0.99780  0.33220  1.0000
  H   H27       1.0  0.74630  0.49780  0.16780  1.0000
  H   H28       1.0  0.25370  0.49780  0.33220  1.0000
  H   H29       1.0  0.75370  0.00220  0.83220  1.0000
  H   H30       1.0  0.24630  0.00220  0.66780  1.0000
  H   H31       1.0  0.25370  0.50220  0.83220  1.0000
  H   H32       1.0  0.74630  0.50220  0.66780  1.0000
  C   C81       1.0  0.15367  0.96610  0.20280  1.0000
  C   C82       1.0  0.84633  0.96610  0.29720  1.0000
  C   C83       1.0  0.65367  0.46610  0.20280  1.0000
  C   C84       1.0  0.34633  0.46610  0.29720  1.0000
  C   C85       1.0  0.84633  0.03390  0.79720  1.0000
  C   C86       1.0  0.15367  0.03390  0.70280  1.0000
  C   C87       1.0  0.34633  0.53390  0.79720  1.0000
  C   C88       1.0  0.65367  0.53390  0.70280  1.0000
  H   H33       1.0  0.12920  0.93080  0.18370  1.0000
  H   H34       1.0  0.87080  0.93080  0.31630  1.0000
  H   H35       1.0  0.62920  0.43080  0.18370  1.0000
  H   H36       1.0  0.37080  0.43080  0.31630  1.0000
  H   H37       1.0  0.87080  0.06920  0.81630  1.0000
  H   H38       1.0  0.12920  0.06920  0.68370  1.0000
  H   H39       1.0  0.37080  0.56920  0.81630  1.0000
  H   H40       1.0  0.62920  0.56920  0.68370  1.0000
  C   C89       1.0  0.22448  0.07010  0.26080  1.0000
  C   C90       1.0  0.77552  0.07010  0.23920  1.0000
  C   C91       1.0  0.72448  0.57010  0.26080  1.0000
  C   C92       1.0  0.27552  0.57010  0.23920  1.0000
  C   C93       1.0  0.77552  0.92990  0.73920  1.0000
  C   C94       1.0  0.22448  0.92990  0.76080  1.0000
  C   C95       1.0  0.27552  0.42990  0.73920  1.0000
  C   C96       1.0  0.72448  0.42990  0.76080  1.0000
  H   H41       1.0  0.24890  0.10500  0.28050  1.0000
  H   H42       1.0  0.75110  0.10500  0.21950  1.0000
  H   H43       1.0  0.74890  0.60500  0.28050  1.0000
  H   H44       1.0  0.25110  0.60500  0.21950  1.0000
  H   H45       1.0  0.75110  0.89500  0.71950  1.0000
  H   H46       1.0  0.24890  0.89500  0.78050  1.0000
  H   H47       1.0  0.25110  0.39500  0.71950  1.0000
  H   H48       1.0  0.74890  0.39500  0.78050  1.0000
  O   O57       1.0  0.10790  0.48250  0.55960  1.0000
  O   O58       1.0  0.89210  0.48250  0.94040  1.0000
  O   O59       1.0  0.60790  0.98250  0.55960  1.0000
  O   O60       1.0  0.39210  0.98250  0.94040  1.0000
  O   O61       1.0  0.89210  0.51750  0.44040  1.0000
  O   O62       1.0  0.10790  0.51750  0.05960  1.0000
  O   O63       1.0  0.39210  0.01750  0.44040  1.0000
  O   O64       1.0  0.60790  0.01750  0.05960  1.0000
  C   C97       1.0  0.04081  0.46690  0.50440  1.0000
  C   C98       1.0  0.95919  0.46690  0.99560  1.0000
  C   C99       1.0  0.54081  0.96690  0.50440  1.0000
  C   C100      1.0  0.45919  0.96690  0.99560  1.0000
  C   C101      1.0  0.95919  0.53310  0.49560  1.0000
  C   C102      1.0  0.04081  0.53310  0.00440  1.0000
  C   C103      1.0  0.45919  0.03310  0.49560  1.0000
  C   C104      1.0  0.54081  0.03310  0.00440  1.0000
  C   C105      1.0  0.08487  0.42910  0.51030  1.0000
  C   C106      1.0  0.91513  0.42910  0.98970  1.0000
  C   C107      1.0  0.58487  0.92910  0.51030  1.0000
  C   C108      1.0  0.41513  0.92910  0.98970  1.0000
  C   C109      1.0  0.91513  0.57090  0.48970  1.0000
  C   C110      1.0  0.08487  0.57090  0.01030  1.0000
  C   C111      1.0  0.41513  0.07090  0.48970  1.0000
  C   C112      1.0  0.58487  0.07090  0.01030  1.0000
  C   C113      1.0  0.01479  0.41110  0.45290  1.0000
  C   C114      1.0  0.98521  0.41110  0.04710  1.0000
  C   C115      1.0  0.51479  0.91110  0.45290  1.0000
  C   C116      1.0  0.48521  0.91110  0.04710  1.0000
  C   C117      1.0  0.98521  0.58890  0.54710  1.0000
  C   C118      1.0  0.01479  0.58890  0.95290  1.0000
  C   C119      1.0  0.48521  0.08890  0.54710  1.0000
  C   C120      1.0  0.51479  0.08890  0.95290  1.0000
  H   H49       1.0  0.02470  0.34890  0.41970  1.0000
  H   H50       1.0  0.97530  0.34890  0.08030  1.0000
  H   H51       1.0  0.52470  0.84890  0.41970  1.0000
  H   H52       1.0  0.47530  0.84890  0.08030  1.0000
  H   H53       1.0  0.97530  0.65110  0.58030  1.0000
  H   H54       1.0  0.02470  0.65110  0.91970  1.0000
  H   H55       1.0  0.47530  0.15110  0.58030  1.0000
  H   H56       1.0  0.52470  0.15110  0.91970  1.0000
  C   C121      1.0  0.97492  0.44170  0.44730  1.0000
  C   C122      1.0  0.02508  0.44170  0.05270  1.0000
  C   C123      1.0  0.47492  0.94170  0.44730  1.0000
  C   C124      1.0  0.52508  0.94170  0.05270  1.0000
  C   C125      1.0  0.02508  0.55830  0.55270  1.0000
  C   C126      1.0  0.97492  0.55830  0.94730  1.0000
  C   C127      1.0  0.52508  0.05830  0.55270  1.0000
  C   C128      1.0  0.47492  0.05830  0.94730  1.0000
  H   H57       1.0  0.95820  0.40090  0.41090  1.0000
  H   H58       1.0  0.04180  0.40090  0.08910  1.0000
  H   H59       1.0  0.45820  0.90090  0.41090  1.0000
  H   H60       1.0  0.54180  0.90090  0.08910  1.0000
  H   H61       1.0  0.04180  0.59910  0.58910  1.0000
  H   H62       1.0  0.95820  0.59910  0.91090  1.0000
  H   H63       1.0  0.54180  0.09910  0.58910  1.0000
  H   H64       1.0  0.45820  0.09910  0.91090  1.0000
