data_image0
_chemical_formula_structural       C8H4C4H4C12H4C8H4C4H4C12H4C20H4C4H4C12H4C8H4C4H4C12H4C12N8O64Tb6
_chemical_formula_sum              "C120 H48 N8 O64 Tb6"
_cell_length_a       14.793
_cell_length_b       13.645
_cell_length_c       24.9689
_cell_angle_alpha    90
_cell_angle_beta     90.374
_cell_angle_gamma    90

_space_group_name_H-M_alt    "P 1"
_space_group_IT_number       1

loop_
  _space_group_symop_operation_xyz
  'x, y, z'

loop_
  _atom_site_type_symbol
  _atom_site_label
  _atom_site_symmetry_multiplicity
  _atom_site_fract_x
  _atom_site_fract_y
  _atom_site_fract_z
  _atom_site_occupancy
  C   C1        1.0  0.85790  0.42780  0.87000  1.0000
  C   C2        1.0  0.64210  0.92780  0.63000  1.0000
  C   C3        1.0  0.14210  0.57220  0.13000  1.0000
  C   C4        1.0  0.35790  0.07220  0.37000  1.0000
  C   C5        1.0  0.80120  0.51060  0.86370  1.0000
  C   C6        1.0  0.69880  0.01060  0.63630  1.0000
  C   C7        1.0  0.19880  0.48940  0.13630  1.0000
  C   C8        1.0  0.30120  0.98940  0.36370  1.0000
  H   H1        1.0  0.80090  0.55990  0.88940  1.0000
  H   H2        1.0  0.69910  0.05990  0.61060  1.0000
  H   H3        1.0  0.19910  0.44010  0.11060  1.0000
  H   H4        1.0  0.30090  0.94010  0.38940  1.0000
  C   C9        1.0  0.74600  0.51700  0.81850  1.0000
  C   C10       1.0  0.75400  0.01700  0.68150  1.0000
  C   C11       1.0  0.25400  0.48300  0.18150  1.0000
  C   C12       1.0  0.24600  0.98300  0.31850  1.0000
  H   H5        1.0  0.71060  0.57230  0.81250  1.0000
  H   H6        1.0  0.78940  0.07230  0.68750  1.0000
  H   H7        1.0  0.28940  0.42770  0.18750  1.0000
  H   H8        1.0  0.21060  0.92770  0.31250  1.0000
  C   C13       1.0  0.74460  0.43790  0.78180  1.0000
  C   C14       1.0  0.75540  0.93790  0.71820  1.0000
  C   C15       1.0  0.25540  0.56210  0.21820  1.0000
  C   C16       1.0  0.24460  0.06210  0.28180  1.0000
  C   C17       1.0  0.79920  0.35900  0.78840  1.0000
  C   C18       1.0  0.70080  0.85900  0.71160  1.0000
  C   C19       1.0  0.20080  0.64100  0.21160  1.0000
  C   C20       1.0  0.29920  0.14100  0.28840  1.0000
  C   C21       1.0  0.85890  0.35360  0.83400  1.0000
  C   C22       1.0  0.64110  0.85360  0.66600  1.0000
  C   C23       1.0  0.14110  0.64640  0.16600  1.0000
  C   C24       1.0  0.35890  0.14640  0.33400  1.0000
  H   H9        1.0  0.89740  0.30040  0.83860  1.0000
  H   H10       1.0  0.60260  0.80040  0.66140  1.0000
  H   H11       1.0  0.10260  0.69960  0.16140  1.0000
  H   H12       1.0  0.39740  0.19960  0.33860  1.0000
  C   C25       1.0  0.61220  0.35850  0.63750  1.0000
  C   C26       1.0  0.88780  0.85850  0.86250  1.0000
  C   C27       1.0  0.38780  0.64150  0.36250  1.0000
  C   C28       1.0  0.11220  0.14150  0.13750  1.0000
  C   C29       1.0  0.58910  0.45220  0.65680  1.0000
  C   C30       1.0  0.91090  0.95220  0.84320  1.0000
  C   C31       1.0  0.41090  0.54780  0.34320  1.0000
  C   C32       1.0  0.08910  0.04780  0.15680  1.0000
  H   H13       1.0  0.54680  0.49090  0.63910  1.0000
  H   H14       1.0  0.95320  0.99090  0.86090  1.0000
  H   H15       1.0  0.45320  0.50910  0.36090  1.0000
  H   H16       1.0  0.04680  0.00910  0.13910  1.0000
  C   C33       1.0  0.63190  0.48500  0.70360  1.0000
  C   C34       1.0  0.86810  0.98500  0.79640  1.0000
  C   C35       1.0  0.36810  0.51500  0.29640  1.0000
  C   C36       1.0  0.13190  0.01500  0.20360  1.0000
  H   H17       1.0  0.61480  0.54450  0.71870  1.0000
  H   H18       1.0  0.88520  0.04450  0.78130  1.0000
  H   H19       1.0  0.38520  0.45550  0.28130  1.0000
  H   H20       1.0  0.11480  0.95550  0.21870  1.0000
  C   C37       1.0  0.70010  0.42920  0.72800  1.0000
  C   C38       1.0  0.79990  0.92920  0.77200  1.0000
  C   C39       1.0  0.29990  0.57080  0.27200  1.0000
  C   C40       1.0  0.20010  0.07080  0.22800  1.0000
  C   C41       1.0  0.72090  0.33940  0.70850  1.0000
  C   C42       1.0  0.77910  0.83940  0.79150  1.0000
  C   C43       1.0  0.27910  0.66060  0.29150  1.0000
  C   C44       1.0  0.22090  0.16060  0.20850  1.0000
  C   C45       1.0  0.67900  0.30450  0.66130  1.0000
  C   C46       1.0  0.82100  0.80450  0.83870  1.0000
  C   C47       1.0  0.32100  0.69550  0.33870  1.0000
  C   C48       1.0  0.17900  0.19550  0.16130  1.0000
  H   H21       1.0  0.69670  0.24500  0.64650  1.0000
  H   H22       1.0  0.80330  0.74500  0.85350  1.0000
  H   H23       1.0  0.30330  0.75500  0.35350  1.0000
  H   H24       1.0  0.19670  0.25500  0.14650  1.0000
  C   C49       1.0  0.78320  0.28990  0.74610  1.0000
  C   C50       1.0  0.71680  0.78990  0.75390  1.0000
  C   C51       1.0  0.21680  0.71010  0.25390  1.0000
  C   C52       1.0  0.28320  0.21010  0.24610  1.0000
  C   C53       1.0  0.92450  0.42160  0.91640  1.0000
  C   C54       1.0  0.57550  0.92160  0.58360  1.0000
  C   C55       1.0  0.07550  0.57840  0.08360  1.0000
  C   C56       1.0  0.42450  0.07840  0.41640  1.0000
  C   C57       1.0  0.56320  0.32190  0.58860  1.0000
  C   C58       1.0  0.93680  0.82190  0.91140  1.0000
  C   C59       1.0  0.43680  0.67810  0.41140  1.0000
  C   C60       1.0  0.06320  0.17810  0.08860  1.0000
  C   C61       1.0  0.12120  0.17880  0.86120  1.0000
  C   C62       1.0  0.37880  0.67880  0.63880  1.0000
  C   C63       1.0  0.87880  0.82120  0.13880  1.0000
  C   C64       1.0  0.62120  0.32120  0.36120  1.0000
  C   C65       1.0  0.15950  0.26620  0.84720  1.0000
  C   C66       1.0  0.34050  0.76620  0.65280  1.0000
  C   C67       1.0  0.84050  0.73380  0.15280  1.0000
  C   C68       1.0  0.65950  0.23380  0.34720  1.0000
  H   H25       1.0  0.15320  0.32130  0.86880  1.0000
  H   H26       1.0  0.34680  0.82130  0.63120  1.0000
  H   H27       1.0  0.84680  0.67870  0.13120  1.0000
  H   H28       1.0  0.65320  0.17870  0.36880  1.0000
  C   C69       1.0  0.20810  0.27050  0.79970  1.0000
  C   C70       1.0  0.29190  0.77050  0.70030  1.0000
  C   C71       1.0  0.79190  0.72950  0.20030  1.0000
  C   C72       1.0  0.70810  0.22950  0.29970  1.0000
  H   H29       1.0  0.23740  0.32850  0.79080  1.0000
  H   H30       1.0  0.26260  0.82850  0.70920  1.0000
  H   H31       1.0  0.76260  0.67150  0.20920  1.0000
  H   H32       1.0  0.73740  0.17150  0.29080  1.0000
  C   C73       1.0  0.21430  0.19130  0.76530  1.0000
  C   C74       1.0  0.28570  0.69130  0.73470  1.0000
  C   C75       1.0  0.78570  0.80870  0.23470  1.0000
  C   C76       1.0  0.71430  0.30870  0.26530  1.0000
  C   C77       1.0  0.17210  0.10460  0.78060  1.0000
  C   C78       1.0  0.32790  0.60460  0.71940  1.0000
  C   C79       1.0  0.82790  0.89540  0.21940  1.0000
  C   C80       1.0  0.67210  0.39540  0.28060  1.0000
  C   C81       1.0  0.12540  0.09670  0.82950  1.0000
  C   C82       1.0  0.37460  0.59670  0.67050  1.0000
  C   C83       1.0  0.87460  0.90330  0.17050  1.0000
  C   C84       1.0  0.62540  0.40330  0.32950  1.0000
  H   H33       1.0  0.09850  0.03820  0.83990  1.0000
  H   H34       1.0  0.40150  0.53820  0.66010  1.0000
  H   H35       1.0  0.90150  0.96180  0.16010  1.0000
  H   H36       1.0  0.59850  0.46180  0.33990  1.0000
  C   C85       1.0  0.32950  0.10840  0.61860  1.0000
  C   C86       1.0  0.17050  0.60840  0.88140  1.0000
  C   C87       1.0  0.67050  0.89160  0.38140  1.0000
  C   C88       1.0  0.82950  0.39160  0.11860  1.0000
  C   C89       1.0  0.33970  0.20890  0.63370  1.0000
  C   C90       1.0  0.16030  0.70890  0.86630  1.0000
  C   C91       1.0  0.66030  0.79110  0.36630  1.0000
  C   C92       1.0  0.83970  0.29110  0.13370  1.0000
  H   H37       1.0  0.37010  0.25210  0.61130  1.0000
  H   H38       1.0  0.12990  0.75210  0.88870  1.0000
  H   H39       1.0  0.62990  0.74790  0.38870  1.0000
  H   H40       1.0  0.87010  0.24790  0.11130  1.0000
  C   C93       1.0  0.30370  0.24250  0.68240  1.0000
  C   C94       1.0  0.19630  0.74250  0.81760  1.0000
  C   C95       1.0  0.69630  0.75750  0.31760  1.0000
  C   C96       1.0  0.80370  0.25750  0.18240  1.0000
  H   H41       1.0  0.31240  0.30730  0.69270  1.0000
  H   H42       1.0  0.18760  0.80730  0.80730  1.0000
  H   H43       1.0  0.68760  0.69270  0.30730  1.0000
  H   H44       1.0  0.81240  0.19270  0.19270  1.0000
  C   C97       1.0  0.25470  0.17870  0.71540  1.0000
  C   C98       1.0  0.24530  0.67870  0.78460  1.0000
  C   C99       1.0  0.74530  0.82130  0.28460  1.0000
  C   C100      1.0  0.75470  0.32130  0.21540  1.0000
  C   C101      1.0  0.24390  0.08220  0.70000  1.0000
  C   C102      1.0  0.25610  0.58220  0.80000  1.0000
  C   C103      1.0  0.75610  0.91780  0.30000  1.0000
  C   C104      1.0  0.74390  0.41780  0.20000  1.0000
  C   C105      1.0  0.28130  0.04710  0.65190  1.0000
  C   C106      1.0  0.21870  0.54710  0.84810  1.0000
  C   C107      1.0  0.71870  0.95290  0.34810  1.0000
  C   C108      1.0  0.78130  0.45290  0.15190  1.0000
  H   H45       1.0  0.27340  0.98170  0.64240  1.0000
  H   H46       1.0  0.22660  0.48170  0.85760  1.0000
  H   H47       1.0  0.72660  0.01830  0.35760  1.0000
  H   H48       1.0  0.77340  0.51830  0.14240  1.0000
  C   C109      1.0  0.07540  0.16550  0.91400  1.0000
  C   C110      1.0  0.42460  0.66550  0.58600  1.0000
  C   C111      1.0  0.92460  0.83450  0.08600  1.0000
  C   C112      1.0  0.57540  0.33450  0.41400  1.0000
  C   C113      1.0  0.38520  0.07810  0.57160  1.0000
  C   C114      1.0  0.11480  0.57810  0.92840  1.0000
  C   C115      1.0  0.61480  0.92190  0.42840  1.0000
  C   C116      1.0  0.88520  0.42190  0.07160  1.0000
  C   C117      1.0  0.19320  0.03390  0.73850  1.0000
  C   C118      1.0  0.30680  0.53390  0.76150  1.0000
  C   C119      1.0  0.80680  0.96610  0.26150  1.0000
  C   C120      1.0  0.69320  0.46610  0.23850  1.0000
  N   N1        1.0  0.33540  0.35750  0.99440  1.0000
  N   N2        1.0  0.16460  0.85750  0.50560  1.0000
  N   N3        1.0  0.66460  0.64250  0.00560  1.0000
  N   N4        1.0  0.83540  0.14250  0.49440  1.0000
  N   N5        1.0  0.79140  0.00050  0.04010  1.0000
  N   N6        1.0  0.70860  0.50050  0.45990  1.0000
  N   N7        1.0  0.20860  0.99950  0.95990  1.0000
  N   N8        1.0  0.29140  0.49950  0.54010  1.0000
  O   O1        1.0  0.96430  0.33920  0.92394  1.0000
  O   O2        1.0  0.53570  0.83920  0.57606  1.0000
  O   O3        1.0  0.03570  0.66080  0.07606  1.0000
  O   O4        1.0  0.46430  0.16080  0.42394  1.0000
  O   O5        1.0  0.94230  0.49300  0.94774  1.0000
  O   O6        1.0  0.55770  0.99300  0.55226  1.0000
  O   O7        1.0  0.05770  0.50700  0.05226  1.0000
  O   O8        1.0  0.44230  0.00700  0.44774  1.0000
  O   O9        1.0  0.50340  0.37370  0.56420  1.0000
  O   O10       1.0  0.99660  0.87370  0.93580  1.0000
  O   O11       1.0  0.49660  0.62630  0.43580  1.0000
  O   O12       1.0  0.00340  0.12630  0.06420  1.0000
  O   O13       1.0  0.58090  0.24110  0.57036  1.0000
  O   O14       1.0  0.91910  0.74110  0.92964  1.0000
  O   O15       1.0  0.41910  0.75890  0.42964  1.0000
  O   O16       1.0  0.08090  0.25890  0.07036  1.0000
  O   O17       1.0  0.82630  0.21010  0.73983  1.0000
  O   O18       1.0  0.67370  0.71010  0.76017  1.0000
  O   O19       1.0  0.17370  0.78990  0.26017  1.0000
  O   O20       1.0  0.32630  0.28990  0.23983  1.0000
  O   O21       1.0  0.09540  0.22000  0.95236  1.0000
  O   O22       1.0  0.40460  0.72000  0.54764  1.0000
  O   O23       1.0  0.90460  0.78000  0.04764  1.0000
  O   O24       1.0  0.59540  0.28000  0.45236  1.0000
  O   O25       1.0  0.01680  0.10090  0.92310  1.0000
  O   O26       1.0  0.48320  0.60090  0.57690  1.0000
  O   O27       1.0  0.98320  0.89910  0.07690  1.0000
  O   O28       1.0  0.51680  0.39910  0.42310  1.0000
  O   O29       1.0  0.41770  0.13680  0.54230  1.0000
  O   O30       1.0  0.08230  0.63680  0.95770  1.0000
  O   O31       1.0  0.58230  0.86320  0.45770  1.0000
  O   O32       1.0  0.91770  0.36320  0.04230  1.0000
  O   O33       1.0  0.39200  0.98940  0.55953  1.0000
  O   O34       1.0  0.10800  0.48940  0.94047  1.0000
  O   O35       1.0  0.60800  0.01060  0.44047  1.0000
  O   O36       1.0  0.89200  0.51060  0.05953  1.0000
  O   O37       1.0  0.16300  0.94870  0.73878  1.0000
  O   O38       1.0  0.33700  0.44870  0.76122  1.0000
  O   O39       1.0  0.83700  0.05130  0.26122  1.0000
  O   O40       1.0  0.66300  0.55130  0.23878  1.0000
  O   O41       1.0  0.25310  0.37120  0.00449  1.0000
  O   O42       1.0  0.24690  0.87120  0.49551  1.0000
  O   O43       1.0  0.74690  0.62880  0.99551  1.0000
  O   O44       1.0  0.75310  0.12880  0.50449  1.0000
  O   O45       1.0  0.39290  0.41130  0.01330  1.0000
  O   O46       1.0  0.10710  0.91130  0.48670  1.0000
  O   O47       1.0  0.60710  0.58870  0.98670  1.0000
  O   O48       1.0  0.89290  0.08870  0.51330  1.0000
  O   O49       1.0  0.35790  0.28480  0.96790  1.0000
  O   O50       1.0  0.14210  0.78480  0.53210  1.0000
  O   O51       1.0  0.64210  0.71520  0.03210  1.0000
  O   O52       1.0  0.85790  0.21520  0.46790  1.0000
  O   O53       1.0  0.84330  0.06430  0.05799  1.0000
  O   O54       1.0  0.65670  0.56430  0.44201  1.0000
  O   O55       1.0  0.15670  0.93570  0.94201  1.0000
  O   O56       1.0  0.34330  0.43570  0.55799  1.0000
  O   O57       1.0  0.70930  0.00810  0.04840  1.0000
  O   O58       1.0  0.79070  0.50810  0.45160  1.0000
  O   O59       1.0  0.29070  0.99190  0.95160  1.0000
  O   O60       1.0  0.20930  0.49190  0.54840  1.0000
  O   O61       1.0  0.81890  0.93630  0.00994  1.0000
  O   O62       1.0  0.68110  0.43630  0.49006  1.0000
  O   O63       1.0  0.18110  0.06370  0.99006  1.0000
  O   O64       1.0  0.31890  0.56370  0.50994  1.0000
  Tb  Tb1       1.0  0.06459  0.36797  0.99887  1.0000
  Tb  Tb2       1.0  0.43541  0.86797  0.50113  1.0000
  Tb  Tb3       1.0  0.93541  0.63203  0.00113  1.0000
  Tb  Tb4       1.0  0.56459  0.13203  0.49887  1.0000
  Tb  Tb5       1.0  0.00000  0.00000  0.00000  1.0000
  Tb  Tb6       1.0  0.50000  0.50000  0.50000  1.0000
