data_image0
_chemical_formula_structural       Co2O22C6H2C10H2C4H12
_chemical_formula_sum              "Co2 O22 C20 H16"
_cell_length_a       9.7755
_cell_length_b       11.208
_cell_length_c       11.224
_cell_angle_alpha    60.304
_cell_angle_beta     73.687
_cell_angle_gamma    84.311

_space_group_name_H-M_alt    "P 1"
_space_group_IT_number       1

loop_
  _space_group_symop_operation_xyz
  'x, y, z'

loop_
  _atom_site_type_symbol
  _atom_site_label
  _atom_site_symmetry_multiplicity
  _atom_site_fract_x
  _atom_site_fract_y
  _atom_site_fract_z
  _atom_site_occupancy
  Co  Co1       1.0  0.50000  0.50000  0.00000  1.0000
  Co  Co2       1.0  0.50000  0.50000  0.50000  1.0000
  O   O1        1.0  0.37550  0.57991  0.85032  1.0000
  O   O2        1.0  0.62450  0.42009  0.14968  1.0000
  O   O3        1.0  0.31230  0.47278  0.15955  1.0000
  O   O4        1.0  0.68770  0.52722  0.84045  1.0000
  O   O5        1.0  0.47311  0.30919  0.02397  1.0000
  O   O6        1.0  0.52689  0.69081  0.97603  1.0000
  O   O7        1.0  0.62970  0.18498  0.14516  1.0000
  O   O8        1.0  0.37030  0.81502  0.85484  1.0000
  O   O9        1.0  0.67249  0.34092  0.75075  1.0000
  O   O10       1.0  0.32751  0.65908  0.24925  1.0000
  O   O11       1.0  0.46441  0.33547  0.70586  1.0000
  O   O12       1.0  0.53559  0.66453  0.29414  1.0000
  O   O13       1.0  0.27110  0.49990  0.56055  1.0000
  O   O14       1.0  0.72890  0.50010  0.43945  1.0000
  O   O15       1.0  0.50640  0.64319  0.56912  1.0000
  O   O16       1.0  0.49360  0.35681  0.43088  1.0000
  O   O17       1.0  0.72090  0.74450  0.43340  1.0000
  O   O18       1.0  0.27910  0.25550  0.56660  1.0000
  O   O19       1.0  0.78520  0.78390  0.64730  1.0000
  O   O20       1.0  0.21480  0.21610  0.35270  1.0000
  O   O21       1.0  0.85030  0.00260  0.55050  1.0000
  O   O22       1.0  0.14970  0.99740  0.44950  1.0000
  C   C1        1.0  0.54640  0.20550  0.07020  1.0000
  C   C2        1.0  0.45360  0.79450  0.92980  1.0000
  C   C3        1.0  0.52870  0.09870  0.03270  1.0000
  C   C4        1.0  0.47130  0.90130  0.96730  1.0000
  C   C5        1.0  0.50600  0.96110  0.13510  1.0000
  C   C6        1.0  0.49400  0.03890  0.86490  1.0000
  H   H1        1.0  0.51080  0.93400  0.22850  1.0000
  H   H2        1.0  0.48920  0.06600  0.77150  1.0000
  C   C7        1.0  0.52330  0.13730  0.89430  1.0000
  C   C8        1.0  0.47670  0.86270  0.10570  1.0000
  C   C9        1.0  0.55680  0.28370  0.77580  1.0000
  C   C10       1.0  0.44320  0.71630  0.22420  1.0000
  C   C11       1.0  0.59840  0.74350  0.50660  1.0000
  C   C12       1.0  0.40160  0.25650  0.49340  1.0000
  C   C13       1.0  0.54810  0.87160  0.51350  1.0000
  C   C14       1.0  0.45190  0.12840  0.48650  1.0000
  C   C15       1.0  0.41860  0.91880  0.48480  1.0000
  C   C16       1.0  0.58140  0.08120  0.51520  1.0000
  H   H3        1.0  0.36070  0.86210  0.47580  1.0000
  H   H4        1.0  0.63930  0.13790  0.52420  1.0000
  C   C17       1.0  0.63110  0.95420  0.53160  1.0000
  C   C18       1.0  0.36890  0.04580  0.46840  1.0000
  C   C19       1.0  0.76520  0.90940  0.57950  1.0000
  C   C20       1.0  0.23480  0.09060  0.42050  1.0000
  H   H5        1.0  0.42300  0.58200  0.77600  1.0000
  H   H6        1.0  0.57700  0.41800  0.22400  1.0000
  H   H7        1.0  0.35900  0.65960  0.83400  1.0000
  H   H8        1.0  0.64100  0.34040  0.16600  1.0000
  H   H9        1.0  0.30400  0.52090  0.19700  1.0000
  H   H10       1.0  0.69600  0.47910  0.80300  1.0000
  H   H11       1.0  0.29800  0.39330  0.22600  1.0000
  H   H12       1.0  0.70200  0.60670  0.77400  1.0000
  H   H13       1.0  0.26100  0.42990  0.55700  1.0000
  H   H14       1.0  0.73900  0.57010  0.44300  1.0000
  H   H15       1.0  0.22400  0.56100  0.51600  1.0000
  H   H16       1.0  0.77600  0.43900  0.48400  1.0000
