data_image0
_chemical_formula_structural       Ag4C6H2C8H2C2H2C4H2C2H2C6H2C6H2C2H2C4H2C2H2C4H2C2H2C2H2C2H2C2H2C2H2C4H2C2H2C4H2C2H2C2H2C2H2C6H2C6H2C2H2C10H2C6H2C2H2N8O4H2O8H2O10H2O4H2O6H2
_chemical_formula_sum              "Ag4 C104 H66 N8 O32"
_cell_length_a       11.2251
_cell_length_b       15.5401
_cell_length_c       17.7459
_cell_angle_alpha    103.682
_cell_angle_beta     91.641
_cell_angle_gamma    108.688

_space_group_name_H-M_alt    "P 1"
_space_group_IT_number       1

loop_
  _space_group_symop_operation_xyz
  'x, y, z'

loop_
  _atom_site_type_symbol
  _atom_site_label
  _atom_site_symmetry_multiplicity
  _atom_site_fract_x
  _atom_site_fract_y
  _atom_site_fract_z
  _atom_site_occupancy
  Ag  Ag1       1.0  0.07099  0.42786  0.99391  1.0000
  Ag  Ag2       1.0  0.92901  0.57214  0.00609  1.0000
  Ag  Ag3       1.0  0.07289  0.92295  0.99203  1.0000
  Ag  Ag4       1.0  0.92711  0.07705  0.00797  1.0000
  C   C1        1.0  0.61940  0.71100  0.25170  1.0000
  C   C2        1.0  0.38060  0.28900  0.74830  1.0000
  C   C3        1.0  0.48830  0.66120  0.26690  1.0000
  C   C4        1.0  0.51170  0.33880  0.73310  1.0000
  C   C5        1.0  0.45670  0.57390  0.28210  1.0000
  C   C6        1.0  0.54330  0.42610  0.71790  1.0000
  H   H1        1.0  0.51900  0.54650  0.28290  1.0000
  H   H2        1.0  0.48100  0.45350  0.71710  1.0000
  C   C7        1.0  0.33450  0.52500  0.29640  1.0000
  C   C8        1.0  0.66550  0.47500  0.70360  1.0000
  C   C9        1.0  0.30840  0.42920  0.31200  1.0000
  C   C10       1.0  0.69160  0.57080  0.68800  1.0000
  C   C11       1.0  0.24160  0.56760  0.29370  1.0000
  C   C12       1.0  0.75840  0.43240  0.70630  1.0000
  C   C13       1.0  0.27520  0.65600  0.27820  1.0000
  C   C14       1.0  0.72480  0.34400  0.72180  1.0000
  H   H3        1.0  0.21380  0.68400  0.27660  1.0000
  H   H4        1.0  0.78620  0.31600  0.72340  1.0000
  C   C15       1.0  0.39630  0.70270  0.26530  1.0000
  C   C16       1.0  0.60370  0.29730  0.73470  1.0000
  H   H5        1.0  0.41620  0.76170  0.25570  1.0000
  H   H6        1.0  0.58380  0.23830  0.74430  1.0000
  C   C17       1.0  0.10690  0.52730  0.30860  1.0000
  C   C18       1.0  0.89310  0.47270  0.69140  1.0000
  C   C19       1.0  0.07750  0.51340  0.38100  1.0000
  C   C20       1.0  0.92250  0.48660  0.61900  1.0000
  H   H7        1.0  0.14200  0.52040  0.41840  1.0000
  H   H8        1.0  0.85800  0.47960  0.58160  1.0000
  C   C21       1.0  0.95420  0.48950  0.39870  1.0000
  C   C22       1.0  0.04580  0.51050  0.60130  1.0000
  H   H9        1.0  0.93640  0.48020  0.44760  1.0000
  H   H10       1.0  0.06360  0.51980  0.55240  1.0000
  C   C23       1.0  0.85700  0.47920  0.34410  1.0000
  C   C24       1.0  0.14300  0.52080  0.65590  1.0000
  C   C25       1.0  0.72530  0.45520  0.36740  1.0000
  C   C26       1.0  0.27470  0.54480  0.63260  1.0000
  C   C27       1.0  0.88480  0.49340  0.27270  1.0000
  C   C28       1.0  0.11520  0.50660  0.72730  1.0000
  H   H11       1.0  0.81970  0.48790  0.23630  1.0000
  H   H12       1.0  0.18030  0.51210  0.76370  1.0000
  C   C29       1.0  0.00880  0.51610  0.25300  1.0000
  C   C30       1.0  0.99120  0.48390  0.74700  1.0000
  C   C31       1.0  0.03260  0.52320  0.17110  1.0000
  C   C32       1.0  0.96740  0.47680  0.82890  1.0000
  C   C33       1.0  0.85240  0.29100  0.05990  1.0000
  C   C34       1.0  0.14760  0.70900  0.94010  1.0000
  H   H13       1.0  0.91010  0.31520  0.10460  1.0000
  H   H14       1.0  0.08990  0.68480  0.89540  1.0000
  C   C35       1.0  0.73250  0.23330  0.06400  1.0000
  C   C36       1.0  0.26750  0.76670  0.93600  1.0000
  H   H15       1.0  0.71060  0.22000  0.11110  1.0000
  H   H16       1.0  0.28940  0.78000  0.88890  1.0000
  C   C37       1.0  0.64460  0.19520  0.99930  1.0000
  C   C38       1.0  0.35540  0.80480  0.00070  1.0000
  C   C39       1.0  0.68470  0.21770  0.93170  1.0000
  C   C40       1.0  0.31530  0.78230  0.06830  1.0000
  H   H17       1.0  0.62920  0.19310  0.88590  1.0000
  H   H18       1.0  0.37080  0.80690  0.11410  1.0000
  C   C41       1.0  0.80640  0.27650  0.93100  1.0000
  C   C42       1.0  0.19360  0.72350  0.06900  1.0000
  H   H19       1.0  0.83070  0.29040  0.88440  1.0000
  H   H20       1.0  0.16930  0.70960  0.11560  1.0000
  C   C43       1.0  0.51380  0.13450  0.00160  1.0000
  C   C44       1.0  0.48620  0.86550  0.99840  1.0000
  C   C45       1.0  0.45180  0.14180  0.06850  1.0000
  C   C46       1.0  0.54820  0.85820  0.93150  1.0000
  H   H21       1.0  0.49320  0.18620  0.11450  1.0000
  H   H22       1.0  0.50680  0.81380  0.88550  1.0000
  C   C47       1.0  0.33060  0.08400  0.06670  1.0000
  C   C48       1.0  0.66940  0.91600  0.93330  1.0000
  H   H23       1.0  0.29180  0.09060  0.11230  1.0000
  H   H24       1.0  0.70820  0.90940  0.88770  1.0000
  C   C49       1.0  0.32190  0.01110  0.93930  1.0000
  C   C50       1.0  0.67810  0.98890  0.06070  1.0000
  H   H25       1.0  0.27740  0.96640  0.89410  1.0000
  H   H26       1.0  0.72260  0.03360  0.10590  1.0000
  C   C51       1.0  0.44530  0.06660  0.93610  1.0000
  C   C52       1.0  0.55470  0.93340  0.06390  1.0000
  H   H27       1.0  0.48180  0.05810  0.88970  1.0000
  H   H28       1.0  0.51820  0.94190  0.11030  1.0000
  C   C53       1.0  0.83530  0.81360  0.05070  1.0000
  C   C54       1.0  0.16470  0.18640  0.94930  1.0000
  H   H29       1.0  0.87680  0.85720  0.09710  1.0000
  H   H30       1.0  0.12320  0.14280  0.90290  1.0000
  C   C55       1.0  0.71470  0.75350  0.05170  1.0000
  C   C56       1.0  0.28530  0.24650  0.94830  1.0000
  H   H31       1.0  0.67620  0.75780  0.09760  1.0000
  H   H32       1.0  0.32380  0.24220  0.90240  1.0000
  C   C57       1.0  0.65150  0.68650  0.98400  1.0000
  C   C58       1.0  0.34850  0.31350  0.01600  1.0000
  C   C59       1.0  0.71590  0.68390  0.91930  1.0000
  C   C60       1.0  0.28410  0.31610  0.08070  1.0000
  H   H33       1.0  0.67820  0.63900  0.87280  1.0000
  H   H34       1.0  0.32180  0.36100  0.12720  1.0000
  C   C61       1.0  0.83600  0.74720  0.92260  1.0000
  C   C62       1.0  0.16400  0.25280  0.07740  1.0000
  H   H35       1.0  0.87690  0.74380  0.87770  1.0000
  H   H36       1.0  0.12310  0.25620  0.12230  1.0000
  C   C63       1.0  0.52080  0.62330  0.98360  1.0000
  C   C64       1.0  0.47920  0.37670  0.01640  1.0000
  C   C65       1.0  0.47230  0.61020  0.05240  1.0000
  C   C66       1.0  0.52770  0.38980  0.94760  1.0000
  H   H37       1.0  0.52340  0.64030  0.09960  1.0000
  H   H38       1.0  0.47660  0.35970  0.90040  1.0000
  C   C67       1.0  0.35070  0.55400  0.05220  1.0000
  C   C68       1.0  0.64930  0.44600  0.94780  1.0000
  H   H39       1.0  0.32110  0.54770  0.09970  1.0000
  H   H40       1.0  0.67890  0.45230  0.90030  1.0000
  C   C69       1.0  0.31840  0.51860  0.91970  1.0000
  C   C70       1.0  0.68160  0.48140  0.08030  1.0000
  H   H41       1.0  0.26620  0.48610  0.87320  1.0000
  H   H42       1.0  0.73380  0.51390  0.12680  1.0000
  C   C71       1.0  0.43900  0.57560  0.91670  1.0000
  C   C72       1.0  0.56100  0.42440  0.08330  1.0000
  H   H43       1.0  0.46580  0.58220  0.86860  1.0000
  H   H44       1.0  0.53420  0.41780  0.13140  1.0000
  C   C73       1.0  0.99660  0.93600  0.81120  1.0000
  C   C74       1.0  0.00340  0.06400  0.18880  1.0000
  C   C75       1.0  0.00650  0.93850  0.72650  1.0000
  C   C76       1.0  0.99350  0.06150  0.27350  1.0000
  C   C77       1.0  0.12470  0.95220  0.69910  1.0000
  C   C78       1.0  0.87530  0.04780  0.30090  1.0000
  H   H45       1.0  0.19330  0.95480  0.73130  1.0000
  H   H46       1.0  0.80670  0.04520  0.26870  1.0000
  C   C79       1.0  0.13990  0.96190  0.62440  1.0000
  C   C80       1.0  0.86010  0.03810  0.37560  1.0000
  C   C81       1.0  0.26330  0.97790  0.59070  1.0000
  C   C82       1.0  0.73670  0.02210  0.40930  1.0000
  C   C83       1.0  0.03670  0.95750  0.57770  1.0000
  C   C84       1.0  0.96330  0.04250  0.42230  1.0000
  H   H47       1.0  0.04640  0.96410  0.52720  1.0000
  H   H48       1.0  0.95360  0.03590  0.47280  1.0000
  C   C85       1.0  0.92010  0.94360  0.60400  1.0000
  C   C86       1.0  0.07990  0.05640  0.39600  1.0000
  H   H49       1.0  0.85210  0.94110  0.57130  1.0000
  H   H50       1.0  0.14790  0.05890  0.42870  1.0000
  C   C87       1.0  0.90250  0.93340  0.67890  1.0000
  C   C88       1.0  0.09750  0.06660  0.32110  1.0000
  C   C89       1.0  0.77070  0.90970  0.70200  1.0000
  C   C90       1.0  0.22930  0.09030  0.29800  1.0000
  C   C91       1.0  0.71550  0.97930  0.72820  1.0000
  C   C92       1.0  0.28450  0.02070  0.27180  1.0000
  C   C93       1.0  0.79160  0.08170  0.74710  1.0000
  C   C94       1.0  0.20840  0.91830  0.25290  1.0000
  C   C95       1.0  0.58780  0.95370  0.73880  1.0000
  C   C96       1.0  0.41220  0.04630  0.26120  1.0000
  H   H51       1.0  0.55160  0.99990  0.75570  1.0000
  H   H52       1.0  0.44840  0.00010  0.24430  1.0000
  C   C97       1.0  0.51430  0.86000  0.72450  1.0000
  C   C98       1.0  0.48570  0.14000  0.27550  1.0000
  C   C99       1.0  0.37860  0.83690  0.74070  1.0000
  C   C100      1.0  0.62140  0.16310  0.25930  1.0000
  C   C101      1.0  0.56840  0.79130  0.69960  1.0000
  C   C102      1.0  0.43160  0.20870  0.30040  1.0000
  H   H53       1.0  0.51920  0.72820  0.69010  1.0000
  H   H54       1.0  0.48080  0.27180  0.30990  1.0000
  C   C103      1.0  0.69540  0.81590  0.68880  1.0000
  C   C104      1.0  0.30460  0.18410  0.31120  1.0000
  H   H55       1.0  0.73090  0.76900  0.67250  1.0000
  H   H56       1.0  0.26910  0.23100  0.32750  1.0000
  N   N1        1.0  0.88970  0.31370  0.99410  1.0000
  N   N2        1.0  0.11030  0.68630  0.00590  1.0000
  N   N3        1.0  0.26440  0.01850  0.00340  1.0000
  N   N4        1.0  0.73560  0.98150  0.99660  1.0000
  N   N5        1.0  0.89580  0.81300  0.98720  1.0000
  N   N6        1.0  0.10420  0.18700  0.01280  1.0000
  N   N7        1.0  0.27290  0.50790  0.98720  1.0000
  N   N8        1.0  0.72710  0.49210  0.01280  1.0000
  O   O1        1.0  0.65150  0.78820  0.24050  1.0000
  O   O2        1.0  0.34850  0.21180  0.75950  1.0000
  O   O3        1.0  0.69460  0.66200  0.25010  1.0000
  O   O4        1.0  0.30540  0.33800  0.74990  1.0000
  H   H57       1.0  0.76260  0.68990  0.23680  1.0000
  H   H58       1.0  0.23740  0.31010  0.76320  1.0000
  O   O5        1.0  0.40450  0.41230  0.33440  1.0000
  O   O6        1.0  0.59550  0.58770  0.66560  1.0000
  O   O7        1.0  0.19930  0.37450  0.30290  1.0000
  O   O8        1.0  0.80070  0.62550  0.69710  1.0000
  O   O9        1.0  0.70270  0.44080  0.43010  1.0000
  O   O10       1.0  0.29730  0.55920  0.56990  1.0000
  O   O11       1.0  0.63990  0.45160  0.31310  1.0000
  O   O12       1.0  0.36010  0.54840  0.68690  1.0000
  H   H59       1.0  0.57100  0.44250  0.33010  1.0000
  H   H60       1.0  0.42900  0.55750  0.66990  1.0000
  O   O13       1.0  0.09950  0.48080  0.13729  1.0000
  O   O14       1.0  0.90050  0.51920  0.86271  1.0000
  O   O15       1.0  0.97910  0.57040  0.14314  1.0000
  O   O16       1.0  0.02090  0.42960  0.85686  1.0000
  O   O17       1.0  0.04360  0.88660  0.83777  1.0000
  O   O18       1.0  0.95640  0.11340  0.16223  1.0000
  O   O19       1.0  0.94030  0.98830  0.85071  1.0000
  O   O20       1.0  0.05970  0.01170  0.14929  1.0000
  O   O21       1.0  0.35770  0.98200  0.63720  1.0000
  O   O22       1.0  0.64230  0.01800  0.36280  1.0000
  H   H61       1.0  0.42450  0.01050  0.62300  1.0000
  H   H62       1.0  0.57550  0.98950  0.37700  1.0000
  O   O23       1.0  0.27440  0.98850  0.52550  1.0000
  O   O24       1.0  0.72560  0.01150  0.47450  1.0000
  O   O25       1.0  0.89750  0.10830  0.79328  1.0000
  O   O26       1.0  0.10250  0.89170  0.20672  1.0000
  H   H63       1.0  0.90620  0.06260  0.80510  1.0000
  H   H64       1.0  0.09380  0.93740  0.19490  1.0000
  O   O27       1.0  0.75680  0.13780  0.72340  1.0000
  O   O28       1.0  0.24320  0.86220  0.27660  1.0000
  O   O29       1.0  0.34120  0.89210  0.78360  1.0000
  O   O30       1.0  0.65880  0.10790  0.21640  1.0000
  O   O31       1.0  0.30700  0.75050  0.70660  1.0000
  O   O32       1.0  0.69300  0.24950  0.29340  1.0000
  H   H65       1.0  0.23450  0.74230  0.71770  1.0000
  H   H66       1.0  0.76550  0.25770  0.28230  1.0000
