data_image0
_chemical_formula_structural       Cu6O24N12C6H6C12H6C18H6C18
_chemical_formula_sum              "Cu6 O24 N12 C54 H18"
_cell_length_a       17.7551
_cell_length_b       17.7551
_cell_length_c       9.6219
_cell_angle_alpha    90
_cell_angle_beta     90
_cell_angle_gamma    120

_space_group_name_H-M_alt    "P 1"
_space_group_IT_number       1

loop_
  _space_group_symop_operation_xyz
  'x, y, z'

loop_
  _atom_site_type_symbol
  _atom_site_label
  _atom_site_symmetry_multiplicity
  _atom_site_fract_x
  _atom_site_fract_y
  _atom_site_fract_z
  _atom_site_occupancy
  Cu  Cu1       1.0  0.85013  0.41190  0.49716  1.0000
  Cu  Cu2       1.0  0.58810  0.43823  0.83049  1.0000
  Cu  Cu3       1.0  0.56177  0.14987  0.16383  1.0000
  Cu  Cu4       1.0  0.41190  0.85013  0.50284  1.0000
  Cu  Cu5       1.0  0.43823  0.58810  0.16951  1.0000
  Cu  Cu6       1.0  0.14987  0.56177  0.83617  1.0000
  O   O1        1.0  0.11350  0.54460  0.63960  1.0000
  O   O2        1.0  0.45540  0.56890  0.97293  1.0000
  O   O3        1.0  0.43110  0.88650  0.30627  1.0000
  O   O4        1.0  0.54460  0.11350  0.36040  1.0000
  O   O5        1.0  0.56890  0.45540  0.02707  1.0000
  O   O6        1.0  0.88650  0.43110  0.69373  1.0000
  O   O7        1.0  0.96380  0.42460  0.44510  1.0000
  O   O8        1.0  0.57540  0.53920  0.77843  1.0000
  O   O9        1.0  0.46080  0.03620  0.11177  1.0000
  O   O10       1.0  0.42460  0.96380  0.55490  1.0000
  O   O11       1.0  0.53920  0.57540  0.22157  1.0000
  O   O12       1.0  0.03620  0.46080  0.88823  1.0000
  O   O13       1.0  0.20730  0.49740  0.65610  1.0000
  O   O14       1.0  0.50260  0.70990  0.98943  1.0000
  O   O15       1.0  0.29010  0.79270  0.32277  1.0000
  O   O16       1.0  0.49740  0.20730  0.34390  1.0000
  O   O17       1.0  0.70990  0.50260  0.01057  1.0000
  O   O18       1.0  0.79270  0.29010  0.67723  1.0000
  O   O19       1.0  0.99310  0.55870  0.40920  1.0000
  O   O20       1.0  0.44130  0.43440  0.74253  1.0000
  O   O21       1.0  0.56560  0.00690  0.07587  1.0000
  O   O22       1.0  0.55870  0.99310  0.59080  1.0000
  O   O23       1.0  0.43440  0.44130  0.25747  1.0000
  O   O24       1.0  0.00690  0.56560  0.92413  1.0000
  N   N1        1.0  0.20690  0.55290  0.00530  1.0000
  N   N2        1.0  0.44710  0.65400  0.33863  1.0000
  N   N3        1.0  0.34600  0.79310  0.67197  1.0000
  N   N4        1.0  0.55290  0.20690  0.99470  1.0000
  N   N5        1.0  0.65400  0.44710  0.66137  1.0000
  N   N6        1.0  0.79310  0.34600  0.32803  1.0000
  N   N7        1.0  0.31730  0.55770  0.13010  1.0000
  N   N8        1.0  0.44230  0.75960  0.46343  1.0000
  N   N9        1.0  0.24040  0.68270  0.79677  1.0000
  N   N10       1.0  0.55770  0.31730  0.86990  1.0000
  N   N11       1.0  0.75960  0.44230  0.53657  1.0000
  N   N12       1.0  0.68270  0.24040  0.20323  1.0000
  C   C1        1.0  0.24170  0.53120  0.36670  1.0000
  C   C2        1.0  0.46880  0.71050  0.70003  1.0000
  C   C3        1.0  0.28950  0.75830  0.03337  1.0000
  C   C4        1.0  0.53120  0.24170  0.63330  1.0000
  C   C5        1.0  0.71050  0.46880  0.29997  1.0000
  C   C6        1.0  0.75830  0.28950  0.96663  1.0000
  H   H1        1.0  0.28582  0.53156  0.41933  1.0000
  H   H2        1.0  0.46844  0.75426  0.75266  1.0000
  H   H3        1.0  0.24574  0.71418  0.08600  1.0000
  H   H4        1.0  0.53156  0.28582  0.58067  1.0000
  H   H5        1.0  0.75426  0.46844  0.24734  1.0000
  H   H6        1.0  0.71418  0.24574  0.91400  1.0000
  C   C7        1.0  0.18460  0.54230  0.14600  1.0000
  C   C8        1.0  0.45770  0.64230  0.47933  1.0000
  C   C9        1.0  0.35770  0.81540  0.81267  1.0000
  C   C10       1.0  0.54230  0.18460  0.85400  1.0000
  C   C11       1.0  0.64230  0.45770  0.52067  1.0000
  C   C12       1.0  0.81540  0.35770  0.18733  1.0000
  C   C13       1.0  0.11040  0.53330  0.20820  1.0000
  C   C14       1.0  0.46670  0.57710  0.54153  1.0000
  C   C15       1.0  0.42290  0.88960  0.87487  1.0000
  C   C16       1.0  0.53330  0.11040  0.79180  1.0000
  C   C17       1.0  0.57710  0.46670  0.45847  1.0000
  C   C18       1.0  0.88960  0.42290  0.12513  1.0000
  H   H7        1.0  0.06764  0.53506  0.15475  1.0000
  H   H8        1.0  0.46494  0.53258  0.48808  1.0000
  H   H9        1.0  0.46742  0.93236  0.82142  1.0000
  H   H10       1.0  0.53506  0.06764  0.84525  1.0000
  H   H11       1.0  0.53258  0.46494  0.51192  1.0000
  H   H12       1.0  0.93236  0.46742  0.17858  1.0000
  C   C19       1.0  0.10000  0.52170  0.35080  1.0000
  C   C20       1.0  0.47830  0.57830  0.68413  1.0000
  C   C21       1.0  0.42170  0.90000  0.01747  1.0000
  C   C22       1.0  0.52170  0.10000  0.64920  1.0000
  C   C23       1.0  0.57830  0.47830  0.31587  1.0000
  C   C24       1.0  0.90000  0.42170  0.98253  1.0000
  C   C25       1.0  0.16580  0.51890  0.42890  1.0000
  C   C26       1.0  0.48110  0.64690  0.76223  1.0000
  C   C27       1.0  0.35310  0.83420  0.09557  1.0000
  C   C28       1.0  0.51890  0.16580  0.57110  1.0000
  C   C29       1.0  0.64690  0.48110  0.23777  1.0000
  C   C30       1.0  0.83420  0.35310  0.90443  1.0000
  C   C31       1.0  0.28600  0.56210  0.00670  1.0000
  C   C32       1.0  0.43790  0.72390  0.34003  1.0000
  C   C33       1.0  0.27610  0.71400  0.67337  1.0000
  C   C34       1.0  0.56210  0.28600  0.99330  1.0000
  C   C35       1.0  0.72390  0.43790  0.65997  1.0000
  C   C36       1.0  0.71400  0.27610  0.32663  1.0000
  H   H13       1.0  0.31777  0.57107  0.92544  1.0000
  H   H14       1.0  0.42893  0.74670  0.25877  1.0000
  H   H15       1.0  0.25330  0.68223  0.59211  1.0000
  H   H16       1.0  0.57107  0.31777  0.07456  1.0000
  H   H17       1.0  0.74670  0.42893  0.74123  1.0000
  H   H18       1.0  0.68223  0.25330  0.40789  1.0000
  C   C37       1.0  0.16090  0.51770  0.58580  1.0000
  C   C38       1.0  0.48230  0.64320  0.91913  1.0000
  C   C39       1.0  0.35680  0.83910  0.25247  1.0000
  C   C40       1.0  0.51770  0.16090  0.41420  1.0000
  C   C41       1.0  0.64320  0.48230  0.08087  1.0000
  C   C42       1.0  0.83910  0.35680  0.74753  1.0000
  C   C43       1.0  0.25000  0.54300  0.22180  1.0000
  C   C44       1.0  0.45700  0.70700  0.55513  1.0000
  C   C45       1.0  0.29300  0.75000  0.88847  1.0000
  C   C46       1.0  0.54300  0.25000  0.77820  1.0000
  C   C47       1.0  0.70700  0.45700  0.44487  1.0000
  C   C48       1.0  0.75000  0.29300  0.11153  1.0000
  C   C49       1.0  0.01350  0.50080  0.41030  1.0000
  C   C50       1.0  0.49920  0.51270  0.74363  1.0000
  C   C51       1.0  0.48730  0.98650  0.07697  1.0000
  C   C52       1.0  0.50080  0.01350  0.58970  1.0000
  C   C53       1.0  0.51270  0.49920  0.25637  1.0000
  C   C54       1.0  0.98650  0.48730  0.92303  1.0000
