data_image0
_chemical_formula_structural       Zr24P32O96F64C32H16C16H16C32H16C16H16C24H16C16H16C32H16C16H16C16
_chemical_formula_sum              "Zr24 P32 O96 F64 C200 H128"
_cell_length_a       33.081
_cell_length_b       33.081
_cell_length_c       15.832
_cell_angle_alpha    90
_cell_angle_beta     90
_cell_angle_gamma    90

_space_group_name_H-M_alt    "P 1"
_space_group_IT_number       1

loop_
  _space_group_symop_operation_xyz
  'x, y, z'

loop_
  _atom_site_type_symbol
  _atom_site_label
  _atom_site_symmetry_multiplicity
  _atom_site_fract_x
  _atom_site_fract_y
  _atom_site_fract_z
  _atom_site_occupancy
  Zr  Zr1       1.0  0.93132  0.19567  0.16923  1.0000
  Zr  Zr2       1.0  0.80433  0.93132  0.16923  1.0000
  Zr  Zr3       1.0  0.19567  0.06868  0.16923  1.0000
  Zr  Zr4       1.0  0.06868  0.80433  0.16923  1.0000
  Zr  Zr5       1.0  0.43132  0.69567  0.66923  1.0000
  Zr  Zr6       1.0  0.30433  0.43132  0.66923  1.0000
  Zr  Zr7       1.0  0.69567  0.56868  0.66923  1.0000
  Zr  Zr8       1.0  0.56868  0.30433  0.66923  1.0000
  Zr  Zr9       1.0  0.06868  0.80433  0.83077  1.0000
  Zr  Zr10      1.0  0.19567  0.06868  0.83077  1.0000
  Zr  Zr11      1.0  0.80433  0.93132  0.83077  1.0000
  Zr  Zr12      1.0  0.93132  0.19567  0.83077  1.0000
  Zr  Zr13      1.0  0.56868  0.30433  0.33077  1.0000
  Zr  Zr14      1.0  0.69567  0.56868  0.33077  1.0000
  Zr  Zr15      1.0  0.30433  0.43132  0.33077  1.0000
  Zr  Zr16      1.0  0.43132  0.69567  0.33077  1.0000
  Zr  Zr17      1.0  0.89999  0.31824  0.00000  1.0000
  Zr  Zr18      1.0  0.68176  0.89999  0.00000  1.0000
  Zr  Zr19      1.0  0.31824  0.10001  0.00000  1.0000
  Zr  Zr20      1.0  0.10001  0.68176  0.00000  1.0000
  Zr  Zr21      1.0  0.39999  0.81824  0.50000  1.0000
  Zr  Zr22      1.0  0.18176  0.39999  0.50000  1.0000
  Zr  Zr23      1.0  0.81824  0.60001  0.50000  1.0000
  Zr  Zr24      1.0  0.60001  0.18176  0.50000  1.0000
  P   P1        1.0  0.19911  0.42027  0.28917  1.0000
  P   P2        1.0  0.57973  0.19911  0.28917  1.0000
  P   P3        1.0  0.42027  0.80089  0.28917  1.0000
  P   P4        1.0  0.80089  0.57973  0.28917  1.0000
  P   P5        1.0  0.69911  0.92027  0.78917  1.0000
  P   P6        1.0  0.07973  0.69911  0.78917  1.0000
  P   P7        1.0  0.92027  0.30089  0.78917  1.0000
  P   P8        1.0  0.30089  0.07973  0.78917  1.0000
  P   P9        1.0  0.80089  0.57973  0.71083  1.0000
  P   P10       1.0  0.42027  0.80089  0.71083  1.0000
  P   P11       1.0  0.57973  0.19911  0.71083  1.0000
  P   P12       1.0  0.19911  0.42027  0.71083  1.0000
  P   P13       1.0  0.30089  0.07973  0.21083  1.0000
  P   P14       1.0  0.92027  0.30089  0.21083  1.0000
  P   P15       1.0  0.07973  0.69911  0.21083  1.0000
  P   P16       1.0  0.69911  0.92027  0.21083  1.0000
  P   P17       1.0  0.97707  0.24324  0.00000  1.0000
  P   P18       1.0  0.75676  0.97707  0.00000  1.0000
  P   P19       1.0  0.24324  0.02293  0.00000  1.0000
  P   P20       1.0  0.02293  0.75676  0.00000  1.0000
  P   P21       1.0  0.47707  0.74324  0.50000  1.0000
  P   P22       1.0  0.25676  0.47707  0.50000  1.0000
  P   P23       1.0  0.74324  0.52293  0.50000  1.0000
  P   P24       1.0  0.52293  0.25676  0.50000  1.0000
  P   P25       1.0  0.22065  0.13383  0.00000  1.0000
  P   P26       1.0  0.86617  0.22065  0.00000  1.0000
  P   P27       1.0  0.13383  0.77935  0.00000  1.0000
  P   P28       1.0  0.77935  0.86617  0.00000  1.0000
  P   P29       1.0  0.72065  0.63383  0.50000  1.0000
  P   P30       1.0  0.36617  0.72065  0.50000  1.0000
  P   P31       1.0  0.63383  0.27935  0.50000  1.0000
  P   P32       1.0  0.27935  0.36617  0.50000  1.0000
  O   O1        1.0  0.24421  0.42320  0.29050  1.0000
  O   O2        1.0  0.57680  0.24421  0.29050  1.0000
  O   O3        1.0  0.42320  0.75579  0.29050  1.0000
  O   O4        1.0  0.75579  0.57680  0.29050  1.0000
  O   O5        1.0  0.74421  0.92320  0.79050  1.0000
  O   O6        1.0  0.07680  0.74421  0.79050  1.0000
  O   O7        1.0  0.92320  0.25579  0.79050  1.0000
  O   O8        1.0  0.25579  0.07680  0.79050  1.0000
  O   O9        1.0  0.75579  0.57680  0.70950  1.0000
  O   O10       1.0  0.42320  0.75579  0.70950  1.0000
  O   O11       1.0  0.57680  0.24421  0.70950  1.0000
  O   O12       1.0  0.24421  0.42320  0.70950  1.0000
  O   O13       1.0  0.25579  0.07680  0.20950  1.0000
  O   O14       1.0  0.92320  0.25579  0.20950  1.0000
  O   O15       1.0  0.07680  0.74421  0.20950  1.0000
  O   O16       1.0  0.74421  0.92320  0.20950  1.0000
  O   O17       1.0  0.18115  0.40291  0.36900  1.0000
  O   O18       1.0  0.59709  0.18115  0.36900  1.0000
  O   O19       1.0  0.40291  0.81885  0.36900  1.0000
  O   O20       1.0  0.81885  0.59709  0.36900  1.0000
  O   O21       1.0  0.68115  0.90291  0.86900  1.0000
  O   O22       1.0  0.09709  0.68115  0.86900  1.0000
  O   O23       1.0  0.90291  0.31885  0.86900  1.0000
  O   O24       1.0  0.31885  0.09709  0.86900  1.0000
  O   O25       1.0  0.81885  0.59709  0.63100  1.0000
  O   O26       1.0  0.40291  0.81885  0.63100  1.0000
  O   O27       1.0  0.59709  0.18115  0.63100  1.0000
  O   O28       1.0  0.18115  0.40291  0.63100  1.0000
  O   O29       1.0  0.31885  0.09709  0.13100  1.0000
  O   O30       1.0  0.90291  0.31885  0.13100  1.0000
  O   O31       1.0  0.09709  0.68115  0.13100  1.0000
  O   O32       1.0  0.68115  0.90291  0.13100  1.0000
  O   O33       1.0  0.18060  0.46137  0.27170  1.0000
  O   O34       1.0  0.53863  0.18060  0.27170  1.0000
  O   O35       1.0  0.46137  0.81940  0.27170  1.0000
  O   O36       1.0  0.81940  0.53863  0.27170  1.0000
  O   O37       1.0  0.68060  0.96137  0.77170  1.0000
  O   O38       1.0  0.03863  0.68060  0.77170  1.0000
  O   O39       1.0  0.96137  0.31940  0.77170  1.0000
  O   O40       1.0  0.31940  0.03863  0.77170  1.0000
  O   O41       1.0  0.81940  0.53863  0.72830  1.0000
  O   O42       1.0  0.46137  0.81940  0.72830  1.0000
  O   O43       1.0  0.53863  0.18060  0.72830  1.0000
  O   O44       1.0  0.18060  0.46137  0.72830  1.0000
  O   O45       1.0  0.31940  0.03863  0.22830  1.0000
  O   O46       1.0  0.96137  0.31940  0.22830  1.0000
  O   O47       1.0  0.03863  0.68060  0.22830  1.0000
  O   O48       1.0  0.68060  0.96137  0.22830  1.0000
  O   O49       1.0  0.94903  0.27948  0.00000  1.0000
  O   O50       1.0  0.72052  0.94903  0.00000  1.0000
  O   O51       1.0  0.27948  0.05097  0.00000  1.0000
  O   O52       1.0  0.05097  0.72052  0.00000  1.0000
  O   O53       1.0  0.44903  0.77948  0.50000  1.0000
  O   O54       1.0  0.22052  0.44903  0.50000  1.0000
  O   O55       1.0  0.77948  0.55097  0.50000  1.0000
  O   O56       1.0  0.55097  0.22052  0.50000  1.0000
  O   O57       1.0  0.97194  0.21847  0.07970  1.0000
  O   O58       1.0  0.78153  0.97194  0.07970  1.0000
  O   O59       1.0  0.21847  0.02806  0.07970  1.0000
  O   O60       1.0  0.02806  0.78153  0.07970  1.0000
  O   O61       1.0  0.47194  0.71847  0.57970  1.0000
  O   O62       1.0  0.28153  0.47194  0.57970  1.0000
  O   O63       1.0  0.71847  0.52806  0.57970  1.0000
  O   O64       1.0  0.52806  0.28153  0.57970  1.0000
  O   O65       1.0  0.02806  0.78153  0.92030  1.0000
  O   O66       1.0  0.21847  0.02806  0.92030  1.0000
  O   O67       1.0  0.78153  0.97194  0.92030  1.0000
  O   O68       1.0  0.97194  0.21847  0.92030  1.0000
  O   O69       1.0  0.52806  0.28153  0.42030  1.0000
  O   O70       1.0  0.71847  0.52806  0.42030  1.0000
  O   O71       1.0  0.28153  0.47194  0.42030  1.0000
  O   O72       1.0  0.47194  0.71847  0.42030  1.0000
  O   O73       1.0  0.26689  0.13609  0.00000  1.0000
  O   O74       1.0  0.86391  0.26689  0.00000  1.0000
  O   O75       1.0  0.13609  0.73311  0.00000  1.0000
  O   O76       1.0  0.73311  0.86391  0.00000  1.0000
  O   O77       1.0  0.76689  0.63609  0.50000  1.0000
  O   O78       1.0  0.36391  0.76689  0.50000  1.0000
  O   O79       1.0  0.63609  0.23311  0.50000  1.0000
  O   O80       1.0  0.23311  0.36391  0.50000  1.0000
  O   O81       1.0  0.20386  0.11355  0.92210  1.0000
  O   O82       1.0  0.88645  0.20386  0.92210  1.0000
  O   O83       1.0  0.11355  0.79614  0.92210  1.0000
  O   O84       1.0  0.79614  0.88645  0.92210  1.0000
  O   O85       1.0  0.70386  0.61355  0.42210  1.0000
  O   O86       1.0  0.38645  0.70386  0.42210  1.0000
  O   O87       1.0  0.61355  0.29614  0.42210  1.0000
  O   O88       1.0  0.29614  0.38645  0.42210  1.0000
  O   O89       1.0  0.79614  0.88645  0.07790  1.0000
  O   O90       1.0  0.11355  0.79614  0.07790  1.0000
  O   O91       1.0  0.88645  0.20386  0.07790  1.0000
  O   O92       1.0  0.20386  0.11355  0.07790  1.0000
  O   O93       1.0  0.29614  0.38645  0.57790  1.0000
  O   O94       1.0  0.61355  0.29614  0.57790  1.0000
  O   O95       1.0  0.38645  0.70386  0.57790  1.0000
  O   O96       1.0  0.70386  0.61355  0.57790  1.0000
  F   F1        1.0  0.88957  0.17990  0.25230  1.0000
  F   F2        1.0  0.82010  0.88957  0.25230  1.0000
  F   F3        1.0  0.17990  0.11043  0.25230  1.0000
  F   F4        1.0  0.11043  0.82010  0.25230  1.0000
  F   F5        1.0  0.38957  0.67990  0.75230  1.0000
  F   F6        1.0  0.32010  0.38957  0.75230  1.0000
  F   F7        1.0  0.67990  0.61043  0.75230  1.0000
  F   F8        1.0  0.61043  0.32010  0.75230  1.0000
  F   F9        1.0  0.11043  0.82010  0.74770  1.0000
  F   F10       1.0  0.17990  0.11043  0.74770  1.0000
  F   F11       1.0  0.82010  0.88957  0.74770  1.0000
  F   F12       1.0  0.88957  0.17990  0.74770  1.0000
  F   F13       1.0  0.61043  0.32010  0.24770  1.0000
  F   F14       1.0  0.67990  0.61043  0.24770  1.0000
  F   F15       1.0  0.32010  0.38957  0.24770  1.0000
  F   F16       1.0  0.38957  0.67990  0.24770  1.0000
  F   F17       1.0  0.94077  0.14011  0.13210  1.0000
  F   F18       1.0  0.85989  0.94077  0.13210  1.0000
  F   F19       1.0  0.14011  0.05923  0.13210  1.0000
  F   F20       1.0  0.05923  0.85989  0.13210  1.0000
  F   F21       1.0  0.44077  0.64011  0.63210  1.0000
  F   F22       1.0  0.35989  0.44077  0.63210  1.0000
  F   F23       1.0  0.64011  0.55923  0.63210  1.0000
  F   F24       1.0  0.55923  0.35989  0.63210  1.0000
  F   F25       1.0  0.05923  0.85989  0.86790  1.0000
  F   F26       1.0  0.14011  0.05923  0.86790  1.0000
  F   F27       1.0  0.85989  0.94077  0.86790  1.0000
  F   F28       1.0  0.94077  0.14011  0.86790  1.0000
  F   F29       1.0  0.55923  0.35989  0.36790  1.0000
  F   F30       1.0  0.64011  0.55923  0.36790  1.0000
  F   F31       1.0  0.35989  0.44077  0.36790  1.0000
  F   F32       1.0  0.44077  0.64011  0.36790  1.0000
  F   F33       1.0  0.97553  0.19023  0.25150  1.0000
  F   F34       1.0  0.80977  0.97553  0.25150  1.0000
  F   F35       1.0  0.19023  0.02447  0.25150  1.0000
  F   F36       1.0  0.02447  0.80977  0.25150  1.0000
  F   F37       1.0  0.47553  0.69023  0.75150  1.0000
  F   F38       1.0  0.30977  0.47553  0.75150  1.0000
  F   F39       1.0  0.69023  0.52447  0.75150  1.0000
  F   F40       1.0  0.52447  0.30977  0.75150  1.0000
  F   F41       1.0  0.02447  0.80977  0.74850  1.0000
  F   F42       1.0  0.19023  0.02447  0.74850  1.0000
  F   F43       1.0  0.80977  0.97553  0.74850  1.0000
  F   F44       1.0  0.97553  0.19023  0.74850  1.0000
  F   F45       1.0  0.52447  0.30977  0.24850  1.0000
  F   F46       1.0  0.69023  0.52447  0.24850  1.0000
  F   F47       1.0  0.30977  0.47553  0.24850  1.0000
  F   F48       1.0  0.47553  0.69023  0.24850  1.0000
  F   F49       1.0  0.85100  0.35176  0.00000  1.0000
  F   F50       1.0  0.64824  0.85100  0.00000  1.0000
  F   F51       1.0  0.35176  0.14900  0.00000  1.0000
  F   F52       1.0  0.14900  0.64824  0.00000  1.0000
  F   F53       1.0  0.35100  0.85176  0.50000  1.0000
  F   F54       1.0  0.14824  0.35100  0.50000  1.0000
  F   F55       1.0  0.85176  0.64900  0.50000  1.0000
  F   F56       1.0  0.64900  0.14824  0.50000  1.0000
  F   F57       1.0  0.93575  0.36681  0.00000  1.0000
  F   F58       1.0  0.63319  0.93575  0.00000  1.0000
  F   F59       1.0  0.36681  0.06425  0.00000  1.0000
  F   F60       1.0  0.06425  0.63319  0.00000  1.0000
  F   F61       1.0  0.43575  0.86681  0.50000  1.0000
  F   F62       1.0  0.13319  0.43575  0.50000  1.0000
  F   F63       1.0  0.86681  0.56425  0.50000  1.0000
  F   F64       1.0  0.56425  0.13319  0.50000  1.0000
  C   C1        1.0  0.16258  0.33314  0.07610  1.0000
  C   C2        1.0  0.66686  0.16258  0.07610  1.0000
  C   C3        1.0  0.33314  0.83742  0.07610  1.0000
  C   C4        1.0  0.83742  0.66686  0.07610  1.0000
  C   C5        1.0  0.66258  0.83314  0.57610  1.0000
  C   C6        1.0  0.16686  0.66258  0.57610  1.0000
  C   C7        1.0  0.83314  0.33742  0.57610  1.0000
  C   C8        1.0  0.33742  0.16686  0.57610  1.0000
  C   C9        1.0  0.83742  0.66686  0.92390  1.0000
  C   C10       1.0  0.33314  0.83742  0.92390  1.0000
  C   C11       1.0  0.66686  0.16258  0.92390  1.0000
  C   C12       1.0  0.16258  0.33314  0.92390  1.0000
  C   C13       1.0  0.33742  0.16686  0.42390  1.0000
  C   C14       1.0  0.83314  0.33742  0.42390  1.0000
  C   C15       1.0  0.16686  0.66258  0.42390  1.0000
  C   C16       1.0  0.66258  0.83314  0.42390  1.0000
  C   C17       1.0  0.13627  0.36163  0.10670  1.0000
  C   C18       1.0  0.63837  0.13627  0.10670  1.0000
  C   C19       1.0  0.36163  0.86373  0.10670  1.0000
  C   C20       1.0  0.86373  0.63837  0.10670  1.0000
  C   C21       1.0  0.63627  0.86163  0.60670  1.0000
  C   C22       1.0  0.13837  0.63627  0.60670  1.0000
  C   C23       1.0  0.86163  0.36373  0.60670  1.0000
  C   C24       1.0  0.36373  0.13837  0.60670  1.0000
  C   C25       1.0  0.86373  0.63837  0.89330  1.0000
  C   C26       1.0  0.36163  0.86373  0.89330  1.0000
  C   C27       1.0  0.63837  0.13627  0.89330  1.0000
  C   C28       1.0  0.13627  0.36163  0.89330  1.0000
  C   C29       1.0  0.36373  0.13837  0.39330  1.0000
  C   C30       1.0  0.86163  0.36373  0.39330  1.0000
  C   C31       1.0  0.13837  0.63627  0.39330  1.0000
  C   C32       1.0  0.63627  0.86163  0.39330  1.0000
  H   H1        1.0  0.11040  0.36310  0.08400  1.0000
  H   H2        1.0  0.63690  0.11040  0.08400  1.0000
  H   H3        1.0  0.36310  0.88960  0.08400  1.0000
  H   H4        1.0  0.88960  0.63690  0.08400  1.0000
  H   H5        1.0  0.61040  0.86310  0.58400  1.0000
  H   H6        1.0  0.13690  0.61040  0.58400  1.0000
  H   H7        1.0  0.86310  0.38960  0.58400  1.0000
  H   H8        1.0  0.38960  0.13690  0.58400  1.0000
  H   H9        1.0  0.88960  0.63690  0.91600  1.0000
  H   H10       1.0  0.36310  0.88960  0.91600  1.0000
  H   H11       1.0  0.63690  0.11040  0.91600  1.0000
  H   H12       1.0  0.11040  0.36310  0.91600  1.0000
  H   H13       1.0  0.38960  0.13690  0.41600  1.0000
  H   H14       1.0  0.86310  0.38960  0.41600  1.0000
  H   H15       1.0  0.13690  0.61040  0.41600  1.0000
  H   H16       1.0  0.61040  0.86310  0.41600  1.0000
  C   C33       1.0  0.14702  0.38845  0.17030  1.0000
  C   C34       1.0  0.61155  0.14702  0.17030  1.0000
  C   C35       1.0  0.38845  0.85298  0.17030  1.0000
  C   C36       1.0  0.85298  0.61155  0.17030  1.0000
  C   C37       1.0  0.64702  0.88845  0.67030  1.0000
  C   C38       1.0  0.11155  0.64702  0.67030  1.0000
  C   C39       1.0  0.88845  0.35298  0.67030  1.0000
  C   C40       1.0  0.35298  0.11155  0.67030  1.0000
  C   C41       1.0  0.85298  0.61155  0.82970  1.0000
  C   C42       1.0  0.38845  0.85298  0.82970  1.0000
  C   C43       1.0  0.61155  0.14702  0.82970  1.0000
  C   C44       1.0  0.14702  0.38845  0.82970  1.0000
  C   C45       1.0  0.35298  0.11155  0.32970  1.0000
  C   C46       1.0  0.88845  0.35298  0.32970  1.0000
  C   C47       1.0  0.11155  0.64702  0.32970  1.0000
  C   C48       1.0  0.64702  0.88845  0.32970  1.0000
  H   H17       1.0  0.12840  0.40730  0.18990  1.0000
  H   H18       1.0  0.59270  0.12840  0.18990  1.0000
  H   H19       1.0  0.40730  0.87160  0.18990  1.0000
  H   H20       1.0  0.87160  0.59270  0.18990  1.0000
  H   H21       1.0  0.62840  0.90730  0.68990  1.0000
  H   H22       1.0  0.09270  0.62840  0.68990  1.0000
  H   H23       1.0  0.90730  0.37160  0.68990  1.0000
  H   H24       1.0  0.37160  0.09270  0.68990  1.0000
  H   H25       1.0  0.87160  0.59270  0.81010  1.0000
  H   H26       1.0  0.40730  0.87160  0.81010  1.0000
  H   H27       1.0  0.59270  0.12840  0.81010  1.0000
  H   H28       1.0  0.12840  0.40730  0.81010  1.0000
  H   H29       1.0  0.37160  0.09270  0.31010  1.0000
  H   H30       1.0  0.90730  0.37160  0.31010  1.0000
  H   H31       1.0  0.09270  0.62840  0.31010  1.0000
  H   H32       1.0  0.62840  0.90730  0.31010  1.0000
  C   C49       1.0  0.18555  0.38693  0.20450  1.0000
  C   C50       1.0  0.61307  0.18555  0.20450  1.0000
  C   C51       1.0  0.38693  0.81445  0.20450  1.0000
  C   C52       1.0  0.81445  0.61307  0.20450  1.0000
  C   C53       1.0  0.68555  0.88693  0.70450  1.0000
  C   C54       1.0  0.11307  0.68555  0.70450  1.0000
  C   C55       1.0  0.88693  0.31445  0.70450  1.0000
  C   C56       1.0  0.31445  0.11307  0.70450  1.0000
  C   C57       1.0  0.81445  0.61307  0.79550  1.0000
  C   C58       1.0  0.38693  0.81445  0.79550  1.0000
  C   C59       1.0  0.61307  0.18555  0.79550  1.0000
  C   C60       1.0  0.18555  0.38693  0.79550  1.0000
  C   C61       1.0  0.31445  0.11307  0.29550  1.0000
  C   C62       1.0  0.88693  0.31445  0.29550  1.0000
  C   C63       1.0  0.11307  0.68555  0.29550  1.0000
  C   C64       1.0  0.68555  0.88693  0.29550  1.0000
  C   C65       1.0  0.21331  0.35987  0.17250  1.0000
  C   C66       1.0  0.64013  0.21331  0.17250  1.0000
  C   C67       1.0  0.35987  0.78669  0.17250  1.0000
  C   C68       1.0  0.78669  0.64013  0.17250  1.0000
  C   C69       1.0  0.71331  0.85987  0.67250  1.0000
  C   C70       1.0  0.14013  0.71331  0.67250  1.0000
  C   C71       1.0  0.85987  0.28669  0.67250  1.0000
  C   C72       1.0  0.28669  0.14013  0.67250  1.0000
  C   C73       1.0  0.78669  0.64013  0.82750  1.0000
  C   C74       1.0  0.35987  0.78669  0.82750  1.0000
  C   C75       1.0  0.64013  0.21331  0.82750  1.0000
  C   C76       1.0  0.21331  0.35987  0.82750  1.0000
  C   C77       1.0  0.28669  0.14013  0.32750  1.0000
  C   C78       1.0  0.85987  0.28669  0.32750  1.0000
  C   C79       1.0  0.14013  0.71331  0.32750  1.0000
  C   C80       1.0  0.71331  0.85987  0.32750  1.0000
  H   H33       1.0  0.23980  0.36000  0.19210  1.0000
  H   H34       1.0  0.64000  0.23980  0.19210  1.0000
  H   H35       1.0  0.36000  0.76020  0.19210  1.0000
  H   H36       1.0  0.76020  0.64000  0.19210  1.0000
  H   H37       1.0  0.73980  0.86000  0.69210  1.0000
  H   H38       1.0  0.14000  0.73980  0.69210  1.0000
  H   H39       1.0  0.86000  0.26020  0.69210  1.0000
  H   H40       1.0  0.26020  0.14000  0.69210  1.0000
  H   H41       1.0  0.76020  0.64000  0.80790  1.0000
  H   H42       1.0  0.36000  0.76020  0.80790  1.0000
  H   H43       1.0  0.64000  0.23980  0.80790  1.0000
  H   H44       1.0  0.23980  0.36000  0.80790  1.0000
  H   H45       1.0  0.26020  0.14000  0.30790  1.0000
  H   H46       1.0  0.86000  0.26020  0.30790  1.0000
  H   H47       1.0  0.14000  0.73980  0.30790  1.0000
  H   H48       1.0  0.73980  0.86000  0.30790  1.0000
  C   C81       1.0  0.20137  0.33212  0.10990  1.0000
  C   C82       1.0  0.66788  0.20137  0.10990  1.0000
  C   C83       1.0  0.33212  0.79863  0.10990  1.0000
  C   C84       1.0  0.79863  0.66788  0.10990  1.0000
  C   C85       1.0  0.70137  0.83212  0.60990  1.0000
  C   C86       1.0  0.16788  0.70137  0.60990  1.0000
  C   C87       1.0  0.83212  0.29863  0.60990  1.0000
  C   C88       1.0  0.29863  0.16788  0.60990  1.0000
  C   C89       1.0  0.79863  0.66788  0.89010  1.0000
  C   C90       1.0  0.33212  0.79863  0.89010  1.0000
  C   C91       1.0  0.66788  0.20137  0.89010  1.0000
  C   C92       1.0  0.20137  0.33212  0.89010  1.0000
  C   C93       1.0  0.29863  0.16788  0.39010  1.0000
  C   C94       1.0  0.83212  0.29863  0.39010  1.0000
  C   C95       1.0  0.16788  0.70137  0.39010  1.0000
  C   C96       1.0  0.70137  0.83212  0.39010  1.0000
  H   H49       1.0  0.21970  0.31280  0.09090  1.0000
  H   H50       1.0  0.68720  0.21970  0.09090  1.0000
  H   H51       1.0  0.31280  0.78030  0.09090  1.0000
  H   H52       1.0  0.78030  0.68720  0.09090  1.0000
  H   H53       1.0  0.71970  0.81280  0.59090  1.0000
  H   H54       1.0  0.18720  0.71970  0.59090  1.0000
  H   H55       1.0  0.81280  0.28030  0.59090  1.0000
  H   H56       1.0  0.28030  0.18720  0.59090  1.0000
  H   H57       1.0  0.78030  0.68720  0.90910  1.0000
  H   H58       1.0  0.31280  0.78030  0.90910  1.0000
  H   H59       1.0  0.68720  0.21970  0.90910  1.0000
  H   H60       1.0  0.21970  0.31280  0.90910  1.0000
  H   H61       1.0  0.28030  0.18720  0.40910  1.0000
  H   H62       1.0  0.81280  0.28030  0.40910  1.0000
  H   H63       1.0  0.18720  0.71970  0.40910  1.0000
  H   H64       1.0  0.71970  0.81280  0.40910  1.0000
  C   C97       1.0  0.02817  0.26205  0.00000  1.0000
  C   C98       1.0  0.73795  0.02817  0.00000  1.0000
  C   C99       1.0  0.26205  0.97183  0.00000  1.0000
  C   C100      1.0  0.97183  0.73795  0.00000  1.0000
  C   C101      1.0  0.52817  0.76205  0.50000  1.0000
  C   C102      1.0  0.23795  0.52817  0.50000  1.0000
  C   C103      1.0  0.76205  0.47183  0.50000  1.0000
  C   C104      1.0  0.47183  0.23795  0.50000  1.0000
  C   C105      1.0  0.04745  0.26980  0.92490  1.0000
  C   C106      1.0  0.73020  0.04745  0.92490  1.0000
  C   C107      1.0  0.26980  0.95255  0.92490  1.0000
  C   C108      1.0  0.95255  0.73020  0.92490  1.0000
  C   C109      1.0  0.54745  0.76980  0.42490  1.0000
  C   C110      1.0  0.23020  0.54745  0.42490  1.0000
  C   C111      1.0  0.76980  0.45255  0.42490  1.0000
  C   C112      1.0  0.45255  0.23020  0.42490  1.0000
  C   C113      1.0  0.95255  0.73020  0.07510  1.0000
  C   C114      1.0  0.26980  0.95255  0.07510  1.0000
  C   C115      1.0  0.73020  0.04745  0.07510  1.0000
  C   C116      1.0  0.04745  0.26980  0.07510  1.0000
  C   C117      1.0  0.45255  0.23020  0.57510  1.0000
  C   C118      1.0  0.76980  0.45255  0.57510  1.0000
  C   C119      1.0  0.23020  0.54745  0.57510  1.0000
  C   C120      1.0  0.54745  0.76980  0.57510  1.0000
  H   H65       1.0  0.03440  0.26450  0.87410  1.0000
  H   H66       1.0  0.73550  0.03440  0.87410  1.0000
  H   H67       1.0  0.26450  0.96560  0.87410  1.0000
  H   H68       1.0  0.96560  0.73550  0.87410  1.0000
  H   H69       1.0  0.53440  0.76450  0.37410  1.0000
  H   H70       1.0  0.23550  0.53440  0.37410  1.0000
  H   H71       1.0  0.76450  0.46560  0.37410  1.0000
  H   H72       1.0  0.46560  0.23550  0.37410  1.0000
  H   H73       1.0  0.96560  0.73550  0.12590  1.0000
  H   H74       1.0  0.26450  0.96560  0.12590  1.0000
  H   H75       1.0  0.73550  0.03440  0.12590  1.0000
  H   H76       1.0  0.03440  0.26450  0.12590  1.0000
  H   H77       1.0  0.46560  0.23550  0.62590  1.0000
  H   H78       1.0  0.76450  0.46560  0.62590  1.0000
  H   H79       1.0  0.23550  0.53440  0.62590  1.0000
  H   H80       1.0  0.53440  0.76450  0.62590  1.0000
  C   C121      1.0  0.08628  0.28550  0.92480  1.0000
  C   C122      1.0  0.71450  0.08628  0.92480  1.0000
  C   C123      1.0  0.28550  0.91372  0.92480  1.0000
  C   C124      1.0  0.91372  0.71450  0.92480  1.0000
  C   C125      1.0  0.58628  0.78550  0.42480  1.0000
  C   C126      1.0  0.21450  0.58628  0.42480  1.0000
  C   C127      1.0  0.78550  0.41372  0.42480  1.0000
  C   C128      1.0  0.41372  0.21450  0.42480  1.0000
  C   C129      1.0  0.91372  0.71450  0.07520  1.0000
  C   C130      1.0  0.28550  0.91372  0.07520  1.0000
  C   C131      1.0  0.71450  0.08628  0.07520  1.0000
  C   C132      1.0  0.08628  0.28550  0.07520  1.0000
  C   C133      1.0  0.41372  0.21450  0.57520  1.0000
  C   C134      1.0  0.78550  0.41372  0.57520  1.0000
  C   C135      1.0  0.21450  0.58628  0.57520  1.0000
  C   C136      1.0  0.58628  0.78550  0.57520  1.0000
  H   H81       1.0  0.09910  0.29050  0.87350  1.0000
  H   H82       1.0  0.70950  0.09910  0.87350  1.0000
  H   H83       1.0  0.29050  0.90090  0.87350  1.0000
  H   H84       1.0  0.90090  0.70950  0.87350  1.0000
  H   H85       1.0  0.59910  0.79050  0.37350  1.0000
  H   H86       1.0  0.20950  0.59910  0.37350  1.0000
  H   H87       1.0  0.79050  0.40090  0.37350  1.0000
  H   H88       1.0  0.40090  0.20950  0.37350  1.0000
  H   H89       1.0  0.90090  0.70950  0.12650  1.0000
  H   H90       1.0  0.29050  0.90090  0.12650  1.0000
  H   H91       1.0  0.70950  0.09910  0.12650  1.0000
  H   H92       1.0  0.09910  0.29050  0.12650  1.0000
  H   H93       1.0  0.40090  0.20950  0.62650  1.0000
  H   H94       1.0  0.79050  0.40090  0.62650  1.0000
  H   H95       1.0  0.20950  0.59910  0.62650  1.0000
  H   H96       1.0  0.59910  0.79050  0.62650  1.0000
  C   C137      1.0  0.10662  0.29402  0.00000  1.0000
  C   C138      1.0  0.70598  0.10662  0.00000  1.0000
  C   C139      1.0  0.29402  0.89338  0.00000  1.0000
  C   C140      1.0  0.89338  0.70598  0.00000  1.0000
  C   C141      1.0  0.60662  0.79402  0.50000  1.0000
  C   C142      1.0  0.20598  0.60662  0.50000  1.0000
  C   C143      1.0  0.79402  0.39338  0.50000  1.0000
  C   C144      1.0  0.39338  0.20598  0.50000  1.0000
  C   C145      1.0  0.20150  0.18479  0.00000  1.0000
  C   C146      1.0  0.81521  0.20150  0.00000  1.0000
  C   C147      1.0  0.18479  0.79850  0.00000  1.0000
  C   C148      1.0  0.79850  0.81521  0.00000  1.0000
  C   C149      1.0  0.70150  0.68479  0.50000  1.0000
  C   C150      1.0  0.31521  0.70150  0.50000  1.0000
  C   C151      1.0  0.68479  0.29850  0.50000  1.0000
  C   C152      1.0  0.29850  0.31521  0.50000  1.0000
  C   C153      1.0  0.19425  0.20478  0.92480  1.0000
  C   C154      1.0  0.79522  0.19425  0.92480  1.0000
  C   C155      1.0  0.20478  0.80575  0.92480  1.0000
  C   C156      1.0  0.80575  0.79522  0.92480  1.0000
  C   C157      1.0  0.69425  0.70478  0.42480  1.0000
  C   C158      1.0  0.29522  0.69425  0.42480  1.0000
  C   C159      1.0  0.70478  0.30575  0.42480  1.0000
  C   C160      1.0  0.30575  0.29522  0.42480  1.0000
  C   C161      1.0  0.80575  0.79522  0.07520  1.0000
  C   C162      1.0  0.20478  0.80575  0.07520  1.0000
  C   C163      1.0  0.79522  0.19425  0.07520  1.0000
  C   C164      1.0  0.19425  0.20478  0.07520  1.0000
  C   C165      1.0  0.30575  0.29522  0.57520  1.0000
  C   C166      1.0  0.70478  0.30575  0.57520  1.0000
  C   C167      1.0  0.29522  0.69425  0.57520  1.0000
  C   C168      1.0  0.69425  0.70478  0.57520  1.0000
  H   H97       1.0  0.19910  0.19170  0.87380  1.0000
  H   H98       1.0  0.80830  0.19910  0.87380  1.0000
  H   H99       1.0  0.19170  0.80090  0.87380  1.0000
  H   H100      1.0  0.80090  0.80830  0.87380  1.0000
  H   H101      1.0  0.69910  0.69170  0.37380  1.0000
  H   H102      1.0  0.30830  0.69910  0.37380  1.0000
  H   H103      1.0  0.69170  0.30090  0.37380  1.0000
  H   H104      1.0  0.30090  0.30830  0.37380  1.0000
  H   H105      1.0  0.80090  0.80830  0.12620  1.0000
  H   H106      1.0  0.19170  0.80090  0.12620  1.0000
  H   H107      1.0  0.80830  0.19910  0.12620  1.0000
  H   H108      1.0  0.19910  0.19170  0.12620  1.0000
  H   H109      1.0  0.30090  0.30830  0.62620  1.0000
  H   H110      1.0  0.69170  0.30090  0.62620  1.0000
  H   H111      1.0  0.30830  0.69910  0.62620  1.0000
  H   H112      1.0  0.69910  0.69170  0.62620  1.0000
  C   C169      1.0  0.17980  0.24420  0.92490  1.0000
  C   C170      1.0  0.75580  0.17980  0.92490  1.0000
  C   C171      1.0  0.24420  0.82020  0.92490  1.0000
  C   C172      1.0  0.82020  0.75580  0.92490  1.0000
  C   C173      1.0  0.67980  0.74420  0.42490  1.0000
  C   C174      1.0  0.25580  0.67980  0.42490  1.0000
  C   C175      1.0  0.74420  0.32020  0.42490  1.0000
  C   C176      1.0  0.32020  0.25580  0.42490  1.0000
  C   C177      1.0  0.82020  0.75580  0.07510  1.0000
  C   C178      1.0  0.24420  0.82020  0.07510  1.0000
  C   C179      1.0  0.75580  0.17980  0.07510  1.0000
  C   C180      1.0  0.17980  0.24420  0.07510  1.0000
  C   C181      1.0  0.32020  0.25580  0.57510  1.0000
  C   C182      1.0  0.74420  0.32020  0.57510  1.0000
  C   C183      1.0  0.25580  0.67980  0.57510  1.0000
  C   C184      1.0  0.67980  0.74420  0.57510  1.0000
  H   H113      1.0  0.17500  0.25720  0.87380  1.0000
  H   H114      1.0  0.74280  0.17500  0.87380  1.0000
  H   H115      1.0  0.25720  0.82500  0.87380  1.0000
  H   H116      1.0  0.82500  0.74280  0.87380  1.0000
  H   H117      1.0  0.67500  0.75720  0.37380  1.0000
  H   H118      1.0  0.24280  0.67500  0.37380  1.0000
  H   H119      1.0  0.75720  0.32500  0.37380  1.0000
  H   H120      1.0  0.32500  0.24280  0.37380  1.0000
  H   H121      1.0  0.82500  0.74280  0.12620  1.0000
  H   H122      1.0  0.25720  0.82500  0.12620  1.0000
  H   H123      1.0  0.74280  0.17500  0.12620  1.0000
  H   H124      1.0  0.17500  0.25720  0.12620  1.0000
  H   H125      1.0  0.32500  0.24280  0.62620  1.0000
  H   H126      1.0  0.75720  0.32500  0.62620  1.0000
  H   H127      1.0  0.24280  0.67500  0.62620  1.0000
  H   H128      1.0  0.67500  0.75720  0.62620  1.0000
  C   C185      1.0  0.17246  0.26461  0.00000  1.0000
  C   C186      1.0  0.73539  0.17246  0.00000  1.0000
  C   C187      1.0  0.26461  0.82754  0.00000  1.0000
  C   C188      1.0  0.82754  0.73539  0.00000  1.0000
  C   C189      1.0  0.67246  0.76461  0.50000  1.0000
  C   C190      1.0  0.23539  0.67246  0.50000  1.0000
  C   C191      1.0  0.76461  0.32754  0.50000  1.0000
  C   C192      1.0  0.32754  0.23539  0.50000  1.0000
  C   C193      1.0  0.15167  0.30589  0.00000  1.0000
  C   C194      1.0  0.69411  0.15167  0.00000  1.0000
  C   C195      1.0  0.30589  0.84833  0.00000  1.0000
  C   C196      1.0  0.84833  0.69411  0.00000  1.0000
  C   C197      1.0  0.65167  0.80589  0.50000  1.0000
  C   C198      1.0  0.19411  0.65167  0.50000  1.0000
  C   C199      1.0  0.80589  0.34833  0.50000  1.0000
  C   C200      1.0  0.34833  0.19411  0.50000  1.0000
