data_image0
_chemical_formula_structural       Tb9O81C18H36C54H18C18H18C36H18C18H18C18
_chemical_formula_sum              "Tb9 O81 C162 H108"
_cell_length_a       12.6214
_cell_length_b       12.6214
_cell_length_c       45.452
_cell_angle_alpha    90
_cell_angle_beta     90
_cell_angle_gamma    120

_space_group_name_H-M_alt    "P 1"
_space_group_IT_number       1

loop_
  _space_group_symop_operation_xyz
  'x, y, z'

loop_
  _atom_site_type_symbol
  _atom_site_label
  _atom_site_symmetry_multiplicity
  _atom_site_fract_x
  _atom_site_fract_y
  _atom_site_fract_z
  _atom_site_occupancy
  Tb  Tb1       1.0  0.48850  0.48850  0.00000  1.0000
  Tb  Tb2       1.0  0.51150  0.00000  0.00000  1.0000
  Tb  Tb3       1.0  1.00000  0.51150  0.00000  1.0000
  Tb  Tb4       1.0  0.15517  0.82183  0.33333  1.0000
  Tb  Tb5       1.0  0.17817  0.33333  0.33333  1.0000
  Tb  Tb6       1.0  0.66667  0.84483  0.33333  1.0000
  Tb  Tb7       1.0  0.82183  0.15517  0.66667  1.0000
  Tb  Tb8       1.0  0.84483  0.66667  0.66667  1.0000
  Tb  Tb9       1.0  0.33333  0.17817  0.66667  1.0000
  O   O1        1.0  0.29290  0.29290  0.00000  1.0000
  O   O2        1.0  0.70710  0.00000  0.00000  1.0000
  O   O3        1.0  0.00000  0.70710  0.00000  1.0000
  O   O4        1.0  0.95957  0.62623  0.33333  1.0000
  O   O5        1.0  0.37377  0.33333  0.33333  1.0000
  O   O6        1.0  0.66667  0.04043  0.33333  1.0000
  O   O7        1.0  0.62623  0.95957  0.66667  1.0000
  O   O8        1.0  0.04043  0.66667  0.66667  1.0000
  O   O9        1.0  0.33333  0.37377  0.66667  1.0000
  O   O10       1.0  0.30680  0.50000  0.99396  1.0000
  O   O11       1.0  0.50000  0.80680  0.99396  1.0000
  O   O12       1.0  0.19320  0.69320  0.99396  1.0000
  O   O13       1.0  0.50000  0.30680  0.00604  1.0000
  O   O14       1.0  0.69320  0.19320  0.00604  1.0000
  O   O15       1.0  0.80680  0.50000  0.00604  1.0000
  O   O16       1.0  0.97347  0.83333  0.32729  1.0000
  O   O17       1.0  0.16667  0.14013  0.32729  1.0000
  O   O18       1.0  0.85987  0.02653  0.32729  1.0000
  O   O19       1.0  0.16667  0.64013  0.33937  1.0000
  O   O20       1.0  0.35987  0.52653  0.33937  1.0000
  O   O21       1.0  0.47347  0.83333  0.33937  1.0000
  O   O22       1.0  0.64013  0.16667  0.66063  1.0000
  O   O23       1.0  0.83333  0.47347  0.66063  1.0000
  O   O24       1.0  0.52653  0.35987  0.66063  1.0000
  O   O25       1.0  0.83333  0.97347  0.67271  1.0000
  O   O26       1.0  0.02653  0.85987  0.67271  1.0000
  O   O27       1.0  0.14013  0.16667  0.67271  1.0000
  O   O28       1.0  0.45390  0.43470  0.05299  1.0000
  O   O29       1.0  0.56530  0.01920  0.05299  1.0000
  O   O30       1.0  0.98080  0.54610  0.05299  1.0000
  O   O31       1.0  0.43470  0.45390  0.94701  1.0000
  O   O32       1.0  0.54610  0.98080  0.94701  1.0000
  O   O33       1.0  0.01920  0.56530  0.94701  1.0000
  O   O34       1.0  0.12057  0.76803  0.38632  1.0000
  O   O35       1.0  0.23197  0.35253  0.38632  1.0000
  O   O36       1.0  0.64747  0.87943  0.38632  1.0000
  O   O37       1.0  0.10137  0.78723  0.28034  1.0000
  O   O38       1.0  0.21277  0.31413  0.28034  1.0000
  O   O39       1.0  0.68587  0.89863  0.28034  1.0000
  O   O40       1.0  0.78723  0.10137  0.71966  1.0000
  O   O41       1.0  0.89863  0.68587  0.71966  1.0000
  O   O42       1.0  0.31413  0.21277  0.71966  1.0000
  O   O43       1.0  0.76803  0.12057  0.61368  1.0000
  O   O44       1.0  0.87943  0.64747  0.61368  1.0000
  O   O45       1.0  0.35253  0.23197  0.61368  1.0000
  O   O46       1.0  0.48240  0.61750  0.04082  1.0000
  O   O47       1.0  0.38250  0.86490  0.04082  1.0000
  O   O48       1.0  0.13510  0.51760  0.04082  1.0000
  O   O49       1.0  0.61750  0.48240  0.95918  1.0000
  O   O50       1.0  0.51760  0.13510  0.95918  1.0000
  O   O51       1.0  0.86490  0.38250  0.95918  1.0000
  O   O52       1.0  0.14907  0.95083  0.37415  1.0000
  O   O53       1.0  0.04917  0.19823  0.37415  1.0000
  O   O54       1.0  0.80177  0.85093  0.37415  1.0000
  O   O55       1.0  0.28417  0.81573  0.29251  1.0000
  O   O56       1.0  0.18427  0.46843  0.29251  1.0000
  O   O57       1.0  0.53157  0.71583  0.29251  1.0000
  O   O58       1.0  0.81573  0.28417  0.70749  1.0000
  O   O59       1.0  0.71583  0.53157  0.70749  1.0000
  O   O60       1.0  0.46843  0.18427  0.70749  1.0000
  O   O61       1.0  0.95083  0.14907  0.62585  1.0000
  O   O62       1.0  0.85093  0.80177  0.62585  1.0000
  O   O63       1.0  0.19823  0.04917  0.62585  1.0000
  O   O64       1.0  0.11130  0.42150  0.98134  1.0000
  O   O65       1.0  0.57850  0.68980  0.98134  1.0000
  O   O66       1.0  0.31020  0.88870  0.98134  1.0000
  O   O67       1.0  0.42150  0.11130  0.01866  1.0000
  O   O68       1.0  0.88870  0.31020  0.01866  1.0000
  O   O69       1.0  0.68980  0.57850  0.01866  1.0000
  O   O70       1.0  0.77797  0.75483  0.31467  1.0000
  O   O71       1.0  0.24517  0.02313  0.31467  1.0000
  O   O72       1.0  0.97687  0.22203  0.31467  1.0000
  O   O73       1.0  0.08817  0.44463  0.35199  1.0000
  O   O74       1.0  0.55537  0.64353  0.35199  1.0000
  O   O75       1.0  0.35647  0.91183  0.35199  1.0000
  O   O76       1.0  0.44463  0.08817  0.64801  1.0000
  O   O77       1.0  0.91183  0.35647  0.64801  1.0000
  O   O78       1.0  0.64353  0.55537  0.64801  1.0000
  O   O79       1.0  0.75483  0.77797  0.68533  1.0000
  O   O80       1.0  0.22203  0.97687  0.68533  1.0000
  O   O81       1.0  0.02313  0.24517  0.68533  1.0000
  C   C1        1.0  0.18060  0.28450  0.99510  1.0000
  C   C2        1.0  0.71550  0.89610  0.99510  1.0000
  C   C3        1.0  0.10390  0.81940  0.99510  1.0000
  C   C4        1.0  0.28450  0.18060  0.00490  1.0000
  C   C5        1.0  0.81940  0.10390  0.00490  1.0000
  C   C6        1.0  0.89610  0.71550  0.00490  1.0000
  C   C7        1.0  0.84727  0.61783  0.32843  1.0000
  C   C8        1.0  0.38217  0.22943  0.32843  1.0000
  C   C9        1.0  0.77057  0.15273  0.32843  1.0000
  C   C10       1.0  0.95117  0.51393  0.33823  1.0000
  C   C11       1.0  0.48607  0.43723  0.33823  1.0000
  C   C12       1.0  0.56277  0.04883  0.33823  1.0000
  C   C13       1.0  0.51393  0.95117  0.66177  1.0000
  C   C14       1.0  0.04883  0.56277  0.66177  1.0000
  C   C15       1.0  0.43723  0.48607  0.66177  1.0000
  C   C16       1.0  0.61783  0.84727  0.67157  1.0000
  C   C17       1.0  0.15273  0.77057  0.67157  1.0000
  C   C18       1.0  0.22943  0.38217  0.67157  1.0000
  H   H1        1.0  0.12810  0.24850  0.01210  1.0000
  H   H2        1.0  0.75150  0.87960  0.01210  1.0000
  H   H3        1.0  0.12040  0.87190  0.01210  1.0000
  H   H4        1.0  0.24850  0.12810  0.98790  1.0000
  H   H5        1.0  0.87190  0.12040  0.98790  1.0000
  H   H6        1.0  0.87960  0.75150  0.98790  1.0000
  H   H7        1.0  0.79477  0.58183  0.34543  1.0000
  H   H8        1.0  0.41817  0.21293  0.34543  1.0000
  H   H9        1.0  0.78707  0.20523  0.34543  1.0000
  H   H10       1.0  0.91517  0.46143  0.32123  1.0000
  H   H11       1.0  0.53857  0.45373  0.32123  1.0000
  H   H12       1.0  0.54627  0.08483  0.32123  1.0000
  H   H13       1.0  0.46143  0.91517  0.67877  1.0000
  H   H14       1.0  0.08483  0.54627  0.67877  1.0000
  H   H15       1.0  0.45373  0.53857  0.67877  1.0000
  H   H16       1.0  0.58183  0.79477  0.65457  1.0000
  H   H17       1.0  0.20523  0.78707  0.65457  1.0000
  H   H18       1.0  0.21293  0.41817  0.65457  1.0000
  H   H19       1.0  0.14110  0.23260  0.97820  1.0000
  H   H20       1.0  0.76740  0.90850  0.97820  1.0000
  H   H21       1.0  0.09150  0.85890  0.97820  1.0000
  H   H22       1.0  0.23260  0.14110  0.02180  1.0000
  H   H23       1.0  0.85890  0.09150  0.02180  1.0000
  H   H24       1.0  0.90850  0.76740  0.02180  1.0000
  H   H25       1.0  0.80777  0.56593  0.31153  1.0000
  H   H26       1.0  0.43407  0.24183  0.31153  1.0000
  H   H27       1.0  0.75817  0.19223  0.31153  1.0000
  H   H28       1.0  0.89927  0.47443  0.35513  1.0000
  H   H29       1.0  0.52557  0.42483  0.35513  1.0000
  H   H30       1.0  0.57517  0.10073  0.35513  1.0000
  H   H31       1.0  0.47443  0.89927  0.64487  1.0000
  H   H32       1.0  0.10073  0.57517  0.64487  1.0000
  H   H33       1.0  0.42483  0.52557  0.64487  1.0000
  H   H34       1.0  0.56593  0.80777  0.68847  1.0000
  H   H35       1.0  0.19223  0.75817  0.68847  1.0000
  H   H36       1.0  0.24183  0.43407  0.68847  1.0000
  C   C19       1.0  0.20020  0.41130  0.98950  1.0000
  C   C20       1.0  0.58870  0.78890  0.98950  1.0000
  C   C21       1.0  0.21110  0.79980  0.98950  1.0000
  C   C22       1.0  0.41130  0.20020  0.01050  1.0000
  C   C23       1.0  0.79980  0.21110  0.01050  1.0000
  C   C24       1.0  0.78890  0.58870  0.01050  1.0000
  C   C25       1.0  0.86687  0.74463  0.32283  1.0000
  C   C26       1.0  0.25537  0.12223  0.32283  1.0000
  C   C27       1.0  0.87777  0.13313  0.32283  1.0000
  C   C28       1.0  0.07797  0.53353  0.34383  1.0000
  C   C29       1.0  0.46647  0.54443  0.34383  1.0000
  C   C30       1.0  0.45557  0.92203  0.34383  1.0000
  C   C31       1.0  0.53353  0.07797  0.65617  1.0000
  C   C32       1.0  0.92203  0.45557  0.65617  1.0000
  C   C33       1.0  0.54443  0.46647  0.65617  1.0000
  C   C34       1.0  0.74463  0.86687  0.67717  1.0000
  C   C35       1.0  0.13313  0.87777  0.67717  1.0000
  C   C36       1.0  0.12223  0.25537  0.67717  1.0000
  C   C37       1.0  0.49440  0.57760  0.09140  1.0000
  C   C38       1.0  0.42240  0.91680  0.09140  1.0000
  C   C39       1.0  0.08320  0.50560  0.09140  1.0000
  C   C40       1.0  0.57760  0.49440  0.90860  1.0000
  C   C41       1.0  0.50560  0.08320  0.90860  1.0000
  C   C42       1.0  0.91680  0.42240  0.90860  1.0000
  C   C43       1.0  0.16107  0.91093  0.42473  1.0000
  C   C44       1.0  0.08907  0.25013  0.42473  1.0000
  C   C45       1.0  0.74987  0.83893  0.42473  1.0000
  C   C46       1.0  0.24427  0.82773  0.24193  1.0000
  C   C47       1.0  0.17227  0.41653  0.24193  1.0000
  C   C48       1.0  0.58347  0.75573  0.24193  1.0000
  C   C49       1.0  0.82773  0.24427  0.75807  1.0000
  C   C50       1.0  0.75573  0.58347  0.75807  1.0000
  C   C51       1.0  0.41653  0.17227  0.75807  1.0000
  C   C52       1.0  0.91093  0.16107  0.57527  1.0000
  C   C53       1.0  0.83893  0.74987  0.57527  1.0000
  C   C54       1.0  0.25013  0.08907  0.57527  1.0000
  C   C55       1.0  0.48100  0.49450  0.11330  1.0000
  C   C56       1.0  0.50550  0.98650  0.11330  1.0000
  C   C57       1.0  0.01350  0.51900  0.11330  1.0000
  C   C58       1.0  0.49450  0.48100  0.88670  1.0000
  C   C59       1.0  0.51900  0.01350  0.88670  1.0000
  C   C60       1.0  0.98650  0.50550  0.88670  1.0000
  C   C61       1.0  0.14767  0.82783  0.44663  1.0000
  C   C62       1.0  0.17217  0.31983  0.44663  1.0000
  C   C63       1.0  0.68017  0.85233  0.44663  1.0000
  C   C64       1.0  0.16117  0.81433  0.22003  1.0000
  C   C65       1.0  0.18567  0.34683  0.22003  1.0000
  C   C66       1.0  0.65317  0.83883  0.22003  1.0000
  C   C67       1.0  0.81433  0.16117  0.77997  1.0000
  C   C68       1.0  0.83883  0.65317  0.77997  1.0000
  C   C69       1.0  0.34683  0.18567  0.77997  1.0000
  C   C70       1.0  0.82783  0.14767  0.55337  1.0000
  C   C71       1.0  0.85233  0.68017  0.55337  1.0000
  C   C72       1.0  0.31983  0.17217  0.55337  1.0000
  H   H37       1.0  0.45570  0.41410  0.10810  1.0000
  H   H38       1.0  0.58590  0.04160  0.10810  1.0000
  H   H39       1.0  0.95840  0.54430  0.10810  1.0000
  H   H40       1.0  0.41410  0.45570  0.89190  1.0000
  H   H41       1.0  0.54430  0.95840  0.89190  1.0000
  H   H42       1.0  0.04160  0.58590  0.89190  1.0000
  H   H43       1.0  0.12237  0.74743  0.44143  1.0000
  H   H44       1.0  0.25257  0.37493  0.44143  1.0000
  H   H45       1.0  0.62507  0.87763  0.44143  1.0000
  H   H46       1.0  0.08077  0.78903  0.22523  1.0000
  H   H47       1.0  0.21097  0.29173  0.22523  1.0000
  H   H48       1.0  0.70827  0.91923  0.22523  1.0000
  H   H49       1.0  0.78903  0.08077  0.77477  1.0000
  H   H50       1.0  0.91923  0.70827  0.77477  1.0000
  H   H51       1.0  0.29173  0.21097  0.77477  1.0000
  H   H52       1.0  0.74743  0.12237  0.55857  1.0000
  H   H53       1.0  0.87763  0.62507  0.55857  1.0000
  H   H54       1.0  0.37493  0.25257  0.55857  1.0000
  C   C73       1.0  0.50400  0.52940  0.14290  1.0000
  C   C74       1.0  0.47060  0.97460  0.14290  1.0000
  C   C75       1.0  0.02540  0.49600  0.14290  1.0000
  C   C76       1.0  0.52940  0.50400  0.85710  1.0000
  C   C77       1.0  0.49600  0.02540  0.85710  1.0000
  C   C78       1.0  0.97460  0.47060  0.85710  1.0000
  C   C79       1.0  0.17067  0.86273  0.47623  1.0000
  C   C80       1.0  0.13727  0.30793  0.47623  1.0000
  C   C81       1.0  0.69207  0.82933  0.47623  1.0000
  C   C82       1.0  0.19607  0.83733  0.19043  1.0000
  C   C83       1.0  0.16267  0.35873  0.19043  1.0000
  C   C84       1.0  0.64127  0.80393  0.19043  1.0000
  C   C85       1.0  0.83733  0.19607  0.80957  1.0000
  C   C86       1.0  0.80393  0.64127  0.80957  1.0000
  C   C87       1.0  0.35873  0.16267  0.80957  1.0000
  C   C88       1.0  0.86273  0.17067  0.52377  1.0000
  C   C89       1.0  0.82933  0.69207  0.52377  1.0000
  C   C90       1.0  0.30793  0.13727  0.52377  1.0000
  H   H55       1.0  0.50010  0.47410  0.15700  1.0000
  H   H56       1.0  0.52590  0.02600  0.15700  1.0000
  H   H57       1.0  0.97400  0.49990  0.15700  1.0000
  H   H58       1.0  0.47410  0.50010  0.84300  1.0000
  H   H59       1.0  0.49990  0.97400  0.84300  1.0000
  H   H60       1.0  0.02600  0.52590  0.84300  1.0000
  H   H61       1.0  0.16677  0.80743  0.49033  1.0000
  H   H62       1.0  0.19257  0.35933  0.49033  1.0000
  H   H63       1.0  0.64067  0.83323  0.49033  1.0000
  H   H64       1.0  0.14077  0.83343  0.17633  1.0000
  H   H65       1.0  0.16657  0.30733  0.17633  1.0000
  H   H66       1.0  0.69267  0.85923  0.17633  1.0000
  H   H67       1.0  0.83343  0.14077  0.82367  1.0000
  H   H68       1.0  0.85923  0.69267  0.82367  1.0000
  H   H69       1.0  0.30733  0.16657  0.82367  1.0000
  H   H70       1.0  0.80743  0.16677  0.50967  1.0000
  H   H71       1.0  0.83323  0.64067  0.50967  1.0000
  H   H72       1.0  0.35933  0.19257  0.50967  1.0000
  C   C91       1.0  0.53310  0.64790  0.15130  1.0000
  C   C92       1.0  0.35210  0.88520  0.15130  1.0000
  C   C93       1.0  0.11480  0.46690  0.15130  1.0000
  C   C94       1.0  0.64790  0.53310  0.84870  1.0000
  C   C95       1.0  0.46690  0.11480  0.84870  1.0000
  C   C96       1.0  0.88520  0.35210  0.84870  1.0000
  C   C97       1.0  0.19977  0.98123  0.48463  1.0000
  C   C98       1.0  0.01877  0.21853  0.48463  1.0000
  C   C99       1.0  0.78147  0.80023  0.48463  1.0000
  C   C100      1.0  0.31457  0.86643  0.18203  1.0000
  C   C101      1.0  0.13357  0.44813  0.18203  1.0000
  C   C102      1.0  0.55187  0.68543  0.18203  1.0000
  C   C103      1.0  0.86643  0.31457  0.81797  1.0000
  C   C104      1.0  0.68543  0.55187  0.81797  1.0000
  C   C105      1.0  0.44813  0.13357  0.81797  1.0000
  C   C106      1.0  0.98123  0.19977  0.51537  1.0000
  C   C107      1.0  0.80023  0.78147  0.51537  1.0000
  C   C108      1.0  0.21853  0.01877  0.51537  1.0000
  C   C109      1.0  0.54190  0.72640  0.12960  1.0000
  C   C110      1.0  0.27360  0.81550  0.12960  1.0000
  C   C111      1.0  0.18450  0.45810  0.12960  1.0000
  C   C112      1.0  0.72640  0.54190  0.87040  1.0000
  C   C113      1.0  0.45810  0.18450  0.87040  1.0000
  C   C114      1.0  0.81550  0.27360  0.87040  1.0000
  C   C115      1.0  0.20857  0.05973  0.46293  1.0000
  C   C116      1.0  0.94027  0.14883  0.46293  1.0000
  C   C117      1.0  0.85117  0.79143  0.46293  1.0000
  C   C118      1.0  0.39307  0.87523  0.20373  1.0000
  C   C119      1.0  0.12477  0.51783  0.20373  1.0000
  C   C120      1.0  0.48217  0.60693  0.20373  1.0000
  C   C121      1.0  0.87523  0.39307  0.79627  1.0000
  C   C122      1.0  0.60693  0.48217  0.79627  1.0000
  C   C123      1.0  0.51783  0.12477  0.79627  1.0000
  C   C124      1.0  0.05973  0.20857  0.53707  1.0000
  C   C125      1.0  0.79143  0.85117  0.53707  1.0000
  C   C126      1.0  0.14883  0.94027  0.53707  1.0000
  H   H73       1.0  0.55860  0.80430  0.13500  1.0000
  H   H74       1.0  0.19570  0.75430  0.13500  1.0000
  H   H75       1.0  0.24570  0.44140  0.13500  1.0000
  H   H76       1.0  0.80430  0.55860  0.86500  1.0000
  H   H77       1.0  0.44140  0.24570  0.86500  1.0000
  H   H78       1.0  0.75430  0.19570  0.86500  1.0000
  H   H79       1.0  0.22527  0.13763  0.46833  1.0000
  H   H80       1.0  0.86237  0.08763  0.46833  1.0000
  H   H81       1.0  0.91237  0.77473  0.46833  1.0000
  H   H82       1.0  0.47097  0.89193  0.19833  1.0000
  H   H83       1.0  0.10807  0.57903  0.19833  1.0000
  H   H84       1.0  0.42097  0.52903  0.19833  1.0000
  H   H85       1.0  0.89193  0.47097  0.80167  1.0000
  H   H86       1.0  0.52903  0.42097  0.80167  1.0000
  H   H87       1.0  0.57903  0.10807  0.80167  1.0000
  H   H88       1.0  0.13763  0.22527  0.53167  1.0000
  H   H89       1.0  0.77473  0.91237  0.53167  1.0000
  H   H90       1.0  0.08763  0.86237  0.53167  1.0000
  C   C127      1.0  0.52710  0.69650  0.09950  1.0000
  C   C128      1.0  0.30350  0.83060  0.09950  1.0000
  C   C129      1.0  0.16940  0.47290  0.09950  1.0000
  C   C130      1.0  0.69650  0.52710  0.90050  1.0000
  C   C131      1.0  0.47290  0.16940  0.90050  1.0000
  C   C132      1.0  0.83060  0.30350  0.90050  1.0000
  C   C133      1.0  0.19377  0.02983  0.43283  1.0000
  C   C134      1.0  0.97017  0.16393  0.43283  1.0000
  C   C135      1.0  0.83607  0.80623  0.43283  1.0000
  C   C136      1.0  0.36317  0.86043  0.23383  1.0000
  C   C137      1.0  0.13957  0.50273  0.23383  1.0000
  C   C138      1.0  0.49727  0.63683  0.23383  1.0000
  C   C139      1.0  0.86043  0.36317  0.76617  1.0000
  C   C140      1.0  0.63683  0.49727  0.76617  1.0000
  C   C141      1.0  0.50273  0.13957  0.76617  1.0000
  C   C142      1.0  0.02983  0.19377  0.56717  1.0000
  C   C143      1.0  0.80623  0.83607  0.56717  1.0000
  C   C144      1.0  0.16393  0.97017  0.56717  1.0000
  H   H91       1.0  0.53880  0.75470  0.08540  1.0000
  H   H92       1.0  0.24530  0.78410  0.08540  1.0000
  H   H93       1.0  0.21590  0.46120  0.08540  1.0000
  H   H94       1.0  0.75470  0.53880  0.91460  1.0000
  H   H95       1.0  0.46120  0.21590  0.91460  1.0000
  H   H96       1.0  0.78410  0.24530  0.91460  1.0000
  H   H97       1.0  0.20547  0.08803  0.41873  1.0000
  H   H98       1.0  0.91197  0.11743  0.41873  1.0000
  H   H99       1.0  0.88257  0.79453  0.41873  1.0000
  H   H100      1.0  0.42137  0.87213  0.24793  1.0000
  H   H101      1.0  0.12787  0.54923  0.24793  1.0000
  H   H102      1.0  0.45077  0.57863  0.24793  1.0000
  H   H103      1.0  0.87213  0.42137  0.75207  1.0000
  H   H104      1.0  0.57863  0.45077  0.75207  1.0000
  H   H105      1.0  0.54923  0.12787  0.75207  1.0000
  H   H106      1.0  0.08803  0.20547  0.58127  1.0000
  H   H107      1.0  0.79453  0.88257  0.58127  1.0000
  H   H108      1.0  0.11743  0.91197  0.58127  1.0000
  C   C145      1.0  0.47270  0.54060  0.06010  1.0000
  C   C146      1.0  0.45940  0.93210  0.06010  1.0000
  C   C147      1.0  0.06790  0.52730  0.06010  1.0000
  C   C148      1.0  0.54060  0.47270  0.93990  1.0000
  C   C149      1.0  0.52730  0.06790  0.93990  1.0000
  C   C150      1.0  0.93210  0.45940  0.93990  1.0000
  C   C151      1.0  0.13937  0.87393  0.39343  1.0000
  C   C152      1.0  0.12607  0.26543  0.39343  1.0000
  C   C153      1.0  0.73457  0.86063  0.39343  1.0000
  C   C154      1.0  0.20727  0.80603  0.27323  1.0000
  C   C155      1.0  0.19397  0.40123  0.27323  1.0000
  C   C156      1.0  0.59877  0.79273  0.27323  1.0000
  C   C157      1.0  0.80603  0.20727  0.72677  1.0000
  C   C158      1.0  0.79273  0.59877  0.72677  1.0000
  C   C159      1.0  0.40123  0.19397  0.72677  1.0000
  C   C160      1.0  0.87393  0.13937  0.60657  1.0000
  C   C161      1.0  0.86063  0.73457  0.60657  1.0000
  C   C162      1.0  0.26543  0.12607  0.60657  1.0000
