data_image0
_chemical_formula_structural       Zn8Cl4P16B8O68N8C24H60
_chemical_formula_sum              "Zn8 Cl4 P16 B8 O68 N8 C24 H60"
_cell_length_a       17.0426
_cell_length_b       9.3703
_cell_length_c       16.1975
_cell_angle_alpha    90
_cell_angle_beta     96.894
_cell_angle_gamma    90

_space_group_name_H-M_alt    "P 1"
_space_group_IT_number       1

loop_
  _space_group_symop_operation_xyz
  'x, y, z'

loop_
  _atom_site_type_symbol
  _atom_site_label
  _atom_site_symmetry_multiplicity
  _atom_site_fract_x
  _atom_site_fract_y
  _atom_site_fract_z
  _atom_site_occupancy
  Zn  Zn1       1.0  0.39151  0.92506  0.19288  1.0000
  Zn  Zn2       1.0  0.60849  0.42506  0.30712  1.0000
  Zn  Zn3       1.0  0.60849  0.07494  0.80712  1.0000
  Zn  Zn4       1.0  0.39151  0.57494  0.69288  1.0000
  Zn  Zn5       1.0  0.09638  0.24598  0.25098  1.0000
  Zn  Zn6       1.0  0.90362  0.74598  0.24902  1.0000
  Zn  Zn7       1.0  0.90362  0.75402  0.74902  1.0000
  Zn  Zn8       1.0  0.09638  0.25402  0.75098  1.0000
  Cl  Cl1       1.0  0.06668  0.25843  0.38120  1.0000
  Cl  Cl2       1.0  0.93332  0.75843  0.11880  1.0000
  Cl  Cl3       1.0  0.93332  0.74157  0.61880  1.0000
  Cl  Cl4       1.0  0.06668  0.24157  0.88120  1.0000
  P   P1        1.0  0.46163  0.65744  0.30157  1.0000
  P   P2        1.0  0.53837  0.15744  0.19843  1.0000
  P   P3        1.0  0.53837  0.34256  0.69843  1.0000
  P   P4        1.0  0.46163  0.84256  0.80157  1.0000
  P   P5        1.0  0.20015  0.45220  0.16002  1.0000
  P   P6        1.0  0.79985  0.95220  0.33998  1.0000
  P   P7        1.0  0.79985  0.54780  0.83998  1.0000
  P   P8        1.0  0.20015  0.04780  0.66002  1.0000
  P   P9        1.0  0.20960  0.01202  0.17821  1.0000
  P   P10       1.0  0.79040  0.51202  0.32179  1.0000
  P   P11       1.0  0.79040  0.98798  0.82179  1.0000
  P   P12       1.0  0.20960  0.48798  0.67821  1.0000
  P   P13       1.0  0.34474  0.72419  0.04696  1.0000
  P   P14       1.0  0.65526  0.22419  0.45304  1.0000
  P   P15       1.0  0.65526  0.27581  0.95304  1.0000
  P   P16       1.0  0.34474  0.77581  0.54696  1.0000
  B   B1        1.0  0.22990  0.73300  0.14290  1.0000
  B   B2        1.0  0.77010  0.23300  0.35710  1.0000
  B   B3        1.0  0.77010  0.26700  0.85710  1.0000
  B   B4        1.0  0.22990  0.76700  0.64290  1.0000
  B   B5        1.0  0.34030  0.57970  0.18560  1.0000
  B   B6        1.0  0.65970  0.07970  0.31440  1.0000
  B   B7        1.0  0.65970  0.42030  0.81440  1.0000
  B   B8        1.0  0.34030  0.92030  0.68560  1.0000
  O   O1        1.0  0.39630  0.84660  0.08010  1.0000
  O   O2        1.0  0.60370  0.34660  0.41990  1.0000
  O   O3        1.0  0.60370  0.15340  0.91990  1.0000
  O   O4        1.0  0.39630  0.65340  0.58010  1.0000
  O   O5        1.0  0.18300  0.85490  0.16170  1.0000
  O   O6        1.0  0.81700  0.35490  0.33830  1.0000
  O   O7        1.0  0.81700  0.14510  0.83830  1.0000
  O   O8        1.0  0.18300  0.64510  0.66170  1.0000
  O   O9        1.0  0.29060  0.45250  0.19010  1.0000
  O   O10       1.0  0.70940  0.95250  0.30990  1.0000
  O   O11       1.0  0.70940  0.54750  0.80990  1.0000
  O   O12       1.0  0.29060  0.04750  0.69010  1.0000
  O   O13       1.0  0.54420  0.60060  0.31100  1.0000
  O   O14       1.0  0.45580  0.10060  0.18900  1.0000
  O   O15       1.0  0.45580  0.39940  0.68900  1.0000
  O   O16       1.0  0.54420  0.89940  0.81100  1.0000
  O   O17       1.0  0.25610  0.75770  0.05620  1.0000
  O   O18       1.0  0.74390  0.25770  0.44380  1.0000
  O   O19       1.0  0.74390  0.24230  0.94380  1.0000
  O   O20       1.0  0.25610  0.74230  0.55620  1.0000
  O   O21       1.0  0.29830  0.70920  0.20000  1.0000
  O   O22       1.0  0.70170  0.20920  0.30000  1.0000
  O   O23       1.0  0.70170  0.29080  0.80000  1.0000
  O   O24       1.0  0.29830  0.79080  0.70000  1.0000
  O   O25       1.0  0.17680  0.60880  0.13380  1.0000
  O   O26       1.0  0.82320  0.10880  0.36620  1.0000
  O   O27       1.0  0.82320  0.39120  0.86620  1.0000
  O   O28       1.0  0.17680  0.89120  0.63380  1.0000
  O   O29       1.0  0.45450  0.81190  0.27720  1.0000
  O   O30       1.0  0.54550  0.31190  0.22280  1.0000
  O   O31       1.0  0.54550  0.18810  0.72280  1.0000
  O   O32       1.0  0.45450  0.68810  0.77720  1.0000
  O   O33       1.0  0.29470  0.01990  0.21470  1.0000
  O   O34       1.0  0.70530  0.51990  0.28530  1.0000
  O   O35       1.0  0.70530  0.98010  0.78530  1.0000
  O   O36       1.0  0.29470  0.48010  0.71470  1.0000
  O   O37       1.0  0.18160  0.35400  0.08750  1.0000
  O   O38       1.0  0.81840  0.85400  0.41250  1.0000
  O   O39       1.0  0.81840  0.64600  0.91250  1.0000
  O   O40       1.0  0.18160  0.14600  0.58750  1.0000
  O   O41       1.0  0.19660  0.08400  0.09160  1.0000
  O   O42       1.0  0.80340  0.58400  0.40840  1.0000
  O   O43       1.0  0.80340  0.91600  0.90840  1.0000
  O   O44       1.0  0.19660  0.41600  0.59160  1.0000
  O   O45       1.0  0.36470  0.58530  0.09840  1.0000
  O   O46       1.0  0.63530  0.08530  0.40160  1.0000
  O   O47       1.0  0.63530  0.41470  0.90160  1.0000
  O   O48       1.0  0.36470  0.91470  0.59840  1.0000
  O   O49       1.0  0.15520  0.07410  0.23540  1.0000
  O   O50       1.0  0.84480  0.57410  0.26460  1.0000
  O   O51       1.0  0.84480  0.92590  0.76460  1.0000
  O   O52       1.0  0.15520  0.42590  0.73540  1.0000
  O   O53       1.0  0.15750  0.41340  0.23390  1.0000
  O   O54       1.0  0.84250  0.91340  0.26610  1.0000
  O   O55       1.0  0.84250  0.58660  0.76610  1.0000
  O   O56       1.0  0.15750  0.08660  0.73390  1.0000
  O   O57       1.0  0.41040  0.55710  0.23960  1.0000
  O   O58       1.0  0.58960  0.05710  0.26040  1.0000
  O   O59       1.0  0.58960  0.44290  0.76040  1.0000
  O   O60       1.0  0.41040  0.94290  0.73960  1.0000
  O   O61       1.0  0.42910  0.63560  0.38630  1.0000
  O   O62       1.0  0.57090  0.13560  0.11370  1.0000
  O   O63       1.0  0.57090  0.36440  0.61370  1.0000
  O   O64       1.0  0.42910  0.86440  0.88630  1.0000
  O   O65       1.0  0.35160  0.68640  0.95760  1.0000
  O   O66       1.0  0.64840  0.18640  0.54240  1.0000
  O   O67       1.0  0.64840  0.31360  0.04240  1.0000
  O   O68       1.0  0.35160  0.81360  0.45760  1.0000
  N   N1        1.0  0.86780  0.24870  0.06590  1.0000
  N   N2        1.0  0.13220  0.74870  0.43410  1.0000
  N   N3        1.0  0.13220  0.75130  0.93410  1.0000
  N   N4        1.0  0.86780  0.25130  0.56590  1.0000
  N   N5        1.0  0.99390  0.24590  0.16560  1.0000
  N   N6        1.0  0.00610  0.74590  0.33440  1.0000
  N   N7        1.0  0.00610  0.75410  0.83440  1.0000
  N   N8        1.0  0.99390  0.25410  0.66560  1.0000
  C   C1        1.0  0.00070  0.15030  0.09510  1.0000
  C   C2        1.0  0.99930  0.65030  0.40490  1.0000
  C   C3        1.0  0.99930  0.84970  0.90490  1.0000
  C   C4        1.0  0.00070  0.34970  0.59510  1.0000
  C   C5        1.0  0.92580  0.15390  0.03220  1.0000
  C   C6        1.0  0.07420  0.65390  0.46780  1.0000
  C   C7        1.0  0.07420  0.84610  0.96780  1.0000
  C   C8        1.0  0.92580  0.34610  0.53220  1.0000
  C   C9        1.0  0.97630  0.38880  0.13270  1.0000
  C   C10       1.0  0.02370  0.88880  0.36730  1.0000
  C   C11       1.0  0.02370  0.61120  0.86730  1.0000
  C   C12       1.0  0.97630  0.11120  0.63270  1.0000
  C   C13       1.0  0.89850  0.39470  0.07670  1.0000
  C   C14       1.0  0.10150  0.89470  0.42330  1.0000
  C   C15       1.0  0.10150  0.60530  0.92330  1.0000
  C   C16       1.0  0.89850  0.10530  0.57670  1.0000
  C   C17       1.0  0.92690  0.19610  0.20560  1.0000
  C   C18       1.0  0.07310  0.69610  0.29440  1.0000
  C   C19       1.0  0.07310  0.80390  0.79440  1.0000
  C   C20       1.0  0.92690  0.30390  0.70560  1.0000
  C   C21       1.0  0.85080  0.19140  0.14600  1.0000
  C   C22       1.0  0.14920  0.69140  0.35400  1.0000
  C   C23       1.0  0.14920  0.80860  0.85400  1.0000
  C   C24       1.0  0.85080  0.30860  0.64600  1.0000
  H   H1        1.0  0.19600  0.15000  0.09400  1.0000
  H   H2        1.0  0.80400  0.65000  0.40600  1.0000
  H   H3        1.0  0.80400  0.85000  0.90600  1.0000
  H   H4        1.0  0.19600  0.35000  0.59400  1.0000
  H   H5        1.0  0.40700  0.71900  0.40800  1.0000
  H   H6        1.0  0.59300  0.21900  0.09200  1.0000
  H   H7        1.0  0.59300  0.28100  0.59200  1.0000
  H   H8        1.0  0.40700  0.78100  0.90800  1.0000
  H   H9        1.0  0.82300  0.25300  0.03100  1.0000
  H   H10       1.0  0.17700  0.75300  0.46900  1.0000
  H   H11       1.0  0.17700  0.74700  0.96900  1.0000
  H   H12       1.0  0.82300  0.24700  0.53100  1.0000
  H   H13       1.0  0.01700  0.05300  0.12100  1.0000
  H   H14       1.0  0.98300  0.55300  0.37900  1.0000
  H   H15       1.0  0.98300  0.94700  0.87900  1.0000
  H   H16       1.0  0.01700  0.44700  0.62100  1.0000
  H   H17       1.0  0.04900  0.19900  0.07200  1.0000
  H   H18       1.0  0.95100  0.69900  0.42800  1.0000
  H   H19       1.0  0.95100  0.80100  0.92800  1.0000
  H   H20       1.0  0.04900  0.30100  0.57200  1.0000
  H   H21       1.0  0.89600  0.07400  0.06500  1.0000
  H   H22       1.0  0.10400  0.57400  0.43500  1.0000
  H   H23       1.0  0.10400  0.92600  0.93500  1.0000
  H   H24       1.0  0.89600  0.42600  0.56500  1.0000
  H   H25       1.0  0.92700  0.18000  0.97200  1.0000
  H   H26       1.0  0.07300  0.68000  0.52800  1.0000
  H   H27       1.0  0.07300  0.82000  0.02800  1.0000
  H   H28       1.0  0.92700  0.32000  0.47200  1.0000
  H   H29       1.0  0.02300  0.40400  0.11400  1.0000
  H   H30       1.0  0.97700  0.90400  0.38600  1.0000
  H   H31       1.0  0.97700  0.59600  0.88600  1.0000
  H   H32       1.0  0.02300  0.09600  0.61400  1.0000
  H   H33       1.0  0.99000  0.45800  0.15100  1.0000
  H   H34       1.0  0.01000  0.95800  0.34900  1.0000
  H   H35       1.0  0.01000  0.54200  0.84900  1.0000
  H   H36       1.0  0.99000  0.04200  0.65100  1.0000
  H   H37       1.0  0.87500  0.45900  0.06100  1.0000
  H   H38       1.0  0.12500  0.95900  0.43900  1.0000
  H   H39       1.0  0.12500  0.54100  0.93900  1.0000
  H   H40       1.0  0.87500  0.04100  0.56100  1.0000
  H   H41       1.0  0.92400  0.35600  0.02500  1.0000
  H   H42       1.0  0.07600  0.85600  0.47500  1.0000
  H   H43       1.0  0.07600  0.64400  0.97500  1.0000
  H   H44       1.0  0.92400  0.14400  0.52500  1.0000
  H   H45       1.0  0.93000  0.29800  0.22700  1.0000
  H   H46       1.0  0.07000  0.79800  0.27300  1.0000
  H   H47       1.0  0.07000  0.70200  0.77300  1.0000
  H   H48       1.0  0.93000  0.20200  0.72700  1.0000
  H   H49       1.0  0.92500  0.17300  0.24600  1.0000
  H   H50       1.0  0.07500  0.67300  0.25400  1.0000
  H   H51       1.0  0.07500  0.82700  0.75400  1.0000
  H   H52       1.0  0.92500  0.32700  0.74600  1.0000
  H   H53       1.0  0.81300  0.17400  0.15600  1.0000
  H   H54       1.0  0.18700  0.67400  0.34400  1.0000
  H   H55       1.0  0.18700  0.82600  0.84400  1.0000
  H   H56       1.0  0.81300  0.32600  0.65600  1.0000
  H   H57       1.0  0.83600  0.30600  0.15000  1.0000
  H   H58       1.0  0.16400  0.80600  0.35000  1.0000
  H   H59       1.0  0.16400  0.69400  0.85000  1.0000
  H   H60       1.0  0.83600  0.19400  0.65000  1.0000
