data_image0
_chemical_formula_structural       U24O192C18H18C18H36C18H36C18H18C18H36C18H36C54H18C18H36C18H36C18H18C18H36C18H36C36
_chemical_formula_sum              "U24 O192 C288 H360"
_cell_length_a       25.5726
_cell_length_b       25.5726
_cell_length_c       19.0833
_cell_angle_alpha    90
_cell_angle_beta     90
_cell_angle_gamma    120

_space_group_name_H-M_alt    "P 1"
_space_group_IT_number       1

loop_
  _space_group_symop_operation_xyz
  'x, y, z'

loop_
  _atom_site_type_symbol
  _atom_site_label
  _atom_site_symmetry_multiplicity
  _atom_site_fract_x
  _atom_site_fract_y
  _atom_site_fract_z
  _atom_site_occupancy
  U   U1        1.0  0.57827  0.69625  0.65651  1.0000
  U   U2        1.0  0.30375  0.88202  0.65651  1.0000
  U   U3        1.0  0.11798  0.42173  0.65651  1.0000
  U   U4        1.0  0.30375  0.42173  0.15651  1.0000
  U   U5        1.0  0.11798  0.69625  0.15651  1.0000
  U   U6        1.0  0.57827  0.88202  0.15651  1.0000
  U   U7        1.0  0.24494  0.02958  0.98984  1.0000
  U   U8        1.0  0.97042  0.21535  0.98984  1.0000
  U   U9        1.0  0.78465  0.75506  0.98984  1.0000
  U   U10       1.0  0.97042  0.75506  0.48984  1.0000
  U   U11       1.0  0.78465  0.02958  0.48984  1.0000
  U   U12       1.0  0.24494  0.21535  0.48984  1.0000
  U   U13       1.0  0.91160  0.36292  0.32318  1.0000
  U   U14       1.0  0.63708  0.54869  0.32318  1.0000
  U   U15       1.0  0.45131  0.08840  0.32318  1.0000
  U   U16       1.0  0.63708  0.08840  0.82318  1.0000
  U   U17       1.0  0.45131  0.36292  0.82318  1.0000
  U   U18       1.0  0.91160  0.54869  0.82318  1.0000
  U   U19       1.0  0.33330  0.66670  0.34337  1.0000
  U   U20       1.0  0.33330  0.66670  0.84337  1.0000
  U   U21       1.0  0.99997  0.00003  0.67670  1.0000
  U   U22       1.0  0.99997  0.00003  0.17670  1.0000
  U   U23       1.0  0.66663  0.33337  0.01004  1.0000
  U   U24       1.0  0.66663  0.33337  0.51004  1.0000
  O   O1        1.0  0.64749  0.74793  0.61530  1.0000
  O   O2        1.0  0.25207  0.89956  0.61530  1.0000
  O   O3        1.0  0.10044  0.35251  0.61530  1.0000
  O   O4        1.0  0.25207  0.35251  0.11530  1.0000
  O   O5        1.0  0.10044  0.74793  0.11530  1.0000
  O   O6        1.0  0.64749  0.89956  0.11530  1.0000
  O   O7        1.0  0.31416  0.08126  0.94863  1.0000
  O   O8        1.0  0.91874  0.23289  0.94863  1.0000
  O   O9        1.0  0.76711  0.68584  0.94863  1.0000
  O   O10       1.0  0.91874  0.68584  0.44863  1.0000
  O   O11       1.0  0.76711  0.08126  0.44863  1.0000
  O   O12       1.0  0.31416  0.23289  0.44863  1.0000
  O   O13       1.0  0.98082  0.41460  0.28197  1.0000
  O   O14       1.0  0.58540  0.56623  0.28197  1.0000
  O   O15       1.0  0.43377  0.01918  0.28197  1.0000
  O   O16       1.0  0.58540  0.01918  0.78197  1.0000
  O   O17       1.0  0.43377  0.41460  0.78197  1.0000
  O   O18       1.0  0.98082  0.56623  0.78197  1.0000
  O   O19       1.0  0.50810  0.64544  0.69490  1.0000
  O   O20       1.0  0.35456  0.86266  0.69490  1.0000
  O   O21       1.0  0.13734  0.49190  0.69490  1.0000
  O   O22       1.0  0.35456  0.49190  0.19490  1.0000
  O   O23       1.0  0.13734  0.64544  0.19490  1.0000
  O   O24       1.0  0.50810  0.86266  0.19490  1.0000
  O   O25       1.0  0.17477  0.97877  0.02823  1.0000
  O   O26       1.0  0.02123  0.19599  0.02823  1.0000
  O   O27       1.0  0.80401  0.82523  0.02823  1.0000
  O   O28       1.0  0.02123  0.82523  0.52823  1.0000
  O   O29       1.0  0.80401  0.97877  0.52823  1.0000
  O   O30       1.0  0.17477  0.19599  0.52823  1.0000
  O   O31       1.0  0.84143  0.31211  0.36157  1.0000
  O   O32       1.0  0.68789  0.52933  0.36157  1.0000
  O   O33       1.0  0.47067  0.15857  0.36157  1.0000
  O   O34       1.0  0.68789  0.15857  0.86157  1.0000
  O   O35       1.0  0.47067  0.31211  0.86157  1.0000
  O   O36       1.0  0.84143  0.52933  0.86157  1.0000
  O   O37       1.0  0.33330  0.66670  0.25000  1.0000
  O   O38       1.0  0.33330  0.66670  0.75000  1.0000
  O   O39       1.0  0.99997  0.00003  0.58333  1.0000
  O   O40       1.0  0.99997  0.00003  0.08333  1.0000
  O   O41       1.0  0.66663  0.33337  0.91667  1.0000
  O   O42       1.0  0.66663  0.33337  0.41667  1.0000
  O   O43       1.0  0.33330  0.66670  0.43630  1.0000
  O   O44       1.0  0.33330  0.66670  0.93630  1.0000
  O   O45       1.0  0.99997  0.00003  0.76963  1.0000
  O   O46       1.0  0.99997  0.00003  0.26963  1.0000
  O   O47       1.0  0.66663  0.33337  0.10297  1.0000
  O   O48       1.0  0.66663  0.33337  0.60297  1.0000
  O   O49       1.0  0.55950  0.61720  0.57050  1.0000
  O   O50       1.0  0.38280  0.94230  0.57050  1.0000
  O   O51       1.0  0.05770  0.44050  0.57050  1.0000
  O   O52       1.0  0.38280  0.44050  0.07050  1.0000
  O   O53       1.0  0.05770  0.61720  0.07050  1.0000
  O   O54       1.0  0.55950  0.94230  0.07050  1.0000
  O   O55       1.0  0.22617  0.95053  0.90383  1.0000
  O   O56       1.0  0.04947  0.27563  0.90383  1.0000
  O   O57       1.0  0.72437  0.77383  0.90383  1.0000
  O   O58       1.0  0.04947  0.77383  0.40383  1.0000
  O   O59       1.0  0.72437  0.95053  0.40383  1.0000
  O   O60       1.0  0.22617  0.27563  0.40383  1.0000
  O   O61       1.0  0.89283  0.28387  0.23717  1.0000
  O   O62       1.0  0.71613  0.60897  0.23717  1.0000
  O   O63       1.0  0.39103  0.10717  0.23717  1.0000
  O   O64       1.0  0.71613  0.10717  0.73717  1.0000
  O   O65       1.0  0.39103  0.28387  0.73717  1.0000
  O   O66       1.0  0.89283  0.60897  0.73717  1.0000
  O   O67       1.0  0.52851  0.67925  0.53880  1.0000
  O   O68       1.0  0.32075  0.84926  0.53880  1.0000
  O   O69       1.0  0.15074  0.47149  0.53880  1.0000
  O   O70       1.0  0.32075  0.47149  0.03880  1.0000
  O   O71       1.0  0.15074  0.67925  0.03880  1.0000
  O   O72       1.0  0.52851  0.84926  0.03880  1.0000
  O   O73       1.0  0.19518  0.01258  0.87213  1.0000
  O   O74       1.0  0.98742  0.18259  0.87213  1.0000
  O   O75       1.0  0.81741  0.80482  0.87213  1.0000
  O   O76       1.0  0.98742  0.80482  0.37213  1.0000
  O   O77       1.0  0.81741  0.01258  0.37213  1.0000
  O   O78       1.0  0.19518  0.18259  0.37213  1.0000
  O   O79       1.0  0.86184  0.34592  0.20547  1.0000
  O   O80       1.0  0.65408  0.51593  0.20547  1.0000
  O   O81       1.0  0.48407  0.13816  0.20547  1.0000
  O   O82       1.0  0.65408  0.13816  0.70547  1.0000
  O   O83       1.0  0.48407  0.34592  0.70547  1.0000
  O   O84       1.0  0.86184  0.51593  0.70547  1.0000
  O   O85       1.0  0.31806  0.56359  0.35090  1.0000
  O   O86       1.0  0.43641  0.75447  0.35090  1.0000
  O   O87       1.0  0.24553  0.68194  0.35090  1.0000
  O   O88       1.0  0.43641  0.68194  0.85090  1.0000
  O   O89       1.0  0.24553  0.56359  0.85090  1.0000
  O   O90       1.0  0.31806  0.75447  0.85090  1.0000
  O   O91       1.0  0.98473  0.89692  0.68423  1.0000
  O   O92       1.0  0.10308  0.08780  0.68423  1.0000
  O   O93       1.0  0.91220  0.01527  0.68423  1.0000
  O   O94       1.0  0.10308  0.01527  0.18423  1.0000
  O   O95       1.0  0.91220  0.89692  0.18423  1.0000
  O   O96       1.0  0.98473  0.08780  0.18423  1.0000
  O   O97       1.0  0.65139  0.23026  0.01757  1.0000
  O   O98       1.0  0.76974  0.42114  0.01757  1.0000
  O   O99       1.0  0.57886  0.34861  0.01757  1.0000
  O   O100      1.0  0.76974  0.34861  0.51757  1.0000
  O   O101      1.0  0.57886  0.23026  0.51757  1.0000
  O   O102      1.0  0.65139  0.42114  0.51757  1.0000
  O   O103      1.0  0.41044  0.63770  0.33920  1.0000
  O   O104      1.0  0.36230  0.77274  0.33920  1.0000
  O   O105      1.0  0.22726  0.58956  0.33920  1.0000
  O   O106      1.0  0.36230  0.58956  0.83920  1.0000
  O   O107      1.0  0.22726  0.63770  0.83920  1.0000
  O   O108      1.0  0.41044  0.77274  0.83920  1.0000
  O   O109      1.0  0.07711  0.97103  0.67253  1.0000
  O   O110      1.0  0.02897  0.10607  0.67253  1.0000
  O   O111      1.0  0.89393  0.92289  0.67253  1.0000
  O   O112      1.0  0.02897  0.92289  0.17253  1.0000
  O   O113      1.0  0.89393  0.97103  0.17253  1.0000
  O   O114      1.0  0.07711  0.10607  0.17253  1.0000
  O   O115      1.0  0.74377  0.30437  0.00587  1.0000
  O   O116      1.0  0.69563  0.43941  0.00587  1.0000
  O   O117      1.0  0.56059  0.25623  0.00587  1.0000
  O   O118      1.0  0.69563  0.25623  0.50587  1.0000
  O   O119      1.0  0.56059  0.30437  0.50587  1.0000
  O   O120      1.0  0.74377  0.43941  0.50587  1.0000
  O   O121      1.0  0.54390  0.77021  0.63420  1.0000
  O   O122      1.0  0.22979  0.77369  0.63420  1.0000
  O   O123      1.0  0.22631  0.45610  0.63420  1.0000
  O   O124      1.0  0.22979  0.45610  0.13420  1.0000
  O   O125      1.0  0.22631  0.77021  0.13420  1.0000
  O   O126      1.0  0.54390  0.77369  0.13420  1.0000
  O   O127      1.0  0.21057  0.10354  0.96753  1.0000
  O   O128      1.0  0.89646  0.10702  0.96753  1.0000
  O   O129      1.0  0.89298  0.78943  0.96753  1.0000
  O   O130      1.0  0.89646  0.78943  0.46753  1.0000
  O   O131      1.0  0.89298  0.10354  0.46753  1.0000
  O   O132      1.0  0.21057  0.10702  0.46753  1.0000
  O   O133      1.0  0.87723  0.43688  0.30087  1.0000
  O   O134      1.0  0.56312  0.44036  0.30087  1.0000
  O   O135      1.0  0.55964  0.12277  0.30087  1.0000
  O   O136      1.0  0.56312  0.12277  0.80087  1.0000
  O   O137      1.0  0.55964  0.43688  0.80087  1.0000
  O   O138      1.0  0.87723  0.44036  0.80087  1.0000
  O   O139      1.0  0.58570  0.77520  0.73560  1.0000
  O   O140      1.0  0.22480  0.81050  0.73560  1.0000
  O   O141      1.0  0.18950  0.41430  0.73560  1.0000
  O   O142      1.0  0.22480  0.41430  0.23560  1.0000
  O   O143      1.0  0.18950  0.77520  0.23560  1.0000
  O   O144      1.0  0.58570  0.81050  0.23560  1.0000
  O   O145      1.0  0.25237  0.10853  0.06893  1.0000
  O   O146      1.0  0.89147  0.14383  0.06893  1.0000
  O   O147      1.0  0.85617  0.74763  0.06893  1.0000
  O   O148      1.0  0.89147  0.74763  0.56893  1.0000
  O   O149      1.0  0.85617  0.10853  0.56893  1.0000
  O   O150      1.0  0.25237  0.14383  0.56893  1.0000
  O   O151      1.0  0.91903  0.44187  0.40227  1.0000
  O   O152      1.0  0.55813  0.47717  0.40227  1.0000
  O   O153      1.0  0.52283  0.08097  0.40227  1.0000
  O   O154      1.0  0.55813  0.08097  0.90227  1.0000
  O   O155      1.0  0.52283  0.44187  0.90227  1.0000
  O   O156      1.0  0.91903  0.47717  0.90227  1.0000
  O   O157      1.0  0.73384  0.03206  0.59850  1.0000
  O   O158      1.0  0.96794  0.70178  0.59850  1.0000
  O   O159      1.0  0.29822  0.26616  0.59850  1.0000
  O   O160      1.0  0.96794  0.26616  0.09850  1.0000
  O   O161      1.0  0.29822  0.03206  0.09850  1.0000
  O   O162      1.0  0.73384  0.70178  0.09850  1.0000
  O   O163      1.0  0.40051  0.36539  0.93183  1.0000
  O   O164      1.0  0.63461  0.03511  0.93183  1.0000
  O   O165      1.0  0.96489  0.59949  0.93183  1.0000
  O   O166      1.0  0.63461  0.59949  0.43183  1.0000
  O   O167      1.0  0.96489  0.36539  0.43183  1.0000
  O   O168      1.0  0.40051  0.03511  0.43183  1.0000
  O   O169      1.0  0.06717  0.69873  0.26517  1.0000
  O   O170      1.0  0.30127  0.36845  0.26517  1.0000
  O   O171      1.0  0.63155  0.93283  0.26517  1.0000
  O   O172      1.0  0.30127  0.93283  0.76517  1.0000
  O   O173      1.0  0.63155  0.69873  0.76517  1.0000
  O   O174      1.0  0.06717  0.36845  0.76517  1.0000
  O   O175      1.0  0.67938  0.96130  0.52360  1.0000
  O   O176      1.0  0.03870  0.71808  0.52360  1.0000
  O   O177      1.0  0.28192  0.32062  0.52360  1.0000
  O   O178      1.0  0.03870  0.32062  0.02360  1.0000
  O   O179      1.0  0.28192  0.96130  0.02360  1.0000
  O   O180      1.0  0.67938  0.71808  0.02360  1.0000
  O   O181      1.0  0.34605  0.29463  0.85693  1.0000
  O   O182      1.0  0.70537  0.05141  0.85693  1.0000
  O   O183      1.0  0.94859  0.65395  0.85693  1.0000
  O   O184      1.0  0.70537  0.65395  0.35693  1.0000
  O   O185      1.0  0.94859  0.29463  0.35693  1.0000
  O   O186      1.0  0.34605  0.05141  0.35693  1.0000
  O   O187      1.0  0.01271  0.62797  0.19027  1.0000
  O   O188      1.0  0.37203  0.38475  0.19027  1.0000
  O   O189      1.0  0.61525  0.98729  0.19027  1.0000
  O   O190      1.0  0.37203  0.98729  0.69027  1.0000
  O   O191      1.0  0.61525  0.62797  0.69027  1.0000
  O   O192      1.0  0.01271  0.38475  0.69027  1.0000
  C   C1        1.0  0.49030  0.58590  0.47370  1.0000
  C   C2        1.0  0.41410  0.90440  0.47370  1.0000
  C   C3        1.0  0.09560  0.50970  0.47370  1.0000
  C   C4        1.0  0.41410  0.50970  0.97370  1.0000
  C   C5        1.0  0.09560  0.58590  0.97370  1.0000
  C   C6        1.0  0.49030  0.90440  0.97370  1.0000
  C   C7        1.0  0.15697  0.91923  0.80703  1.0000
  C   C8        1.0  0.08077  0.23773  0.80703  1.0000
  C   C9        1.0  0.76227  0.84303  0.80703  1.0000
  C   C10       1.0  0.08077  0.84303  0.30703  1.0000
  C   C11       1.0  0.76227  0.91923  0.30703  1.0000
  C   C12       1.0  0.15697  0.23773  0.30703  1.0000
  C   C13       1.0  0.82363  0.25257  0.14037  1.0000
  C   C14       1.0  0.74743  0.57107  0.14037  1.0000
  C   C15       1.0  0.42893  0.17637  0.14037  1.0000
  C   C16       1.0  0.74743  0.17637  0.64037  1.0000
  C   C17       1.0  0.42893  0.25257  0.64037  1.0000
  C   C18       1.0  0.82363  0.57107  0.64037  1.0000
  H   H1        1.0  0.49610  0.55000  0.47650  1.0000
  H   H2        1.0  0.45000  0.94610  0.47650  1.0000
  H   H3        1.0  0.05390  0.50390  0.47650  1.0000
  H   H4        1.0  0.45000  0.50390  0.97650  1.0000
  H   H5        1.0  0.05390  0.55000  0.97650  1.0000
  H   H6        1.0  0.49610  0.94610  0.97650  1.0000
  H   H7        1.0  0.16277  0.88333  0.80983  1.0000
  H   H8        1.0  0.11667  0.27943  0.80983  1.0000
  H   H9        1.0  0.72057  0.83723  0.80983  1.0000
  H   H10       1.0  0.11667  0.83723  0.30983  1.0000
  H   H11       1.0  0.72057  0.88333  0.30983  1.0000
  H   H12       1.0  0.16277  0.27943  0.30983  1.0000
  H   H13       1.0  0.82943  0.21667  0.14317  1.0000
  H   H14       1.0  0.78333  0.61277  0.14317  1.0000
  H   H15       1.0  0.38723  0.17057  0.14317  1.0000
  H   H16       1.0  0.78333  0.17057  0.64317  1.0000
  H   H17       1.0  0.38723  0.21667  0.64317  1.0000
  H   H18       1.0  0.82943  0.61277  0.64317  1.0000
  C   C19       1.0  0.42430  0.56470  0.49030  1.0000
  C   C20       1.0  0.43530  0.85960  0.49030  1.0000
  C   C21       1.0  0.14040  0.57570  0.49030  1.0000
  C   C22       1.0  0.43530  0.57570  0.99030  1.0000
  C   C23       1.0  0.14040  0.56470  0.99030  1.0000
  C   C24       1.0  0.42430  0.85960  0.99030  1.0000
  C   C25       1.0  0.09097  0.89803  0.82363  1.0000
  C   C26       1.0  0.10197  0.19293  0.82363  1.0000
  C   C27       1.0  0.80707  0.90903  0.82363  1.0000
  C   C28       1.0  0.10197  0.90903  0.32363  1.0000
  C   C29       1.0  0.80707  0.89803  0.32363  1.0000
  C   C30       1.0  0.09097  0.19293  0.32363  1.0000
  C   C31       1.0  0.75763  0.23137  0.15697  1.0000
  C   C32       1.0  0.76863  0.52627  0.15697  1.0000
  C   C33       1.0  0.47373  0.24237  0.15697  1.0000
  C   C34       1.0  0.76863  0.24237  0.65697  1.0000
  C   C35       1.0  0.47373  0.23137  0.65697  1.0000
  C   C36       1.0  0.75763  0.52627  0.65697  1.0000
  H   H19       1.0  0.41500  0.54870  0.53870  1.0000
  H   H20       1.0  0.45130  0.86630  0.53870  1.0000
  H   H21       1.0  0.13370  0.58500  0.53870  1.0000
  H   H22       1.0  0.45130  0.58500  0.03870  1.0000
  H   H23       1.0  0.13370  0.54870  0.03870  1.0000
  H   H24       1.0  0.41500  0.86630  0.03870  1.0000
  H   H25       1.0  0.08167  0.88203  0.87203  1.0000
  H   H26       1.0  0.11797  0.19963  0.87203  1.0000
  H   H27       1.0  0.80037  0.91833  0.87203  1.0000
  H   H28       1.0  0.11797  0.91833  0.37203  1.0000
  H   H29       1.0  0.80037  0.88203  0.37203  1.0000
  H   H30       1.0  0.08167  0.19963  0.37203  1.0000
  H   H31       1.0  0.74833  0.21537  0.20537  1.0000
  H   H32       1.0  0.78463  0.53297  0.20537  1.0000
  H   H33       1.0  0.46703  0.25167  0.20537  1.0000
  H   H34       1.0  0.78463  0.25167  0.70537  1.0000
  H   H35       1.0  0.46703  0.21537  0.70537  1.0000
  H   H36       1.0  0.74833  0.53297  0.70537  1.0000
  H   H37       1.0  0.41730  0.59940  0.48740  1.0000
  H   H38       1.0  0.40060  0.81790  0.48740  1.0000
  H   H39       1.0  0.18210  0.58270  0.48740  1.0000
  H   H40       1.0  0.40060  0.58270  0.98740  1.0000
  H   H41       1.0  0.18210  0.59940  0.98740  1.0000
  H   H42       1.0  0.41730  0.81790  0.98740  1.0000
  H   H43       1.0  0.08397  0.93273  0.82073  1.0000
  H   H44       1.0  0.06727  0.15123  0.82073  1.0000
  H   H45       1.0  0.84877  0.91603  0.82073  1.0000
  H   H46       1.0  0.06727  0.91603  0.32073  1.0000
  H   H47       1.0  0.84877  0.93273  0.32073  1.0000
  H   H48       1.0  0.08397  0.15123  0.32073  1.0000
  H   H49       1.0  0.75063  0.26607  0.15407  1.0000
  H   H50       1.0  0.73393  0.48457  0.15407  1.0000
  H   H51       1.0  0.51543  0.24937  0.15407  1.0000
  H   H52       1.0  0.73393  0.24937  0.65407  1.0000
  H   H53       1.0  0.51543  0.26607  0.65407  1.0000
  H   H54       1.0  0.75063  0.48457  0.65407  1.0000
  C   C37       1.0  0.38280  0.51610  0.43950  1.0000
  C   C38       1.0  0.48390  0.86670  0.43950  1.0000
  C   C39       1.0  0.13330  0.61720  0.43950  1.0000
  C   C40       1.0  0.48390  0.61720  0.93950  1.0000
  C   C41       1.0  0.13330  0.51610  0.93950  1.0000
  C   C42       1.0  0.38280  0.86670  0.93950  1.0000
  C   C43       1.0  0.04947  0.84943  0.77283  1.0000
  C   C44       1.0  0.15057  0.20003  0.77283  1.0000
  C   C45       1.0  0.79997  0.95053  0.77283  1.0000
  C   C46       1.0  0.15057  0.95053  0.27283  1.0000
  C   C47       1.0  0.79997  0.84943  0.27283  1.0000
  C   C48       1.0  0.04947  0.20003  0.27283  1.0000
  C   C49       1.0  0.71613  0.18277  0.10617  1.0000
  C   C50       1.0  0.81723  0.53337  0.10617  1.0000
  C   C51       1.0  0.46663  0.28387  0.10617  1.0000
  C   C52       1.0  0.81723  0.28387  0.60617  1.0000
  C   C53       1.0  0.46663  0.18277  0.60617  1.0000
  C   C54       1.0  0.71613  0.53337  0.60617  1.0000
  H   H55       1.0  0.34040  0.50380  0.45050  1.0000
  H   H56       1.0  0.49620  0.83660  0.45050  1.0000
  H   H57       1.0  0.16340  0.65960  0.45050  1.0000
  H   H58       1.0  0.49620  0.65960  0.95050  1.0000
  H   H59       1.0  0.16340  0.50380  0.95050  1.0000
  H   H60       1.0  0.34040  0.83660  0.95050  1.0000
  H   H61       1.0  0.00707  0.83713  0.78383  1.0000
  H   H62       1.0  0.16287  0.16993  0.78383  1.0000
  H   H63       1.0  0.83007  0.99293  0.78383  1.0000
  H   H64       1.0  0.16287  0.99293  0.28383  1.0000
  H   H65       1.0  0.83007  0.83713  0.28383  1.0000
  H   H66       1.0  0.00707  0.16993  0.28383  1.0000
  H   H67       1.0  0.67373  0.17047  0.11717  1.0000
  H   H68       1.0  0.82953  0.50327  0.11717  1.0000
  H   H69       1.0  0.49673  0.32627  0.11717  1.0000
  H   H70       1.0  0.82953  0.32627  0.61717  1.0000
  H   H71       1.0  0.49673  0.17047  0.61717  1.0000
  H   H72       1.0  0.67373  0.50327  0.61717  1.0000
  H   H73       1.0  0.38760  0.48030  0.44510  1.0000
  H   H74       1.0  0.51970  0.90730  0.44510  1.0000
  H   H75       1.0  0.09270  0.61240  0.44510  1.0000
  H   H76       1.0  0.51970  0.61240  0.94510  1.0000
  H   H77       1.0  0.09270  0.48030  0.94510  1.0000
  H   H78       1.0  0.38760  0.90730  0.94510  1.0000
  H   H79       1.0  0.05427  0.81363  0.77843  1.0000
  H   H80       1.0  0.18637  0.24063  0.77843  1.0000
  H   H81       1.0  0.75937  0.94573  0.77843  1.0000
  H   H82       1.0  0.18637  0.94573  0.27843  1.0000
  H   H83       1.0  0.75937  0.81363  0.27843  1.0000
  H   H84       1.0  0.05427  0.24063  0.27843  1.0000
  H   H85       1.0  0.72093  0.14697  0.11177  1.0000
  H   H86       1.0  0.85303  0.57397  0.11177  1.0000
  H   H87       1.0  0.42603  0.27907  0.11177  1.0000
  H   H88       1.0  0.85303  0.27907  0.61177  1.0000
  H   H89       1.0  0.42603  0.14697  0.61177  1.0000
  H   H90       1.0  0.72093  0.57397  0.61177  1.0000
  C   C55       1.0  0.39670  0.53830  0.36260  1.0000
  C   C56       1.0  0.46170  0.85840  0.36260  1.0000
  C   C57       1.0  0.14160  0.60330  0.36260  1.0000
  C   C58       1.0  0.46170  0.60330  0.86260  1.0000
  C   C59       1.0  0.14160  0.53830  0.86260  1.0000
  C   C60       1.0  0.39670  0.85840  0.86260  1.0000
  C   C61       1.0  0.06337  0.87163  0.69593  1.0000
  C   C62       1.0  0.12837  0.19173  0.69593  1.0000
  C   C63       1.0  0.80827  0.93663  0.69593  1.0000
  C   C64       1.0  0.12837  0.93663  0.19593  1.0000
  C   C65       1.0  0.80827  0.87163  0.19593  1.0000
  C   C66       1.0  0.06337  0.19173  0.19593  1.0000
  C   C67       1.0  0.73003  0.20497  0.02927  1.0000
  C   C68       1.0  0.79503  0.52507  0.02927  1.0000
  C   C69       1.0  0.47493  0.26997  0.02927  1.0000
  C   C70       1.0  0.79503  0.26997  0.52927  1.0000
  C   C71       1.0  0.47493  0.20497  0.52927  1.0000
  C   C72       1.0  0.73003  0.52507  0.52927  1.0000
  H   H91       1.0  0.37320  0.50260  0.33140  1.0000
  H   H92       1.0  0.49740  0.87060  0.33140  1.0000
  H   H93       1.0  0.12940  0.62680  0.33140  1.0000
  H   H94       1.0  0.49740  0.62680  0.83140  1.0000
  H   H95       1.0  0.12940  0.50260  0.83140  1.0000
  H   H96       1.0  0.37320  0.87060  0.83140  1.0000
  H   H97       1.0  0.03987  0.83593  0.66473  1.0000
  H   H98       1.0  0.16407  0.20393  0.66473  1.0000
  H   H99       1.0  0.79607  0.96013  0.66473  1.0000
  H   H100      1.0  0.16407  0.96013  0.16473  1.0000
  H   H101      1.0  0.79607  0.83593  0.16473  1.0000
  H   H102      1.0  0.03987  0.20393  0.16473  1.0000
  H   H103      1.0  0.70653  0.16927  0.99807  1.0000
  H   H104      1.0  0.83073  0.53727  0.99807  1.0000
  H   H105      1.0  0.46273  0.29347  0.99807  1.0000
  H   H106      1.0  0.83073  0.29347  0.49807  1.0000
  H   H107      1.0  0.46273  0.16927  0.49807  1.0000
  H   H108      1.0  0.70653  0.53727  0.49807  1.0000
  C   C73       1.0  0.46420  0.56480  0.34580  1.0000
  C   C74       1.0  0.43520  0.89940  0.34580  1.0000
  C   C75       1.0  0.10060  0.53580  0.34580  1.0000
  C   C76       1.0  0.43520  0.53580  0.84580  1.0000
  C   C77       1.0  0.10060  0.56480  0.84580  1.0000
  C   C78       1.0  0.46420  0.89940  0.84580  1.0000
  C   C79       1.0  0.13087  0.89813  0.67913  1.0000
  C   C80       1.0  0.10187  0.23273  0.67913  1.0000
  C   C81       1.0  0.76727  0.86913  0.67913  1.0000
  C   C82       1.0  0.10187  0.86913  0.17913  1.0000
  C   C83       1.0  0.76727  0.89813  0.17913  1.0000
  C   C84       1.0  0.13087  0.23273  0.17913  1.0000
  C   C85       1.0  0.79753  0.23147  0.01247  1.0000
  C   C86       1.0  0.76853  0.56607  0.01247  1.0000
  C   C87       1.0  0.43393  0.20247  0.01247  1.0000
  C   C88       1.0  0.76853  0.20247  0.51247  1.0000
  C   C89       1.0  0.43393  0.23147  0.51247  1.0000
  C   C90       1.0  0.79753  0.56607  0.51247  1.0000
  H   H109      1.0  0.47320  0.53150  0.34350  1.0000
  H   H110      1.0  0.46850  0.94170  0.34350  1.0000
  H   H111      1.0  0.05830  0.52680  0.34350  1.0000
  H   H112      1.0  0.46850  0.52680  0.84350  1.0000
  H   H113      1.0  0.05830  0.53150  0.84350  1.0000
  H   H114      1.0  0.47320  0.94170  0.84350  1.0000
  H   H115      1.0  0.13987  0.86483  0.67683  1.0000
  H   H116      1.0  0.13517  0.27503  0.67683  1.0000
  H   H117      1.0  0.72497  0.86013  0.67683  1.0000
  H   H118      1.0  0.13517  0.86013  0.17683  1.0000
  H   H119      1.0  0.72497  0.86483  0.17683  1.0000
  H   H120      1.0  0.13987  0.27503  0.17683  1.0000
  H   H121      1.0  0.80653  0.19817  0.01017  1.0000
  H   H122      1.0  0.80183  0.60837  0.01017  1.0000
  H   H123      1.0  0.39163  0.19347  0.01017  1.0000
  H   H124      1.0  0.80183  0.19347  0.51017  1.0000
  H   H125      1.0  0.39163  0.19817  0.51017  1.0000
  H   H126      1.0  0.80653  0.60837  0.51017  1.0000
  H   H127      1.0  0.47260  0.58410  0.29900  1.0000
  H   H128      1.0  0.41590  0.88850  0.29900  1.0000
  H   H129      1.0  0.11150  0.52740  0.29900  1.0000
  H   H130      1.0  0.41590  0.52740  0.79900  1.0000
  H   H131      1.0  0.11150  0.58410  0.79900  1.0000
  H   H132      1.0  0.47260  0.88850  0.79900  1.0000
  H   H133      1.0  0.13927  0.91743  0.63233  1.0000
  H   H134      1.0  0.08257  0.22183  0.63233  1.0000
  H   H135      1.0  0.77817  0.86073  0.63233  1.0000
  H   H136      1.0  0.08257  0.86073  0.13233  1.0000
  H   H137      1.0  0.77817  0.91743  0.13233  1.0000
  H   H138      1.0  0.13927  0.22183  0.13233  1.0000
  H   H139      1.0  0.80593  0.25077  0.96567  1.0000
  H   H140      1.0  0.74923  0.55517  0.96567  1.0000
  H   H141      1.0  0.44483  0.19407  0.96567  1.0000
  H   H142      1.0  0.74923  0.19407  0.46567  1.0000
  H   H143      1.0  0.44483  0.25077  0.46567  1.0000
  H   H144      1.0  0.80593  0.55517  0.46567  1.0000
  C   C91       1.0  0.50630  0.61120  0.39930  1.0000
  C   C92       1.0  0.38880  0.89510  0.39930  1.0000
  C   C93       1.0  0.10490  0.49370  0.39930  1.0000
  C   C94       1.0  0.38880  0.49370  0.89930  1.0000
  C   C95       1.0  0.10490  0.61120  0.89930  1.0000
  C   C96       1.0  0.50630  0.89510  0.89930  1.0000
  C   C97       1.0  0.17297  0.94453  0.73263  1.0000
  C   C98       1.0  0.05547  0.22843  0.73263  1.0000
  C   C99       1.0  0.77157  0.82703  0.73263  1.0000
  C   C100      1.0  0.05547  0.82703  0.23263  1.0000
  C   C101      1.0  0.77157  0.94453  0.23263  1.0000
  C   C102      1.0  0.17297  0.22843  0.23263  1.0000
  C   C103      1.0  0.83963  0.27787  0.06597  1.0000
  C   C104      1.0  0.72213  0.56177  0.06597  1.0000
  C   C105      1.0  0.43823  0.16037  0.06597  1.0000
  C   C106      1.0  0.72213  0.16037  0.56597  1.0000
  C   C107      1.0  0.43823  0.27787  0.56597  1.0000
  C   C108      1.0  0.83963  0.56177  0.56597  1.0000
  H   H145      1.0  0.50300  0.64810  0.39580  1.0000
  H   H146      1.0  0.35190  0.85490  0.39580  1.0000
  H   H147      1.0  0.14510  0.49700  0.39580  1.0000
  H   H148      1.0  0.35190  0.49700  0.89580  1.0000
  H   H149      1.0  0.14510  0.64810  0.89580  1.0000
  H   H150      1.0  0.50300  0.85490  0.89580  1.0000
  H   H151      1.0  0.16967  0.98143  0.72913  1.0000
  H   H152      1.0  0.01857  0.18823  0.72913  1.0000
  H   H153      1.0  0.81177  0.83033  0.72913  1.0000
  H   H154      1.0  0.01857  0.83033  0.22913  1.0000
  H   H155      1.0  0.81177  0.98143  0.22913  1.0000
  H   H156      1.0  0.16967  0.18823  0.22913  1.0000
  H   H157      1.0  0.83633  0.31477  0.06247  1.0000
  H   H158      1.0  0.68523  0.52157  0.06247  1.0000
  H   H159      1.0  0.47843  0.16367  0.06247  1.0000
  H   H160      1.0  0.68523  0.16367  0.56247  1.0000
  H   H161      1.0  0.47843  0.31477  0.56247  1.0000
  H   H162      1.0  0.83633  0.52157  0.56247  1.0000
  H   H163      1.0  0.54860  0.62250  0.38870  1.0000
  H   H164      1.0  0.37750  0.92610  0.38870  1.0000
  H   H165      1.0  0.07390  0.45140  0.38870  1.0000
  H   H166      1.0  0.37750  0.45140  0.88870  1.0000
  H   H167      1.0  0.07390  0.62250  0.88870  1.0000
  H   H168      1.0  0.54860  0.92610  0.88870  1.0000
  H   H169      1.0  0.21527  0.95583  0.72203  1.0000
  H   H170      1.0  0.04417  0.25943  0.72203  1.0000
  H   H171      1.0  0.74057  0.78473  0.72203  1.0000
  H   H172      1.0  0.04417  0.78473  0.22203  1.0000
  H   H173      1.0  0.74057  0.95583  0.22203  1.0000
  H   H174      1.0  0.21527  0.25943  0.22203  1.0000
  H   H175      1.0  0.88193  0.28917  0.05537  1.0000
  H   H176      1.0  0.71083  0.59277  0.05537  1.0000
  H   H177      1.0  0.40723  0.11807  0.05537  1.0000
  H   H178      1.0  0.71083  0.11807  0.55537  1.0000
  H   H179      1.0  0.40723  0.28917  0.55537  1.0000
  H   H180      1.0  0.88193  0.59277  0.55537  1.0000
  C   C109      1.0  0.52940  0.63050  0.52950  1.0000
  C   C110      1.0  0.36950  0.89890  0.52950  1.0000
  C   C111      1.0  0.10110  0.47060  0.52950  1.0000
  C   C112      1.0  0.36950  0.47060  0.02950  1.0000
  C   C113      1.0  0.10110  0.63050  0.02950  1.0000
  C   C114      1.0  0.52940  0.89890  0.02950  1.0000
  C   C115      1.0  0.19607  0.96383  0.86283  1.0000
  C   C116      1.0  0.03617  0.23223  0.86283  1.0000
  C   C117      1.0  0.76777  0.80393  0.86283  1.0000
  C   C118      1.0  0.03617  0.80393  0.36283  1.0000
  C   C119      1.0  0.76777  0.96383  0.36283  1.0000
  C   C120      1.0  0.19607  0.23223  0.36283  1.0000
  C   C121      1.0  0.86273  0.29717  0.19617  1.0000
  C   C122      1.0  0.70283  0.56557  0.19617  1.0000
  C   C123      1.0  0.43443  0.13727  0.19617  1.0000
  C   C124      1.0  0.70283  0.13727  0.69617  1.0000
  C   C125      1.0  0.43443  0.29717  0.69617  1.0000
  C   C126      1.0  0.86273  0.56557  0.69617  1.0000
  C   C127      1.0  0.37480  0.58240  0.34980  1.0000
  C   C128      1.0  0.41760  0.79240  0.34980  1.0000
  C   C129      1.0  0.20760  0.62520  0.34980  1.0000
  C   C130      1.0  0.41760  0.62520  0.84980  1.0000
  C   C131      1.0  0.20760  0.58240  0.84980  1.0000
  C   C132      1.0  0.37480  0.79240  0.84980  1.0000
  C   C133      1.0  0.04147  0.91573  0.68313  1.0000
  C   C134      1.0  0.08427  0.12573  0.68313  1.0000
  C   C135      1.0  0.87427  0.95853  0.68313  1.0000
  C   C136      1.0  0.08427  0.95853  0.18313  1.0000
  C   C137      1.0  0.87427  0.91573  0.18313  1.0000
  C   C138      1.0  0.04147  0.12573  0.18313  1.0000
  C   C139      1.0  0.70813  0.24907  0.01647  1.0000
  C   C140      1.0  0.75093  0.45907  0.01647  1.0000
  C   C141      1.0  0.54093  0.29187  0.01647  1.0000
  C   C142      1.0  0.75093  0.29187  0.51647  1.0000
  C   C143      1.0  0.54093  0.24907  0.51647  1.0000
  C   C144      1.0  0.70813  0.45907  0.51647  1.0000
  C   C145      1.0  0.55040  0.84530  0.71770  1.0000
  C   C146      1.0  0.15470  0.70510  0.71770  1.0000
  C   C147      1.0  0.29490  0.44960  0.71770  1.0000
  C   C148      1.0  0.15470  0.44960  0.21770  1.0000
  C   C149      1.0  0.29490  0.84530  0.21770  1.0000
  C   C150      1.0  0.55040  0.70510  0.21770  1.0000
  C   C151      1.0  0.21707  0.17863  0.05103  1.0000
  C   C152      1.0  0.82137  0.03843  0.05103  1.0000
  C   C153      1.0  0.96157  0.78293  0.05103  1.0000
  C   C154      1.0  0.82137  0.78293  0.55103  1.0000
  C   C155      1.0  0.96157  0.17863  0.55103  1.0000
  C   C156      1.0  0.21707  0.03843  0.55103  1.0000
  C   C157      1.0  0.88373  0.51197  0.38437  1.0000
  C   C158      1.0  0.48803  0.37177  0.38437  1.0000
  C   C159      1.0  0.62823  0.11627  0.38437  1.0000
  C   C160      1.0  0.48803  0.11627  0.88437  1.0000
  C   C161      1.0  0.62823  0.51197  0.88437  1.0000
  C   C162      1.0  0.88373  0.37177  0.88437  1.0000
  H   H181      1.0  0.51870  0.82840  0.75500  1.0000
  H   H182      1.0  0.17160  0.69030  0.75500  1.0000
  H   H183      1.0  0.30970  0.48130  0.75500  1.0000
  H   H184      1.0  0.17160  0.48130  0.25500  1.0000
  H   H185      1.0  0.30970  0.82840  0.25500  1.0000
  H   H186      1.0  0.51870  0.69030  0.25500  1.0000
  H   H187      1.0  0.18537  0.16173  0.08833  1.0000
  H   H188      1.0  0.83827  0.02363  0.08833  1.0000
  H   H189      1.0  0.97637  0.81463  0.08833  1.0000
  H   H190      1.0  0.83827  0.81463  0.58833  1.0000
  H   H191      1.0  0.97637  0.16173  0.58833  1.0000
  H   H192      1.0  0.18537  0.02363  0.58833  1.0000
  H   H193      1.0  0.85203  0.49507  0.42167  1.0000
  H   H194      1.0  0.50493  0.35697  0.42167  1.0000
  H   H195      1.0  0.64303  0.14797  0.42167  1.0000
  H   H196      1.0  0.50493  0.14797  0.92167  1.0000
  H   H197      1.0  0.64303  0.49507  0.92167  1.0000
  H   H198      1.0  0.85203  0.35697  0.92167  1.0000
  C   C163      1.0  0.60770  0.89680  0.75130  1.0000
  C   C164      1.0  0.10320  0.71090  0.75130  1.0000
  C   C165      1.0  0.28910  0.39230  0.75130  1.0000
  C   C166      1.0  0.10320  0.39230  0.25130  1.0000
  C   C167      1.0  0.28910  0.89680  0.25130  1.0000
  C   C168      1.0  0.60770  0.71090  0.25130  1.0000
  C   C169      1.0  0.27437  0.23013  0.08463  1.0000
  C   C170      1.0  0.76987  0.04423  0.08463  1.0000
  C   C171      1.0  0.95577  0.72563  0.08463  1.0000
  C   C172      1.0  0.76987  0.72563  0.58463  1.0000
  C   C173      1.0  0.95577  0.23013  0.58463  1.0000
  C   C174      1.0  0.27437  0.04423  0.58463  1.0000
  C   C175      1.0  0.94103  0.56347  0.41797  1.0000
  C   C176      1.0  0.43653  0.37757  0.41797  1.0000
  C   C177      1.0  0.62243  0.05897  0.41797  1.0000
  C   C178      1.0  0.43653  0.05897  0.91797  1.0000
  C   C179      1.0  0.62243  0.56347  0.91797  1.0000
  C   C180      1.0  0.94103  0.37757  0.91797  1.0000
  H   H199      1.0  0.59750  0.92480  0.77550  1.0000
  H   H200      1.0  0.07520  0.67270  0.77550  1.0000
  H   H201      1.0  0.32730  0.40250  0.77550  1.0000
  H   H202      1.0  0.07520  0.40250  0.27550  1.0000
  H   H203      1.0  0.32730  0.92480  0.27550  1.0000
  H   H204      1.0  0.59750  0.67270  0.27550  1.0000
  H   H205      1.0  0.26417  0.25813  0.10883  1.0000
  H   H206      1.0  0.74187  0.00603  0.10883  1.0000
  H   H207      1.0  0.99397  0.73583  0.10883  1.0000
  H   H208      1.0  0.74187  0.73583  0.60883  1.0000
  H   H209      1.0  0.99397  0.25813  0.60883  1.0000
  H   H210      1.0  0.26417  0.00603  0.60883  1.0000
  H   H211      1.0  0.93083  0.59147  0.44217  1.0000
  H   H212      1.0  0.40853  0.33937  0.44217  1.0000
  H   H213      1.0  0.66063  0.06917  0.44217  1.0000
  H   H214      1.0  0.40853  0.06917  0.94217  1.0000
  H   H215      1.0  0.66063  0.59147  0.94217  1.0000
  H   H216      1.0  0.93083  0.33937  0.94217  1.0000
  H   H217      1.0  0.62340  0.87990  0.78680  1.0000
  H   H218      1.0  0.12010  0.74350  0.78680  1.0000
  H   H219      1.0  0.25650  0.37660  0.78680  1.0000
  H   H220      1.0  0.12010  0.37660  0.28680  1.0000
  H   H221      1.0  0.25650  0.87990  0.28680  1.0000
  H   H222      1.0  0.62340  0.74350  0.28680  1.0000
  H   H223      1.0  0.29007  0.21323  0.12013  1.0000
  H   H224      1.0  0.78677  0.07683  0.12013  1.0000
  H   H225      1.0  0.92317  0.70993  0.12013  1.0000
  H   H226      1.0  0.78677  0.70993  0.62013  1.0000
  H   H227      1.0  0.92317  0.21323  0.62013  1.0000
  H   H228      1.0  0.29007  0.07683  0.62013  1.0000
  H   H229      1.0  0.95673  0.54657  0.45347  1.0000
  H   H230      1.0  0.45343  0.41017  0.45347  1.0000
  H   H231      1.0  0.58983  0.04327  0.45347  1.0000
  H   H232      1.0  0.45343  0.04327  0.95347  1.0000
  H   H233      1.0  0.58983  0.54657  0.95347  1.0000
  H   H234      1.0  0.95673  0.41017  0.95347  1.0000
  C   C181      1.0  0.65660  0.93170  0.69660  1.0000
  C   C182      1.0  0.06830  0.72490  0.69660  1.0000
  C   C183      1.0  0.27510  0.34340  0.69660  1.0000
  C   C184      1.0  0.06830  0.34340  0.19660  1.0000
  C   C185      1.0  0.27510  0.93170  0.19660  1.0000
  C   C186      1.0  0.65660  0.72490  0.19660  1.0000
  C   C187      1.0  0.32327  0.26503  0.02993  1.0000
  C   C188      1.0  0.73497  0.05823  0.02993  1.0000
  C   C189      1.0  0.94177  0.67673  0.02993  1.0000
  C   C190      1.0  0.73497  0.67673  0.52993  1.0000
  C   C191      1.0  0.94177  0.26503  0.52993  1.0000
  C   C192      1.0  0.32327  0.05823  0.52993  1.0000
  C   C193      1.0  0.98993  0.59837  0.36327  1.0000
  C   C194      1.0  0.40163  0.39157  0.36327  1.0000
  C   C195      1.0  0.60843  0.01007  0.36327  1.0000
  C   C196      1.0  0.40163  0.01007  0.86327  1.0000
  C   C197      1.0  0.60843  0.59837  0.86327  1.0000
  C   C198      1.0  0.98993  0.39157  0.86327  1.0000
  H   H235      1.0  0.67000  0.90470  0.67640  1.0000
  H   H236      1.0  0.09530  0.76530  0.67640  1.0000
  H   H237      1.0  0.23470  0.33000  0.67640  1.0000
  H   H238      1.0  0.09530  0.33000  0.17640  1.0000
  H   H239      1.0  0.23470  0.90470  0.17640  1.0000
  H   H240      1.0  0.67000  0.76530  0.17640  1.0000
  H   H241      1.0  0.33667  0.23803  0.00973  1.0000
  H   H242      1.0  0.76197  0.09863  0.00973  1.0000
  H   H243      1.0  0.90137  0.66333  0.00973  1.0000
  H   H244      1.0  0.76197  0.66333  0.50973  1.0000
  H   H245      1.0  0.90137  0.23803  0.50973  1.0000
  H   H246      1.0  0.33667  0.09863  0.50973  1.0000
  H   H247      1.0  0.00333  0.57137  0.34307  1.0000
  H   H248      1.0  0.42863  0.43197  0.34307  1.0000
  H   H249      1.0  0.56803  0.99667  0.34307  1.0000
  H   H250      1.0  0.42863  0.99667  0.84307  1.0000
  H   H251      1.0  0.56803  0.57137  0.84307  1.0000
  H   H252      1.0  0.00333  0.43197  0.84307  1.0000
  H   H253      1.0  0.69180  0.96570  0.71980  1.0000
  H   H254      1.0  0.03430  0.72610  0.71980  1.0000
  H   H255      1.0  0.27390  0.30820  0.71980  1.0000
  H   H256      1.0  0.03430  0.30820  0.21980  1.0000
  H   H257      1.0  0.27390  0.96570  0.21980  1.0000
  H   H258      1.0  0.69180  0.72610  0.21980  1.0000
  H   H259      1.0  0.35847  0.29903  0.05313  1.0000
  H   H260      1.0  0.70097  0.05943  0.05313  1.0000
  H   H261      1.0  0.94057  0.64153  0.05313  1.0000
  H   H262      1.0  0.70097  0.64153  0.55313  1.0000
  H   H263      1.0  0.94057  0.29903  0.55313  1.0000
  H   H264      1.0  0.35847  0.05943  0.55313  1.0000
  H   H265      1.0  0.02513  0.63237  0.38647  1.0000
  H   H266      1.0  0.36763  0.39277  0.38647  1.0000
  H   H267      1.0  0.60723  0.97487  0.38647  1.0000
  H   H268      1.0  0.36763  0.97487  0.88647  1.0000
  H   H269      1.0  0.60723  0.63237  0.88647  1.0000
  H   H270      1.0  0.02513  0.39277  0.88647  1.0000
  C   C199      1.0  0.63440  0.95660  0.63710  1.0000
  C   C200      1.0  0.04340  0.67780  0.63710  1.0000
  C   C201      1.0  0.32220  0.36560  0.63710  1.0000
  C   C202      1.0  0.04340  0.36560  0.13710  1.0000
  C   C203      1.0  0.32220  0.95660  0.13710  1.0000
  C   C204      1.0  0.63440  0.67780  0.13710  1.0000
  C   C205      1.0  0.30107  0.28993  0.97043  1.0000
  C   C206      1.0  0.71007  0.01113  0.97043  1.0000
  C   C207      1.0  0.98887  0.69893  0.97043  1.0000
  C   C208      1.0  0.71007  0.69893  0.47043  1.0000
  C   C209      1.0  0.98887  0.28993  0.47043  1.0000
  C   C210      1.0  0.30107  0.01113  0.47043  1.0000
  C   C211      1.0  0.96773  0.62327  0.30377  1.0000
  C   C212      1.0  0.37673  0.34447  0.30377  1.0000
  C   C213      1.0  0.65553  0.03227  0.30377  1.0000
  C   C214      1.0  0.37673  0.03227  0.80377  1.0000
  C   C215      1.0  0.65553  0.62327  0.80377  1.0000
  C   C216      1.0  0.96773  0.34447  0.80377  1.0000
  H   H271      1.0  0.62700  0.98860  0.65660  1.0000
  H   H272      1.0  0.01140  0.63840  0.65660  1.0000
  H   H273      1.0  0.36160  0.37300  0.65660  1.0000
  H   H274      1.0  0.01140  0.37300  0.15660  1.0000
  H   H275      1.0  0.36160  0.98860  0.15660  1.0000
  H   H276      1.0  0.62700  0.63840  0.15660  1.0000
  H   H277      1.0  0.29367  0.32193  0.98993  1.0000
  H   H278      1.0  0.67807  0.97173  0.98993  1.0000
  H   H279      1.0  0.02827  0.70633  0.98993  1.0000
  H   H280      1.0  0.67807  0.70633  0.48993  1.0000
  H   H281      1.0  0.02827  0.32193  0.48993  1.0000
  H   H282      1.0  0.29367  0.97173  0.48993  1.0000
  H   H283      1.0  0.96033  0.65527  0.32327  1.0000
  H   H284      1.0  0.34473  0.30507  0.32327  1.0000
  H   H285      1.0  0.69493  0.03967  0.32327  1.0000
  H   H286      1.0  0.34473  0.03967  0.82327  1.0000
  H   H287      1.0  0.69493  0.65527  0.82327  1.0000
  H   H288      1.0  0.96033  0.30507  0.82327  1.0000
  C   C217      1.0  0.57570  0.90670  0.60490  1.0000
  C   C218      1.0  0.09330  0.66900  0.60490  1.0000
  C   C219      1.0  0.33100  0.42430  0.60490  1.0000
  C   C220      1.0  0.09330  0.42430  0.10490  1.0000
  C   C221      1.0  0.33100  0.90670  0.10490  1.0000
  C   C222      1.0  0.57570  0.66900  0.10490  1.0000
  C   C223      1.0  0.24237  0.24003  0.93823  1.0000
  C   C224      1.0  0.75997  0.00233  0.93823  1.0000
  C   C225      1.0  0.99767  0.75763  0.93823  1.0000
  C   C226      1.0  0.75997  0.75763  0.43823  1.0000
  C   C227      1.0  0.99767  0.24003  0.43823  1.0000
  C   C228      1.0  0.24237  0.00233  0.43823  1.0000
  C   C229      1.0  0.90903  0.57337  0.27157  1.0000
  C   C230      1.0  0.42663  0.33567  0.27157  1.0000
  C   C231      1.0  0.66433  0.09097  0.27157  1.0000
  C   C232      1.0  0.42663  0.09097  0.77157  1.0000
  C   C233      1.0  0.66433  0.57337  0.77157  1.0000
  C   C234      1.0  0.90903  0.33567  0.77157  1.0000
  H   H289      1.0  0.58440  0.87880  0.57810  1.0000
  H   H290      1.0  0.12120  0.70560  0.57810  1.0000
  H   H291      1.0  0.29440  0.41560  0.57810  1.0000
  H   H292      1.0  0.12120  0.41560  0.07810  1.0000
  H   H293      1.0  0.29440  0.87880  0.07810  1.0000
  H   H294      1.0  0.58440  0.70560  0.07810  1.0000
  H   H295      1.0  0.25107  0.21213  0.91143  1.0000
  H   H296      1.0  0.78787  0.03893  0.91143  1.0000
  H   H297      1.0  0.96107  0.74893  0.91143  1.0000
  H   H298      1.0  0.78787  0.74893  0.41143  1.0000
  H   H299      1.0  0.96107  0.21213  0.41143  1.0000
  H   H300      1.0  0.25107  0.03893  0.41143  1.0000
  H   H301      1.0  0.91773  0.54547  0.24477  1.0000
  H   H302      1.0  0.45453  0.37227  0.24477  1.0000
  H   H303      1.0  0.62773  0.08227  0.24477  1.0000
  H   H304      1.0  0.45453  0.08227  0.74477  1.0000
  H   H305      1.0  0.62773  0.54547  0.74477  1.0000
  H   H306      1.0  0.91773  0.37227  0.74477  1.0000
  H   H307      1.0  0.55970  0.92500  0.57170  1.0000
  H   H308      1.0  0.07500  0.63470  0.57170  1.0000
  H   H309      1.0  0.36530  0.44030  0.57170  1.0000
  H   H310      1.0  0.07500  0.44030  0.07170  1.0000
  H   H311      1.0  0.36530  0.92500  0.07170  1.0000
  H   H312      1.0  0.55970  0.63470  0.07170  1.0000
  H   H313      1.0  0.22637  0.25833  0.90503  1.0000
  H   H314      1.0  0.74167  0.96803  0.90503  1.0000
  H   H315      1.0  0.03197  0.77363  0.90503  1.0000
  H   H316      1.0  0.74167  0.77363  0.40503  1.0000
  H   H317      1.0  0.03197  0.25833  0.40503  1.0000
  H   H318      1.0  0.22637  0.96803  0.40503  1.0000
  H   H319      1.0  0.89303  0.59167  0.23837  1.0000
  H   H320      1.0  0.40833  0.30137  0.23837  1.0000
  H   H321      1.0  0.69863  0.10697  0.23837  1.0000
  H   H322      1.0  0.40833  0.10697  0.73837  1.0000
  H   H323      1.0  0.69863  0.59167  0.73837  1.0000
  H   H324      1.0  0.89303  0.30137  0.73837  1.0000
  C   C235      1.0  0.52760  0.87080  0.66030  1.0000
  C   C236      1.0  0.12920  0.65680  0.66030  1.0000
  C   C237      1.0  0.34320  0.47240  0.66030  1.0000
  C   C238      1.0  0.12920  0.47240  0.16030  1.0000
  C   C239      1.0  0.34320  0.87080  0.16030  1.0000
  C   C240      1.0  0.52760  0.65680  0.16030  1.0000
  C   C241      1.0  0.19427  0.20413  0.99363  1.0000
  C   C242      1.0  0.79587  0.99013  0.99363  1.0000
  C   C243      1.0  0.00987  0.80573  0.99363  1.0000
  C   C244      1.0  0.79587  0.80573  0.49363  1.0000
  C   C245      1.0  0.00987  0.20413  0.49363  1.0000
  C   C246      1.0  0.19427  0.99013  0.49363  1.0000
  C   C247      1.0  0.86093  0.53747  0.32697  1.0000
  C   C248      1.0  0.46253  0.32347  0.32697  1.0000
  C   C249      1.0  0.67653  0.13907  0.32697  1.0000
  C   C250      1.0  0.46253  0.13907  0.82697  1.0000
  C   C251      1.0  0.67653  0.53747  0.82697  1.0000
  C   C252      1.0  0.86093  0.32347  0.82697  1.0000
  H   H325      1.0  0.51430  0.89730  0.68210  1.0000
  H   H326      1.0  0.10270  0.61700  0.68210  1.0000
  H   H327      1.0  0.38300  0.48570  0.68210  1.0000
  H   H328      1.0  0.10270  0.48570  0.18210  1.0000
  H   H329      1.0  0.38300  0.89730  0.18210  1.0000
  H   H330      1.0  0.51430  0.61700  0.18210  1.0000
  H   H331      1.0  0.18097  0.23063  0.01543  1.0000
  H   H332      1.0  0.76937  0.95033  0.01543  1.0000
  H   H333      1.0  0.04967  0.81903  0.01543  1.0000
  H   H334      1.0  0.76937  0.81903  0.51543  1.0000
  H   H335      1.0  0.04967  0.23063  0.51543  1.0000
  H   H336      1.0  0.18097  0.95033  0.51543  1.0000
  H   H337      1.0  0.84763  0.56397  0.34877  1.0000
  H   H338      1.0  0.43603  0.28367  0.34877  1.0000
  H   H339      1.0  0.71633  0.15237  0.34877  1.0000
  H   H340      1.0  0.43603  0.15237  0.84877  1.0000
  H   H341      1.0  0.71633  0.56397  0.84877  1.0000
  H   H342      1.0  0.84763  0.28367  0.84877  1.0000
  H   H343      1.0  0.49210  0.83700  0.63720  1.0000
  H   H344      1.0  0.16300  0.65510  0.63720  1.0000
  H   H345      1.0  0.34490  0.50790  0.63720  1.0000
  H   H346      1.0  0.16300  0.50790  0.13720  1.0000
  H   H347      1.0  0.34490  0.83700  0.13720  1.0000
  H   H348      1.0  0.49210  0.65510  0.13720  1.0000
  H   H349      1.0  0.15877  0.17033  0.97053  1.0000
  H   H350      1.0  0.82967  0.98843  0.97053  1.0000
  H   H351      1.0  0.01157  0.84123  0.97053  1.0000
  H   H352      1.0  0.82967  0.84123  0.47053  1.0000
  H   H353      1.0  0.01157  0.17033  0.47053  1.0000
  H   H354      1.0  0.15877  0.98843  0.47053  1.0000
  H   H355      1.0  0.82543  0.50367  0.30387  1.0000
  H   H356      1.0  0.49633  0.32177  0.30387  1.0000
  H   H357      1.0  0.67823  0.17457  0.30387  1.0000
  H   H358      1.0  0.49633  0.17457  0.80387  1.0000
  H   H359      1.0  0.67823  0.50367  0.80387  1.0000
  H   H360      1.0  0.82543  0.32177  0.80387  1.0000
  C   C253      1.0  0.56050  0.79450  0.69370  1.0000
  C   C254      1.0  0.20550  0.76600  0.69370  1.0000
  C   C255      1.0  0.23400  0.43950  0.69370  1.0000
  C   C256      1.0  0.20550  0.43950  0.19370  1.0000
  C   C257      1.0  0.23400  0.79450  0.19370  1.0000
  C   C258      1.0  0.56050  0.76600  0.19370  1.0000
  C   C259      1.0  0.22717  0.12783  0.02703  1.0000
  C   C260      1.0  0.87217  0.09933  0.02703  1.0000
  C   C261      1.0  0.90067  0.77283  0.02703  1.0000
  C   C262      1.0  0.87217  0.77283  0.52703  1.0000
  C   C263      1.0  0.90067  0.12783  0.52703  1.0000
  C   C264      1.0  0.22717  0.09933  0.52703  1.0000
  C   C265      1.0  0.89383  0.46117  0.36037  1.0000
  C   C266      1.0  0.53883  0.43267  0.36037  1.0000
  C   C267      1.0  0.56733  0.10617  0.36037  1.0000
  C   C268      1.0  0.53883  0.10617  0.86037  1.0000
  C   C269      1.0  0.56733  0.46117  0.86037  1.0000
  C   C270      1.0  0.89383  0.43267  0.86037  1.0000
  C   C271      1.0  0.68480  0.98500  0.58280  1.0000
  C   C272      1.0  0.01500  0.69980  0.58280  1.0000
  C   C273      1.0  0.30020  0.31520  0.58280  1.0000
  C   C274      1.0  0.01500  0.31520  0.08280  1.0000
  C   C275      1.0  0.30020  0.98500  0.08280  1.0000
  C   C276      1.0  0.68480  0.69980  0.08280  1.0000
  C   C277      1.0  0.35147  0.31833  0.91613  1.0000
  C   C278      1.0  0.68167  0.03313  0.91613  1.0000
  C   C279      1.0  0.96687  0.64853  0.91613  1.0000
  C   C280      1.0  0.68167  0.64853  0.41613  1.0000
  C   C281      1.0  0.96687  0.31833  0.41613  1.0000
  C   C282      1.0  0.35147  0.03313  0.41613  1.0000
  C   C283      1.0  0.01813  0.65167  0.24947  1.0000
  C   C284      1.0  0.34833  0.36647  0.24947  1.0000
  C   C285      1.0  0.63353  0.98187  0.24947  1.0000
  C   C286      1.0  0.34833  0.98187  0.74947  1.0000
  C   C287      1.0  0.63353  0.65167  0.74947  1.0000
  C   C288      1.0  0.01813  0.36647  0.74947  1.0000
