data_image0
_chemical_formula_structural       U8O64C12H12C12H24C12H24C12H12C12H24C12H24C24
_chemical_formula_sum              "U8 O64 C96 H120"
_cell_length_a       18.0725
_cell_length_b       18.0725
_cell_length_c       18.0725
_cell_angle_alpha    90
_cell_angle_beta     90
_cell_angle_gamma    90

_space_group_name_H-M_alt    "P 1"
_space_group_IT_number       1

loop_
  _space_group_symop_operation_xyz
  'x, y, z'

loop_
  _atom_site_type_symbol
  _atom_site_label
  _atom_site_symmetry_multiplicity
  _atom_site_fract_x
  _atom_site_fract_y
  _atom_site_fract_z
  _atom_site_occupancy
  U   U1        1.0  0.67886  0.32114  0.82114  1.0000
  U   U2        1.0  0.82114  0.67886  0.32114  1.0000
  U   U3        1.0  0.32114  0.82114  0.67886  1.0000
  U   U4        1.0  0.17886  0.17886  0.17886  1.0000
  U   U5        1.0  0.21587  0.28413  0.71587  1.0000
  U   U6        1.0  0.28413  0.71587  0.21587  1.0000
  U   U7        1.0  0.78413  0.78413  0.78413  1.0000
  U   U8        1.0  0.71587  0.21587  0.28413  1.0000
  O   O1        1.0  0.62230  0.37770  0.87770  1.0000
  O   O2        1.0  0.87770  0.62230  0.37770  1.0000
  O   O3        1.0  0.37770  0.87770  0.62230  1.0000
  O   O4        1.0  0.12230  0.12230  0.12230  1.0000
  O   O5        1.0  0.73500  0.26500  0.76500  1.0000
  O   O6        1.0  0.76500  0.73500  0.26500  1.0000
  O   O7        1.0  0.26500  0.76500  0.73500  1.0000
  O   O8        1.0  0.23500  0.23500  0.23500  1.0000
  O   O9        1.0  0.27240  0.22760  0.77240  1.0000
  O   O10       1.0  0.22760  0.77240  0.27240  1.0000
  O   O11       1.0  0.72760  0.72760  0.72760  1.0000
  O   O12       1.0  0.77240  0.27240  0.22760  1.0000
  O   O13       1.0  0.15920  0.34080  0.65920  1.0000
  O   O14       1.0  0.34080  0.65920  0.15920  1.0000
  O   O15       1.0  0.84080  0.84080  0.84080  1.0000
  O   O16       1.0  0.65920  0.15920  0.34080  1.0000
  O   O17       1.0  0.57350  0.31340  0.73710  1.0000
  O   O18       1.0  0.92650  0.68660  0.23710  1.0000
  O   O19       1.0  0.42650  0.81340  0.76290  1.0000
  O   O20       1.0  0.07350  0.18660  0.26290  1.0000
  O   O21       1.0  0.73710  0.57350  0.31340  1.0000
  O   O22       1.0  0.23710  0.92650  0.68660  1.0000
  O   O23       1.0  0.76290  0.42650  0.81340  1.0000
  O   O24       1.0  0.26290  0.07350  0.18660  1.0000
  O   O25       1.0  0.31340  0.73710  0.57350  1.0000
  O   O26       1.0  0.68660  0.23710  0.92650  1.0000
  O   O27       1.0  0.81340  0.76290  0.42650  1.0000
  O   O28       1.0  0.18660  0.26290  0.07350  1.0000
  O   O29       1.0  0.65220  0.40280  0.71560  1.0000
  O   O30       1.0  0.84780  0.59720  0.21560  1.0000
  O   O31       1.0  0.34780  0.90280  0.78440  1.0000
  O   O32       1.0  0.15220  0.09720  0.28440  1.0000
  O   O33       1.0  0.71560  0.65220  0.40280  1.0000
  O   O34       1.0  0.21560  0.84780  0.59720  1.0000
  O   O35       1.0  0.78440  0.34780  0.90280  1.0000
  O   O36       1.0  0.28440  0.15220  0.09720  1.0000
  O   O37       1.0  0.40280  0.71560  0.65220  1.0000
  O   O38       1.0  0.59720  0.21560  0.84780  1.0000
  O   O39       1.0  0.90280  0.78440  0.34780  1.0000
  O   O40       1.0  0.09720  0.28440  0.15220  1.0000
  O   O41       1.0  0.30400  0.38750  0.71720  1.0000
  O   O42       1.0  0.19600  0.61250  0.21720  1.0000
  O   O43       1.0  0.69600  0.88750  0.78280  1.0000
  O   O44       1.0  0.80400  0.11250  0.28280  1.0000
  O   O45       1.0  0.71720  0.30400  0.38750  1.0000
  O   O46       1.0  0.21720  0.19600  0.61250  1.0000
  O   O47       1.0  0.78280  0.69600  0.88750  1.0000
  O   O48       1.0  0.28280  0.80400  0.11250  1.0000
  O   O49       1.0  0.38750  0.71720  0.30400  1.0000
  O   O50       1.0  0.61250  0.21720  0.19600  1.0000
  O   O51       1.0  0.88750  0.78280  0.69600  1.0000
  O   O52       1.0  0.11250  0.28280  0.80400  1.0000
  O   O53       1.0  0.31550  0.30780  0.62700  1.0000
  O   O54       1.0  0.18450  0.69220  0.12700  1.0000
  O   O55       1.0  0.68450  0.80780  0.87300  1.0000
  O   O56       1.0  0.81550  0.19220  0.37300  1.0000
  O   O57       1.0  0.62700  0.31550  0.30780  1.0000
  O   O58       1.0  0.12700  0.18450  0.69220  1.0000
  O   O59       1.0  0.87300  0.68450  0.80780  1.0000
  O   O60       1.0  0.37300  0.81550  0.19220  1.0000
  O   O61       1.0  0.30780  0.62700  0.31550  1.0000
  O   O62       1.0  0.69220  0.12700  0.18450  1.0000
  O   O63       1.0  0.80780  0.87300  0.68450  1.0000
  O   O64       1.0  0.19220  0.37300  0.81550  1.0000
  C   C1        1.0  0.53030  0.40930  0.65590  1.0000
  C   C2        1.0  0.96970  0.59070  0.15590  1.0000
  C   C3        1.0  0.46970  0.90930  0.84410  1.0000
  C   C4        1.0  0.03030  0.09070  0.34410  1.0000
  C   C5        1.0  0.65590  0.53030  0.40930  1.0000
  C   C6        1.0  0.15590  0.96970  0.59070  1.0000
  C   C7        1.0  0.84410  0.46970  0.90930  1.0000
  C   C8        1.0  0.34410  0.03030  0.09070  1.0000
  C   C9        1.0  0.40930  0.65590  0.53030  1.0000
  C   C10       1.0  0.59070  0.15590  0.96970  1.0000
  C   C11       1.0  0.90930  0.84410  0.46970  1.0000
  C   C12       1.0  0.09070  0.34410  0.03030  1.0000
  H   H1        1.0  0.55400  0.44750  0.62360  1.0000
  H   H2        1.0  0.94600  0.55250  0.12360  1.0000
  H   H3        1.0  0.44600  0.94750  0.87640  1.0000
  H   H4        1.0  0.05400  0.05250  0.37640  1.0000
  H   H5        1.0  0.62360  0.55400  0.44750  1.0000
  H   H6        1.0  0.12360  0.94600  0.55250  1.0000
  H   H7        1.0  0.87640  0.44600  0.94750  1.0000
  H   H8        1.0  0.37640  0.05400  0.05250  1.0000
  H   H9        1.0  0.44750  0.62360  0.55400  1.0000
  H   H10       1.0  0.55250  0.12360  0.94600  1.0000
  H   H11       1.0  0.94750  0.87640  0.44600  1.0000
  H   H12       1.0  0.05250  0.37640  0.05400  1.0000
  C   C13       1.0  0.49130  0.34990  0.60660  1.0000
  C   C14       1.0  0.00870  0.65010  0.10660  1.0000
  C   C15       1.0  0.50870  0.84990  0.89340  1.0000
  C   C16       1.0  0.99130  0.15010  0.39340  1.0000
  C   C17       1.0  0.60660  0.49130  0.34990  1.0000
  C   C18       1.0  0.10660  0.00870  0.65010  1.0000
  C   C19       1.0  0.89340  0.50870  0.84990  1.0000
  C   C20       1.0  0.39340  0.99130  0.15010  1.0000
  C   C21       1.0  0.34990  0.60660  0.49130  1.0000
  C   C22       1.0  0.65010  0.10660  0.00870  1.0000
  C   C23       1.0  0.84990  0.89340  0.50870  1.0000
  C   C24       1.0  0.15010  0.39340  0.99130  1.0000
  H   H13       1.0  0.52720  0.32670  0.57240  1.0000
  H   H14       1.0  0.97280  0.67330  0.07240  1.0000
  H   H15       1.0  0.47280  0.82670  0.92760  1.0000
  H   H16       1.0  0.02720  0.17330  0.42760  1.0000
  H   H17       1.0  0.57240  0.52720  0.32670  1.0000
  H   H18       1.0  0.07240  0.97280  0.67330  1.0000
  H   H19       1.0  0.92760  0.47280  0.82670  1.0000
  H   H20       1.0  0.42760  0.02720  0.17330  1.0000
  H   H21       1.0  0.32670  0.57240  0.52720  1.0000
  H   H22       1.0  0.67330  0.07240  0.97280  1.0000
  H   H23       1.0  0.82670  0.92760  0.47280  1.0000
  H   H24       1.0  0.17330  0.42760  0.02720  1.0000
  H   H25       1.0  0.46900  0.31070  0.63790  1.0000
  H   H26       1.0  0.03100  0.68930  0.13790  1.0000
  H   H27       1.0  0.53100  0.81070  0.86210  1.0000
  H   H28       1.0  0.96900  0.18930  0.36210  1.0000
  H   H29       1.0  0.63790  0.46900  0.31070  1.0000
  H   H30       1.0  0.13790  0.03100  0.68930  1.0000
  H   H31       1.0  0.86210  0.53100  0.81070  1.0000
  H   H32       1.0  0.36210  0.96900  0.18930  1.0000
  H   H33       1.0  0.31070  0.63790  0.46900  1.0000
  H   H34       1.0  0.68930  0.13790  0.03100  1.0000
  H   H35       1.0  0.81070  0.86210  0.53100  1.0000
  H   H36       1.0  0.18930  0.36210  0.96900  1.0000
  C   C25       1.0  0.43010  0.39160  0.56240  1.0000
  C   C26       1.0  0.06990  0.60840  0.06240  1.0000
  C   C27       1.0  0.56990  0.89160  0.93760  1.0000
  C   C28       1.0  0.93010  0.10840  0.43760  1.0000
  C   C29       1.0  0.56240  0.43010  0.39160  1.0000
  C   C30       1.0  0.06240  0.06990  0.60840  1.0000
  C   C31       1.0  0.93760  0.56990  0.89160  1.0000
  C   C32       1.0  0.43760  0.93010  0.10840  1.0000
  C   C33       1.0  0.39160  0.56240  0.43010  1.0000
  C   C34       1.0  0.60840  0.06240  0.06990  1.0000
  C   C35       1.0  0.89160  0.93760  0.56990  1.0000
  C   C36       1.0  0.10840  0.43760  0.93010  1.0000
  H   H37       1.0  0.45360  0.42980  0.53100  1.0000
  H   H38       1.0  0.04640  0.57020  0.03100  1.0000
  H   H39       1.0  0.54640  0.92980  0.96900  1.0000
  H   H40       1.0  0.95360  0.07020  0.46900  1.0000
  H   H41       1.0  0.53100  0.45360  0.42980  1.0000
  H   H42       1.0  0.03100  0.04640  0.57020  1.0000
  H   H43       1.0  0.96900  0.54640  0.92980  1.0000
  H   H44       1.0  0.46900  0.95360  0.07020  1.0000
  H   H45       1.0  0.42980  0.53100  0.45360  1.0000
  H   H46       1.0  0.57020  0.03100  0.04640  1.0000
  H   H47       1.0  0.92980  0.96900  0.54640  1.0000
  H   H48       1.0  0.07020  0.46900  0.95360  1.0000
  H   H49       1.0  0.40450  0.35610  0.52950  1.0000
  H   H50       1.0  0.09550  0.64390  0.02950  1.0000
  H   H51       1.0  0.59550  0.85610  0.97050  1.0000
  H   H52       1.0  0.90450  0.14390  0.47050  1.0000
  H   H53       1.0  0.52950  0.40450  0.35610  1.0000
  H   H54       1.0  0.02950  0.09550  0.64390  1.0000
  H   H55       1.0  0.97050  0.59550  0.85610  1.0000
  H   H56       1.0  0.47050  0.90450  0.14390  1.0000
  H   H57       1.0  0.35610  0.52950  0.40450  1.0000
  H   H58       1.0  0.64390  0.02950  0.09550  1.0000
  H   H59       1.0  0.85610  0.97050  0.59550  1.0000
  H   H60       1.0  0.14390  0.47050  0.90450  1.0000
  C   C37       1.0  0.37340  0.42840  0.61310  1.0000
  C   C38       1.0  0.12660  0.57160  0.11310  1.0000
  C   C39       1.0  0.62660  0.92840  0.88690  1.0000
  C   C40       1.0  0.87340  0.07160  0.38690  1.0000
  C   C41       1.0  0.61310  0.37340  0.42840  1.0000
  C   C42       1.0  0.11310  0.12660  0.57160  1.0000
  C   C43       1.0  0.88690  0.62660  0.92840  1.0000
  C   C44       1.0  0.38690  0.87340  0.07160  1.0000
  C   C45       1.0  0.42840  0.61310  0.37340  1.0000
  C   C46       1.0  0.57160  0.11310  0.12660  1.0000
  C   C47       1.0  0.92840  0.88690  0.62660  1.0000
  C   C48       1.0  0.07160  0.38690  0.87340  1.0000
  H   H61       1.0  0.33780  0.45600  0.58100  1.0000
  H   H62       1.0  0.16220  0.54400  0.08100  1.0000
  H   H63       1.0  0.66220  0.95600  0.91900  1.0000
  H   H64       1.0  0.83780  0.04400  0.41900  1.0000
  H   H65       1.0  0.58100  0.33780  0.45600  1.0000
  H   H66       1.0  0.08100  0.16220  0.54400  1.0000
  H   H67       1.0  0.91900  0.66220  0.95600  1.0000
  H   H68       1.0  0.41900  0.83780  0.04400  1.0000
  H   H69       1.0  0.45600  0.58100  0.33780  1.0000
  H   H70       1.0  0.54400  0.08100  0.16220  1.0000
  H   H71       1.0  0.95600  0.91900  0.66220  1.0000
  H   H72       1.0  0.04400  0.41900  0.83780  1.0000
  C   C49       1.0  0.41180  0.48510  0.66390  1.0000
  C   C50       1.0  0.08820  0.51490  0.16390  1.0000
  C   C51       1.0  0.58820  0.98510  0.83610  1.0000
  C   C52       1.0  0.91180  0.01490  0.33610  1.0000
  C   C53       1.0  0.66390  0.41180  0.48510  1.0000
  C   C54       1.0  0.16390  0.08820  0.51490  1.0000
  C   C55       1.0  0.83610  0.58820  0.98510  1.0000
  C   C56       1.0  0.33610  0.91180  0.01490  1.0000
  C   C57       1.0  0.48510  0.66390  0.41180  1.0000
  C   C58       1.0  0.51490  0.16390  0.08820  1.0000
  C   C59       1.0  0.98510  0.83610  0.58820  1.0000
  C   C60       1.0  0.01490  0.33610  0.91180  1.0000
  H   H73       1.0  0.43250  0.52620  0.63420  1.0000
  H   H74       1.0  0.06750  0.47380  0.13420  1.0000
  H   H75       1.0  0.56750  0.02620  0.86580  1.0000
  H   H76       1.0  0.93250  0.97380  0.36580  1.0000
  H   H77       1.0  0.63420  0.43250  0.52620  1.0000
  H   H78       1.0  0.13420  0.06750  0.47380  1.0000
  H   H79       1.0  0.86580  0.56750  0.02620  1.0000
  H   H80       1.0  0.36580  0.93250  0.97380  1.0000
  H   H81       1.0  0.52620  0.63420  0.43250  1.0000
  H   H82       1.0  0.47380  0.13420  0.06750  1.0000
  H   H83       1.0  0.02620  0.86580  0.56750  1.0000
  H   H84       1.0  0.97380  0.36580  0.93250  1.0000
  H   H85       1.0  0.37570  0.50590  0.69960  1.0000
  H   H86       1.0  0.12430  0.49410  0.19960  1.0000
  H   H87       1.0  0.62430  0.00590  0.80040  1.0000
  H   H88       1.0  0.87570  0.99410  0.30040  1.0000
  H   H89       1.0  0.69960  0.37570  0.50590  1.0000
  H   H90       1.0  0.19960  0.12430  0.49410  1.0000
  H   H91       1.0  0.80040  0.62430  0.00590  1.0000
  H   H92       1.0  0.30040  0.87570  0.99410  1.0000
  H   H93       1.0  0.50590  0.69960  0.37570  1.0000
  H   H94       1.0  0.49410  0.19960  0.12430  1.0000
  H   H95       1.0  0.00590  0.80040  0.62430  1.0000
  H   H96       1.0  0.99410  0.30040  0.87570  1.0000
  C   C61       1.0  0.47260  0.44540  0.70440  1.0000
  C   C62       1.0  0.02740  0.55460  0.20440  1.0000
  C   C63       1.0  0.52740  0.94540  0.79560  1.0000
  C   C64       1.0  0.97260  0.05460  0.29560  1.0000
  C   C65       1.0  0.70440  0.47260  0.44540  1.0000
  C   C66       1.0  0.20440  0.02740  0.55460  1.0000
  C   C67       1.0  0.79560  0.52740  0.94540  1.0000
  C   C68       1.0  0.29560  0.97260  0.05460  1.0000
  C   C69       1.0  0.44540  0.70440  0.47260  1.0000
  C   C70       1.0  0.55460  0.20440  0.02740  1.0000
  C   C71       1.0  0.94540  0.79560  0.52740  1.0000
  C   C72       1.0  0.05460  0.29560  0.97260  1.0000
  H   H97       1.0  0.45000  0.40680  0.73600  1.0000
  H   H98       1.0  0.05000  0.59320  0.23600  1.0000
  H   H99       1.0  0.55000  0.90680  0.76400  1.0000
  H   H100      1.0  0.95000  0.09320  0.26400  1.0000
  H   H101      1.0  0.73600  0.45000  0.40680  1.0000
  H   H102      1.0  0.23600  0.05000  0.59320  1.0000
  H   H103      1.0  0.76400  0.55000  0.90680  1.0000
  H   H104      1.0  0.26400  0.95000  0.09320  1.0000
  H   H105      1.0  0.40680  0.73600  0.45000  1.0000
  H   H106      1.0  0.59320  0.23600  0.05000  1.0000
  H   H107      1.0  0.90680  0.76400  0.55000  1.0000
  H   H108      1.0  0.09320  0.26400  0.95000  1.0000
  H   H109      1.0  0.49760  0.48110  0.73750  1.0000
  H   H110      1.0  0.00240  0.51890  0.23750  1.0000
  H   H111      1.0  0.50240  0.98110  0.76250  1.0000
  H   H112      1.0  0.99760  0.01890  0.26250  1.0000
  H   H113      1.0  0.73750  0.49760  0.48110  1.0000
  H   H114      1.0  0.23750  0.00240  0.51890  1.0000
  H   H115      1.0  0.76250  0.50240  0.98110  1.0000
  H   H116      1.0  0.26250  0.99760  0.01890  1.0000
  H   H117      1.0  0.48110  0.73750  0.49760  1.0000
  H   H118      1.0  0.51890  0.23750  0.00240  1.0000
  H   H119      1.0  0.98110  0.76250  0.50240  1.0000
  H   H120      1.0  0.01890  0.26250  0.99760  1.0000
  C   C73       1.0  0.58980  0.37190  0.70480  1.0000
  C   C74       1.0  0.91020  0.62810  0.20480  1.0000
  C   C75       1.0  0.41020  0.87190  0.79520  1.0000
  C   C76       1.0  0.08980  0.12810  0.29520  1.0000
  C   C77       1.0  0.70480  0.58980  0.37190  1.0000
  C   C78       1.0  0.20480  0.91020  0.62810  1.0000
  C   C79       1.0  0.79520  0.41020  0.87190  1.0000
  C   C80       1.0  0.29520  0.08980  0.12810  1.0000
  C   C81       1.0  0.37190  0.70480  0.58980  1.0000
  C   C82       1.0  0.62810  0.20480  0.91020  1.0000
  C   C83       1.0  0.87190  0.79520  0.41020  1.0000
  C   C84       1.0  0.12810  0.29520  0.08980  1.0000
  C   C85       1.0  0.32980  0.37200  0.65670  1.0000
  C   C86       1.0  0.17020  0.62800  0.15670  1.0000
  C   C87       1.0  0.67020  0.87200  0.84330  1.0000
  C   C88       1.0  0.82980  0.12800  0.34330  1.0000
  C   C89       1.0  0.65670  0.32980  0.37200  1.0000
  C   C90       1.0  0.15670  0.17020  0.62800  1.0000
  C   C91       1.0  0.84330  0.67020  0.87200  1.0000
  C   C92       1.0  0.34330  0.82980  0.12800  1.0000
  C   C93       1.0  0.37200  0.65670  0.32980  1.0000
  C   C94       1.0  0.62800  0.15670  0.17020  1.0000
  C   C95       1.0  0.87200  0.84330  0.67020  1.0000
  C   C96       1.0  0.12800  0.34330  0.82980  1.0000
