data_image0
_chemical_formula_structural       U8O64C48H8C16H8C16H8C16H16C16H32C16H64C8H32C8H24C8H8C8O32U8O32C16H8C16H16C16H32C8H24C8O16U8O48C32H8C16H8C16H16C16H32C16H32C8H32C8H24C8H8C8O32U8O32C16H8C16H32
_chemical_formula_sum              "U32 O256 C384 H480"
_cell_length_a       33.764
_cell_length_b       16.2336
_cell_length_c       29.3892
_cell_angle_alpha    90
_cell_angle_beta     100.032
_cell_angle_gamma    90

_space_group_name_H-M_alt    "P 1"
_space_group_IT_number       1

loop_
  _space_group_symop_operation_xyz
  'x, y, z'

loop_
  _atom_site_type_symbol
  _atom_site_label
  _atom_site_symmetry_multiplicity
  _atom_site_fract_x
  _atom_site_fract_y
  _atom_site_fract_z
  _atom_site_occupancy
  U   U1        1.0  0.50414  0.76283  0.37193  1.0000
  U   U2        1.0  0.49586  0.76283  0.12807  1.0000
  U   U3        1.0  0.00414  0.26283  0.37193  1.0000
  U   U4        1.0  0.99586  0.26283  0.12807  1.0000
  U   U5        1.0  0.49586  0.23717  0.62807  1.0000
  U   U6        1.0  0.50414  0.23717  0.87193  1.0000
  U   U7        1.0  0.99586  0.73717  0.62807  1.0000
  U   U8        1.0  0.00414  0.73717  0.87193  1.0000
  O   O1        1.0  0.53960  0.82660  0.40660  1.0000
  O   O2        1.0  0.46040  0.82660  0.09340  1.0000
  O   O3        1.0  0.03960  0.32660  0.40660  1.0000
  O   O4        1.0  0.96040  0.32660  0.09340  1.0000
  O   O5        1.0  0.46040  0.17340  0.59340  1.0000
  O   O6        1.0  0.53960  0.17340  0.90660  1.0000
  O   O7        1.0  0.96040  0.67340  0.59340  1.0000
  O   O8        1.0  0.03960  0.67340  0.90660  1.0000
  O   O9        1.0  0.46950  0.69670  0.33720  1.0000
  O   O10       1.0  0.53050  0.69670  0.16280  1.0000
  O   O11       1.0  0.96950  0.19670  0.33720  1.0000
  O   O12       1.0  0.03050  0.19670  0.16280  1.0000
  O   O13       1.0  0.53050  0.30330  0.66280  1.0000
  O   O14       1.0  0.46950  0.30330  0.83720  1.0000
  O   O15       1.0  0.03050  0.80330  0.66280  1.0000
  O   O16       1.0  0.96950  0.80330  0.83720  1.0000
  O   O17       1.0  0.55830  0.69510  0.34280  1.0000
  O   O18       1.0  0.44170  0.69510  0.15720  1.0000
  O   O19       1.0  0.05830  0.19510  0.34280  1.0000
  O   O20       1.0  0.94170  0.19510  0.15720  1.0000
  O   O21       1.0  0.44170  0.30490  0.65720  1.0000
  O   O22       1.0  0.55830  0.30490  0.84280  1.0000
  O   O23       1.0  0.94170  0.80490  0.65720  1.0000
  O   O24       1.0  0.05830  0.80490  0.84280  1.0000
  O   O25       1.0  0.53400  0.80200  0.30430  1.0000
  O   O26       1.0  0.46600  0.80200  0.19570  1.0000
  O   O27       1.0  0.03400  0.30200  0.30430  1.0000
  O   O28       1.0  0.96600  0.30200  0.19570  1.0000
  O   O29       1.0  0.46600  0.19800  0.69570  1.0000
  O   O30       1.0  0.53400  0.19800  0.80430  1.0000
  O   O31       1.0  0.96600  0.69800  0.69570  1.0000
  O   O32       1.0  0.03400  0.69800  0.80430  1.0000
  O   O33       1.0  0.46880  0.88370  0.33140  1.0000
  O   O34       1.0  0.53120  0.88370  0.16860  1.0000
  O   O35       1.0  0.96880  0.38370  0.33140  1.0000
  O   O36       1.0  0.03120  0.38370  0.16860  1.0000
  O   O37       1.0  0.53120  0.11630  0.66860  1.0000
  O   O38       1.0  0.46880  0.11630  0.83140  1.0000
  O   O39       1.0  0.03120  0.61630  0.66860  1.0000
  O   O40       1.0  0.96880  0.61630  0.83140  1.0000
  O   O41       1.0  0.44820  0.83870  0.39340  1.0000
  O   O42       1.0  0.55180  0.83870  0.10660  1.0000
  O   O43       1.0  0.94820  0.33870  0.39340  1.0000
  O   O44       1.0  0.05180  0.33870  0.10660  1.0000
  O   O45       1.0  0.55180  0.16130  0.60660  1.0000
  O   O46       1.0  0.44820  0.16130  0.89340  1.0000
  O   O47       1.0  0.05180  0.66130  0.60660  1.0000
  O   O48       1.0  0.94820  0.66130  0.89340  1.0000
  O   O49       1.0  0.48410  0.70410  0.44230  1.0000
  O   O50       1.0  0.51590  0.70410  0.05770  1.0000
  O   O51       1.0  0.98410  0.20410  0.44230  1.0000
  O   O52       1.0  0.01590  0.20410  0.05770  1.0000
  O   O53       1.0  0.51590  0.29590  0.55770  1.0000
  O   O54       1.0  0.48410  0.29590  0.94230  1.0000
  O   O55       1.0  0.01590  0.79590  0.55770  1.0000
  O   O56       1.0  0.98410  0.79590  0.94230  1.0000
  O   O57       1.0  0.53350  0.64200  0.41650  1.0000
  O   O58       1.0  0.46650  0.64200  0.08350  1.0000
  O   O59       1.0  0.03350  0.14200  0.41650  1.0000
  O   O60       1.0  0.96650  0.14200  0.08350  1.0000
  O   O61       1.0  0.46650  0.35800  0.58350  1.0000
  O   O62       1.0  0.53350  0.35800  0.91650  1.0000
  O   O63       1.0  0.96650  0.85800  0.58350  1.0000
  O   O64       1.0  0.03350  0.85800  0.91650  1.0000
  C   C1        1.0  0.55770  0.74300  0.30790  1.0000
  C   C2        1.0  0.44230  0.74300  0.19210  1.0000
  C   C3        1.0  0.05770  0.24300  0.30790  1.0000
  C   C4        1.0  0.94230  0.24300  0.19210  1.0000
  C   C5        1.0  0.44230  0.25700  0.69210  1.0000
  C   C6        1.0  0.55770  0.25700  0.80790  1.0000
  C   C7        1.0  0.94230  0.75700  0.69210  1.0000
  C   C8        1.0  0.05770  0.75700  0.80790  1.0000
  C   C9        1.0  0.44440  0.88640  0.36020  1.0000
  C   C10       1.0  0.55560  0.88640  0.13980  1.0000
  C   C11       1.0  0.94440  0.38640  0.36020  1.0000
  C   C12       1.0  0.05560  0.38640  0.13980  1.0000
  C   C13       1.0  0.55560  0.11360  0.63980  1.0000
  C   C14       1.0  0.44440  0.11360  0.86020  1.0000
  C   C15       1.0  0.05560  0.61360  0.63980  1.0000
  C   C16       1.0  0.94440  0.61360  0.86020  1.0000
  C   C17       1.0  0.50840  0.64550  0.44520  1.0000
  C   C18       1.0  0.49160  0.64550  0.05480  1.0000
  C   C19       1.0  0.00840  0.14550  0.44520  1.0000
  C   C20       1.0  0.99160  0.14550  0.05480  1.0000
  C   C21       1.0  0.49160  0.35450  0.55480  1.0000
  C   C22       1.0  0.50840  0.35450  0.94520  1.0000
  C   C23       1.0  0.99160  0.85450  0.55480  1.0000
  C   C24       1.0  0.00840  0.85450  0.94520  1.0000
  C   C25       1.0  0.58540  0.72790  0.27410  1.0000
  C   C26       1.0  0.41460  0.72790  0.22590  1.0000
  C   C27       1.0  0.08540  0.22790  0.27410  1.0000
  C   C28       1.0  0.91460  0.22790  0.22590  1.0000
  C   C29       1.0  0.41460  0.27210  0.72590  1.0000
  C   C30       1.0  0.58540  0.27210  0.77410  1.0000
  C   C31       1.0  0.91460  0.77210  0.72590  1.0000
  C   C32       1.0  0.08540  0.77210  0.77410  1.0000
  C   C33       1.0  0.40910  0.94810  0.35050  1.0000
  C   C34       1.0  0.59090  0.94810  0.14950  1.0000
  C   C35       1.0  0.90910  0.44810  0.35050  1.0000
  C   C36       1.0  0.09090  0.44810  0.14950  1.0000
  C   C37       1.0  0.59090  0.05190  0.64950  1.0000
  C   C38       1.0  0.40910  0.05190  0.85050  1.0000
  C   C39       1.0  0.09090  0.55190  0.64950  1.0000
  C   C40       1.0  0.90910  0.55190  0.85050  1.0000
  C   C41       1.0  0.51090  0.58020  0.48330  1.0000
  C   C42       1.0  0.48910  0.58020  0.01670  1.0000
  C   C43       1.0  0.01090  0.08020  0.48330  1.0000
  C   C44       1.0  0.98910  0.08020  0.01670  1.0000
  C   C45       1.0  0.48910  0.41980  0.51670  1.0000
  C   C46       1.0  0.51090  0.41980  0.98330  1.0000
  C   C47       1.0  0.98910  0.91980  0.51670  1.0000
  C   C48       1.0  0.01090  0.91980  0.98330  1.0000
  H   H1        1.0  0.56840  0.70730  0.24510  1.0000
  H   H2        1.0  0.43160  0.70730  0.25490  1.0000
  H   H3        1.0  0.06840  0.20730  0.24510  1.0000
  H   H4        1.0  0.93160  0.20730  0.25490  1.0000
  H   H5        1.0  0.43160  0.29270  0.75490  1.0000
  H   H6        1.0  0.56840  0.29270  0.74510  1.0000
  H   H7        1.0  0.93160  0.79270  0.75490  1.0000
  H   H8        1.0  0.06840  0.79270  0.74510  1.0000
  C   C49       1.0  0.60570  0.80640  0.26150  1.0000
  C   C50       1.0  0.39430  0.80640  0.23850  1.0000
  C   C51       1.0  0.10570  0.30640  0.26150  1.0000
  C   C52       1.0  0.89430  0.30640  0.23850  1.0000
  C   C53       1.0  0.39430  0.19360  0.73850  1.0000
  C   C54       1.0  0.60570  0.19360  0.76150  1.0000
  C   C55       1.0  0.89430  0.69360  0.73850  1.0000
  C   C56       1.0  0.10570  0.69360  0.76150  1.0000
  C   C57       1.0  0.61710  0.66050  0.29020  1.0000
  C   C58       1.0  0.38290  0.66050  0.20980  1.0000
  C   C59       1.0  0.11710  0.16050  0.29020  1.0000
  C   C60       1.0  0.88290  0.16050  0.20980  1.0000
  C   C61       1.0  0.38290  0.33950  0.70980  1.0000
  C   C62       1.0  0.61710  0.33950  0.79020  1.0000
  C   C63       1.0  0.88290  0.83950  0.70980  1.0000
  C   C64       1.0  0.11710  0.83950  0.79020  1.0000
  H   H9        1.0  0.39690  0.94390  0.31700  1.0000
  H   H10       1.0  0.60310  0.94390  0.18300  1.0000
  H   H11       1.0  0.89690  0.44390  0.31700  1.0000
  H   H12       1.0  0.10310  0.44390  0.18300  1.0000
  H   H13       1.0  0.60310  0.05610  0.68300  1.0000
  H   H14       1.0  0.39690  0.05610  0.81700  1.0000
  H   H15       1.0  0.10310  0.55610  0.68300  1.0000
  H   H16       1.0  0.89690  0.55610  0.81700  1.0000
  C   C65       1.0  0.42460  0.03500  0.35940  1.0000
  C   C66       1.0  0.57540  0.03500  0.14060  1.0000
  C   C67       1.0  0.92460  0.53500  0.35940  1.0000
  C   C68       1.0  0.07540  0.53500  0.14060  1.0000
  C   C69       1.0  0.57540  0.96500  0.64060  1.0000
  C   C70       1.0  0.42460  0.96500  0.85940  1.0000
  C   C71       1.0  0.07540  0.46500  0.64060  1.0000
  C   C72       1.0  0.92460  0.46500  0.85940  1.0000
  C   C73       1.0  0.37710  0.92640  0.37810  1.0000
  C   C74       1.0  0.62290  0.92640  0.12190  1.0000
  C   C75       1.0  0.87710  0.42640  0.37810  1.0000
  C   C76       1.0  0.12290  0.42640  0.12190  1.0000
  C   C77       1.0  0.62290  0.07360  0.62190  1.0000
  C   C78       1.0  0.37710  0.07360  0.87810  1.0000
  C   C79       1.0  0.12290  0.57360  0.62190  1.0000
  C   C80       1.0  0.87710  0.57360  0.87810  1.0000
  H   H17       1.0  0.52920  0.60120  0.51140  1.0000
  H   H18       1.0  0.47080  0.60120  0.98860  1.0000
  H   H19       1.0  0.02920  0.10120  0.51140  1.0000
  H   H20       1.0  0.97080  0.10120  0.98860  1.0000
  H   H21       1.0  0.47080  0.39880  0.48860  1.0000
  H   H22       1.0  0.52920  0.39880  0.01140  1.0000
  H   H23       1.0  0.97080  0.89880  0.48860  1.0000
  H   H24       1.0  0.02920  0.89880  0.01140  1.0000
  C   C81       1.0  0.46950  0.56680  0.49560  1.0000
  C   C82       1.0  0.53050  0.56680  0.00440  1.0000
  C   C83       1.0  0.96950  0.06680  0.49560  1.0000
  C   C84       1.0  0.03050  0.06680  0.00440  1.0000
  C   C85       1.0  0.53050  0.43320  0.50440  1.0000
  C   C86       1.0  0.46950  0.43320  0.99560  1.0000
  C   C87       1.0  0.03050  0.93320  0.50440  1.0000
  C   C88       1.0  0.96950  0.93320  0.99560  1.0000
  C   C89       1.0  0.52830  0.50100  0.46840  1.0000
  C   C90       1.0  0.47170  0.50100  0.03160  1.0000
  C   C91       1.0  0.02830  0.00100  0.46840  1.0000
  C   C92       1.0  0.97170  0.00100  0.03160  1.0000
  C   C93       1.0  0.47170  0.49900  0.53160  1.0000
  C   C94       1.0  0.52830  0.49900  0.96840  1.0000
  C   C95       1.0  0.97170  0.99900  0.53160  1.0000
  C   C96       1.0  0.02830  0.99900  0.96840  1.0000
  H   H25       1.0  0.62210  0.83030  0.28970  1.0000
  H   H26       1.0  0.37790  0.83030  0.21030  1.0000
  H   H27       1.0  0.12210  0.33030  0.28970  1.0000
  H   H28       1.0  0.87790  0.33030  0.21030  1.0000
  H   H29       1.0  0.37790  0.16970  0.71030  1.0000
  H   H30       1.0  0.62210  0.16970  0.78970  1.0000
  H   H31       1.0  0.87790  0.66970  0.71030  1.0000
  H   H32       1.0  0.12210  0.66970  0.78970  1.0000
  H   H33       1.0  0.58500  0.84720  0.24870  1.0000
  H   H34       1.0  0.41500  0.84720  0.25130  1.0000
  H   H35       1.0  0.08500  0.34720  0.24870  1.0000
  H   H36       1.0  0.91500  0.34720  0.25130  1.0000
  H   H37       1.0  0.41500  0.15280  0.75130  1.0000
  H   H38       1.0  0.58500  0.15280  0.74870  1.0000
  H   H39       1.0  0.91500  0.65280  0.75130  1.0000
  H   H40       1.0  0.08500  0.65280  0.74870  1.0000
  C   C97       1.0  0.63270  0.78850  0.22610  1.0000
  C   C98       1.0  0.36730  0.78850  0.27390  1.0000
  C   C99       1.0  0.13270  0.28850  0.22610  1.0000
  C   C100      1.0  0.86730  0.28850  0.27390  1.0000
  C   C101      1.0  0.36730  0.21150  0.77390  1.0000
  C   C102      1.0  0.63270  0.21150  0.72610  1.0000
  C   C103      1.0  0.86730  0.71150  0.77390  1.0000
  C   C104      1.0  0.13270  0.71150  0.72610  1.0000
  C   C105      1.0  0.64040  0.64140  0.25180  1.0000
  C   C106      1.0  0.35960  0.64140  0.24820  1.0000
  C   C107      1.0  0.14040  0.14140  0.25180  1.0000
  C   C108      1.0  0.85960  0.14140  0.24820  1.0000
  C   C109      1.0  0.35960  0.35860  0.74820  1.0000
  C   C110      1.0  0.64040  0.35860  0.75180  1.0000
  C   C111      1.0  0.85960  0.85860  0.74820  1.0000
  C   C112      1.0  0.14040  0.85860  0.75180  1.0000
  H   H41       1.0  0.63580  0.67960  0.31790  1.0000
  H   H42       1.0  0.36420  0.67960  0.18210  1.0000
  H   H43       1.0  0.13580  0.17960  0.31790  1.0000
  H   H44       1.0  0.86420  0.17960  0.18210  1.0000
  H   H45       1.0  0.36420  0.32040  0.68210  1.0000
  H   H46       1.0  0.63580  0.32040  0.81790  1.0000
  H   H47       1.0  0.86420  0.82040  0.68210  1.0000
  H   H48       1.0  0.13580  0.82040  0.81790  1.0000
  H   H49       1.0  0.60360  0.60990  0.29850  1.0000
  H   H50       1.0  0.39640  0.60990  0.20150  1.0000
  H   H51       1.0  0.10360  0.10990  0.29850  1.0000
  H   H52       1.0  0.89640  0.10990  0.20150  1.0000
  H   H53       1.0  0.39640  0.39010  0.70150  1.0000
  H   H54       1.0  0.60360  0.39010  0.79850  1.0000
  H   H55       1.0  0.89640  0.89010  0.70150  1.0000
  H   H56       1.0  0.10360  0.89010  0.79850  1.0000
  H   H57       1.0  0.44360  0.04810  0.33830  1.0000
  H   H58       1.0  0.55640  0.04810  0.16170  1.0000
  H   H59       1.0  0.94360  0.54810  0.33830  1.0000
  H   H60       1.0  0.05640  0.54810  0.16170  1.0000
  H   H61       1.0  0.55640  0.95190  0.66170  1.0000
  H   H62       1.0  0.44360  0.95190  0.83830  1.0000
  H   H63       1.0  0.05640  0.45190  0.66170  1.0000
  H   H64       1.0  0.94360  0.45190  0.83830  1.0000
  H   H65       1.0  0.43930  0.03930  0.39160  1.0000
  H   H66       1.0  0.56070  0.03930  0.10840  1.0000
  H   H67       1.0  0.93930  0.53930  0.39160  1.0000
  H   H68       1.0  0.06070  0.53930  0.10840  1.0000
  H   H69       1.0  0.56070  0.96070  0.60840  1.0000
  H   H70       1.0  0.43930  0.96070  0.89160  1.0000
  H   H71       1.0  0.06070  0.46070  0.60840  1.0000
  H   H72       1.0  0.93930  0.46070  0.89160  1.0000
  C   C113      1.0  0.38960  0.09720  0.35190  1.0000
  C   C114      1.0  0.61040  0.09720  0.14810  1.0000
  C   C115      1.0  0.88960  0.59720  0.35190  1.0000
  C   C116      1.0  0.11040  0.59720  0.14810  1.0000
  C   C117      1.0  0.61040  0.90280  0.64810  1.0000
  C   C118      1.0  0.38960  0.90280  0.85190  1.0000
  C   C119      1.0  0.11040  0.40280  0.64810  1.0000
  C   C120      1.0  0.88960  0.40280  0.85190  1.0000
  C   C121      1.0  0.34230  0.98900  0.36710  1.0000
  C   C122      1.0  0.65770  0.98900  0.13290  1.0000
  C   C123      1.0  0.84230  0.48900  0.36710  1.0000
  C   C124      1.0  0.15770  0.48900  0.13290  1.0000
  C   C125      1.0  0.65770  0.01100  0.63290  1.0000
  C   C126      1.0  0.34230  0.01100  0.86710  1.0000
  C   C127      1.0  0.15770  0.51100  0.63290  1.0000
  C   C128      1.0  0.84230  0.51100  0.86710  1.0000
  H   H73       1.0  0.38850  0.92790  0.41150  1.0000
  H   H74       1.0  0.61150  0.92790  0.08850  1.0000
  H   H75       1.0  0.88850  0.42790  0.41150  1.0000
  H   H76       1.0  0.11150  0.42790  0.08850  1.0000
  H   H77       1.0  0.61150  0.07210  0.58850  1.0000
  H   H78       1.0  0.38850  0.07210  0.91150  1.0000
  H   H79       1.0  0.11150  0.57210  0.58850  1.0000
  H   H80       1.0  0.88850  0.57210  0.91150  1.0000
  H   H81       1.0  0.36700  0.87010  0.37010  1.0000
  H   H82       1.0  0.63300  0.87010  0.12990  1.0000
  H   H83       1.0  0.86700  0.37010  0.37010  1.0000
  H   H84       1.0  0.13300  0.37010  0.12990  1.0000
  H   H85       1.0  0.63300  0.12990  0.62990  1.0000
  H   H86       1.0  0.36700  0.12990  0.87010  1.0000
  H   H87       1.0  0.13300  0.62990  0.62990  1.0000
  H   H88       1.0  0.86700  0.62990  0.87010  1.0000
  H   H89       1.0  0.45020  0.55110  0.46760  1.0000
  H   H90       1.0  0.54980  0.55110  0.03240  1.0000
  H   H91       1.0  0.95020  0.05110  0.46760  1.0000
  H   H92       1.0  0.04980  0.05110  0.03240  1.0000
  H   H93       1.0  0.54980  0.44890  0.53240  1.0000
  H   H94       1.0  0.45020  0.44890  0.96760  1.0000
  H   H95       1.0  0.04980  0.94890  0.53240  1.0000
  H   H96       1.0  0.95020  0.94890  0.96760  1.0000
  H   H97       1.0  0.45990  0.61840  0.50800  1.0000
  H   H98       1.0  0.54010  0.61840  0.99200  1.0000
  H   H99       1.0  0.95990  0.11840  0.50800  1.0000
  H   H100      1.0  0.04010  0.11840  0.99200  1.0000
  H   H101      1.0  0.54010  0.38160  0.49200  1.0000
  H   H102      1.0  0.45990  0.38160  0.00800  1.0000
  H   H103      1.0  0.04010  0.88160  0.49200  1.0000
  H   H104      1.0  0.95990  0.88160  0.00800  1.0000
  H   H105      1.0  0.51150  0.48190  0.43930  1.0000
  H   H106      1.0  0.48850  0.48190  0.06070  1.0000
  H   H107      1.0  0.01150  0.98190  0.43930  1.0000
  H   H108      1.0  0.98850  0.98190  0.06070  1.0000
  H   H109      1.0  0.48850  0.51810  0.56070  1.0000
  H   H110      1.0  0.51150  0.51810  0.93930  1.0000
  H   H111      1.0  0.98850  0.01810  0.56070  1.0000
  H   H112      1.0  0.01150  0.01810  0.93930  1.0000
  H   H113      1.0  0.55560  0.51190  0.46210  1.0000
  H   H114      1.0  0.44440  0.51190  0.03790  1.0000
  H   H115      1.0  0.05560  0.01190  0.46210  1.0000
  H   H116      1.0  0.94440  0.01190  0.03790  1.0000
  H   H117      1.0  0.44440  0.48810  0.53790  1.0000
  H   H118      1.0  0.55560  0.48810  0.96210  1.0000
  H   H119      1.0  0.94440  0.98810  0.53790  1.0000
  H   H120      1.0  0.05560  0.98810  0.96210  1.0000
  H   H121      1.0  0.61530  0.77640  0.19610  1.0000
  H   H122      1.0  0.38470  0.77640  0.30390  1.0000
  H   H123      1.0  0.11530  0.27640  0.19610  1.0000
  H   H124      1.0  0.88470  0.27640  0.30390  1.0000
  H   H125      1.0  0.38470  0.22360  0.80390  1.0000
  H   H126      1.0  0.61530  0.22360  0.69610  1.0000
  H   H127      1.0  0.88470  0.72360  0.80390  1.0000
  H   H128      1.0  0.11530  0.72360  0.69610  1.0000
  H   H129      1.0  0.64820  0.83890  0.22210  1.0000
  H   H130      1.0  0.35180  0.83890  0.27790  1.0000
  H   H131      1.0  0.14820  0.33890  0.22210  1.0000
  H   H132      1.0  0.85180  0.33890  0.27790  1.0000
  H   H133      1.0  0.35180  0.16110  0.77790  1.0000
  H   H134      1.0  0.64820  0.16110  0.72210  1.0000
  H   H135      1.0  0.85180  0.66110  0.77790  1.0000
  H   H136      1.0  0.14820  0.66110  0.72210  1.0000
  C   C129      1.0  0.66180  0.71820  0.23790  1.0000
  C   C130      1.0  0.33820  0.71820  0.26210  1.0000
  C   C131      1.0  0.16180  0.21820  0.23790  1.0000
  C   C132      1.0  0.83820  0.21820  0.26210  1.0000
  C   C133      1.0  0.33820  0.28180  0.76210  1.0000
  C   C134      1.0  0.66180  0.28180  0.73790  1.0000
  C   C135      1.0  0.83820  0.78180  0.76210  1.0000
  C   C136      1.0  0.16180  0.78180  0.73790  1.0000
  H   H137      1.0  0.62180  0.62010  0.22460  1.0000
  H   H138      1.0  0.37820  0.62010  0.27540  1.0000
  H   H139      1.0  0.12180  0.12010  0.22460  1.0000
  H   H140      1.0  0.87820  0.12010  0.27540  1.0000
  H   H141      1.0  0.37820  0.37990  0.77540  1.0000
  H   H142      1.0  0.62180  0.37990  0.72460  1.0000
  H   H143      1.0  0.87820  0.87990  0.77540  1.0000
  H   H144      1.0  0.12180  0.87990  0.72460  1.0000
  H   H145      1.0  0.66060  0.59800  0.26230  1.0000
  H   H146      1.0  0.33940  0.59800  0.23770  1.0000
  H   H147      1.0  0.16060  0.09800  0.26230  1.0000
  H   H148      1.0  0.83940  0.09800  0.23770  1.0000
  H   H149      1.0  0.33940  0.40200  0.73770  1.0000
  H   H150      1.0  0.66060  0.40200  0.76230  1.0000
  H   H151      1.0  0.83940  0.90200  0.73770  1.0000
  H   H152      1.0  0.16060  0.90200  0.76230  1.0000
  H   H153      1.0  0.40000  0.15220  0.36260  1.0000
  H   H154      1.0  0.60000  0.15220  0.13740  1.0000
  H   H155      1.0  0.90000  0.65220  0.36260  1.0000
  H   H156      1.0  0.10000  0.65220  0.13740  1.0000
  H   H157      1.0  0.60000  0.84780  0.63740  1.0000
  H   H158      1.0  0.40000  0.84780  0.86260  1.0000
  H   H159      1.0  0.10000  0.34780  0.63740  1.0000
  H   H160      1.0  0.90000  0.34780  0.86260  1.0000
  H   H161      1.0  0.37880  0.10110  0.31840  1.0000
  H   H162      1.0  0.62120  0.10110  0.18160  1.0000
  H   H163      1.0  0.87880  0.60110  0.31840  1.0000
  H   H164      1.0  0.12120  0.60110  0.18160  1.0000
  H   H165      1.0  0.62120  0.89890  0.68160  1.0000
  H   H166      1.0  0.37880  0.89890  0.81840  1.0000
  H   H167      1.0  0.12120  0.39890  0.68160  1.0000
  H   H168      1.0  0.87880  0.39890  0.81840  1.0000
  C   C137      1.0  0.35720  0.07570  0.37580  1.0000
  C   C138      1.0  0.64280  0.07570  0.12420  1.0000
  C   C139      1.0  0.85720  0.57570  0.37580  1.0000
  C   C140      1.0  0.14280  0.57570  0.12420  1.0000
  C   C141      1.0  0.64280  0.92430  0.62420  1.0000
  C   C142      1.0  0.35720  0.92430  0.87580  1.0000
  C   C143      1.0  0.14280  0.42430  0.62420  1.0000
  C   C144      1.0  0.85720  0.42430  0.87580  1.0000
  H   H169      1.0  0.32930  0.98330  0.33440  1.0000
  H   H170      1.0  0.67070  0.98330  0.16560  1.0000
  H   H171      1.0  0.82930  0.48330  0.33440  1.0000
  H   H172      1.0  0.17070  0.48330  0.16560  1.0000
  H   H173      1.0  0.67070  0.01670  0.66560  1.0000
  H   H174      1.0  0.32930  0.01670  0.83440  1.0000
  H   H175      1.0  0.17070  0.51670  0.66560  1.0000
  H   H176      1.0  0.82930  0.51670  0.83440  1.0000
  H   H177      1.0  0.32180  0.97710  0.38670  1.0000
  H   H178      1.0  0.67820  0.97710  0.11330  1.0000
  H   H179      1.0  0.82180  0.47710  0.38670  1.0000
  H   H180      1.0  0.17820  0.47710  0.11330  1.0000
  H   H181      1.0  0.67820  0.02290  0.61330  1.0000
  H   H182      1.0  0.32180  0.02290  0.88670  1.0000
  H   H183      1.0  0.17820  0.52290  0.61330  1.0000
  H   H184      1.0  0.82180  0.52290  0.88670  1.0000
  H   H185      1.0  0.67270  0.70420  0.20930  1.0000
  H   H186      1.0  0.32730  0.70420  0.29070  1.0000
  H   H187      1.0  0.17270  0.20420  0.20930  1.0000
  H   H188      1.0  0.82730  0.20420  0.29070  1.0000
  H   H189      1.0  0.32730  0.29580  0.79070  1.0000
  H   H190      1.0  0.67270  0.29580  0.70930  1.0000
  H   H191      1.0  0.82730  0.79580  0.79070  1.0000
  H   H192      1.0  0.17270  0.79580  0.70930  1.0000
  C   C145      1.0  0.69700  0.73850  0.27510  1.0000
  C   C146      1.0  0.30300  0.73850  0.22490  1.0000
  C   C147      1.0  0.19700  0.23850  0.27510  1.0000
  C   C148      1.0  0.80300  0.23850  0.22490  1.0000
  C   C149      1.0  0.30300  0.26150  0.72490  1.0000
  C   C150      1.0  0.69700  0.26150  0.77510  1.0000
  C   C151      1.0  0.80300  0.76150  0.72490  1.0000
  C   C152      1.0  0.19700  0.76150  0.77510  1.0000
  H   H193      1.0  0.36900  0.07810  0.40950  1.0000
  H   H194      1.0  0.63100  0.07810  0.09050  1.0000
  H   H195      1.0  0.86900  0.57810  0.40950  1.0000
  H   H196      1.0  0.13100  0.57810  0.09050  1.0000
  H   H197      1.0  0.63100  0.92190  0.59050  1.0000
  H   H198      1.0  0.36900  0.92190  0.90950  1.0000
  H   H199      1.0  0.13100  0.42190  0.59050  1.0000
  H   H200      1.0  0.86900  0.42190  0.90950  1.0000
  C   C153      1.0  0.32280  0.13750  0.36900  1.0000
  C   C154      1.0  0.67720  0.13750  0.13100  1.0000
  C   C155      1.0  0.82280  0.63750  0.36900  1.0000
  C   C156      1.0  0.17720  0.63750  0.13100  1.0000
  C   C157      1.0  0.67720  0.86250  0.63100  1.0000
  C   C158      1.0  0.32280  0.86250  0.86900  1.0000
  C   C159      1.0  0.17720  0.36250  0.63100  1.0000
  C   C160      1.0  0.82280  0.36250  0.86900  1.0000
  O   O65       1.0  0.69680  0.79880  0.30160  1.0000
  O   O66       1.0  0.30320  0.79880  0.19840  1.0000
  O   O67       1.0  0.19680  0.29880  0.30160  1.0000
  O   O68       1.0  0.80320  0.29880  0.19840  1.0000
  O   O69       1.0  0.30320  0.20120  0.69840  1.0000
  O   O70       1.0  0.69680  0.20120  0.80160  1.0000
  O   O71       1.0  0.80320  0.70120  0.69840  1.0000
  O   O72       1.0  0.19680  0.70120  0.80160  1.0000
  O   O73       1.0  0.72660  0.68830  0.28080  1.0000
  O   O74       1.0  0.27340  0.68830  0.21920  1.0000
  O   O75       1.0  0.22660  0.18830  0.28080  1.0000
  O   O76       1.0  0.77340  0.18830  0.21920  1.0000
  O   O77       1.0  0.27340  0.31170  0.71920  1.0000
  O   O78       1.0  0.72660  0.31170  0.78080  1.0000
  O   O79       1.0  0.77340  0.81170  0.71920  1.0000
  O   O80       1.0  0.22660  0.81170  0.78080  1.0000
  O   O81       1.0  0.29760  0.13540  0.33060  1.0000
  O   O82       1.0  0.70240  0.13540  0.16940  1.0000
  O   O83       1.0  0.79760  0.63540  0.33060  1.0000
  O   O84       1.0  0.20240  0.63540  0.16940  1.0000
  O   O85       1.0  0.70240  0.86460  0.66940  1.0000
  O   O86       1.0  0.29760  0.86460  0.83060  1.0000
  O   O87       1.0  0.20240  0.36460  0.66940  1.0000
  O   O88       1.0  0.79760  0.36460  0.83060  1.0000
  O   O89       1.0  0.32040  0.19220  0.39810  1.0000
  O   O90       1.0  0.67960  0.19220  0.10190  1.0000
  O   O91       1.0  0.82040  0.69220  0.39810  1.0000
  O   O92       1.0  0.17960  0.69220  0.10190  1.0000
  O   O93       1.0  0.67960  0.80780  0.60190  1.0000
  O   O94       1.0  0.32040  0.80780  0.89810  1.0000
  O   O95       1.0  0.17960  0.30780  0.60190  1.0000
  O   O96       1.0  0.82040  0.30780  0.89810  1.0000
  U   U9        1.0  0.75713  0.75187  0.35421  1.0000
  U   U10       1.0  0.24287  0.75187  0.14579  1.0000
  U   U11       1.0  0.25713  0.25187  0.35421  1.0000
  U   U12       1.0  0.74287  0.25187  0.14579  1.0000
  U   U13       1.0  0.24287  0.24813  0.64579  1.0000
  U   U14       1.0  0.75713  0.24813  0.85421  1.0000
  U   U15       1.0  0.74287  0.74813  0.64579  1.0000
  U   U16       1.0  0.25713  0.74813  0.85421  1.0000
  O   O97       1.0  0.72900  0.68270  0.38130  1.0000
  O   O98       1.0  0.27100  0.68270  0.11870  1.0000
  O   O99       1.0  0.22900  0.18270  0.38130  1.0000
  O   O100      1.0  0.77100  0.18270  0.11870  1.0000
  O   O101      1.0  0.27100  0.31730  0.61870  1.0000
  O   O102      1.0  0.72900  0.31730  0.88130  1.0000
  O   O103      1.0  0.77100  0.81730  0.61870  1.0000
  O   O104      1.0  0.22900  0.81730  0.88130  1.0000
  O   O105      1.0  0.78520  0.82360  0.32720  1.0000
  O   O106      1.0  0.21480  0.82360  0.17280  1.0000
  O   O107      1.0  0.28520  0.32360  0.32720  1.0000
  O   O108      1.0  0.71480  0.32360  0.17280  1.0000
  O   O109      1.0  0.21480  0.17640  0.67280  1.0000
  O   O110      1.0  0.78520  0.17640  0.82720  1.0000
  O   O111      1.0  0.71480  0.67640  0.67280  1.0000
  O   O112      1.0  0.28520  0.67640  0.82720  1.0000
  O   O113      1.0  0.78040  0.81950  0.42840  1.0000
  O   O114      1.0  0.21960  0.81950  0.07160  1.0000
  O   O115      1.0  0.28040  0.31950  0.42840  1.0000
  O   O116      1.0  0.71960  0.31950  0.07160  1.0000
  O   O117      1.0  0.21960  0.18050  0.57160  1.0000
  O   O118      1.0  0.78040  0.18050  0.92840  1.0000
  O   O119      1.0  0.71960  0.68050  0.57160  1.0000
  O   O120      1.0  0.28040  0.68050  0.92840  1.0000
  O   O121      1.0  0.72470  0.86960  0.38660  1.0000
  O   O122      1.0  0.27530  0.86960  0.11340  1.0000
  O   O123      1.0  0.22470  0.36960  0.38660  1.0000
  O   O124      1.0  0.77530  0.36960  0.11340  1.0000
  O   O125      1.0  0.27530  0.13040  0.61340  1.0000
  O   O126      1.0  0.72470  0.13040  0.88660  1.0000
  O   O127      1.0  0.77530  0.63040  0.61340  1.0000
  O   O128      1.0  0.22470  0.63040  0.88660  1.0000
  C   C161      1.0  0.75180  0.87070  0.42170  1.0000
  C   C162      1.0  0.24820  0.87070  0.07830  1.0000
  C   C163      1.0  0.25180  0.37070  0.42170  1.0000
  C   C164      1.0  0.74820  0.37070  0.07830  1.0000
  C   C165      1.0  0.24820  0.12930  0.57830  1.0000
  C   C166      1.0  0.75180  0.12930  0.92170  1.0000
  C   C167      1.0  0.74820  0.62930  0.57830  1.0000
  C   C168      1.0  0.25180  0.62930  0.92170  1.0000
  C   C169      1.0  0.75100  0.93610  0.45970  1.0000
  C   C170      1.0  0.24900  0.93610  0.04030  1.0000
  C   C171      1.0  0.25100  0.43610  0.45970  1.0000
  C   C172      1.0  0.74900  0.43610  0.04030  1.0000
  C   C173      1.0  0.24900  0.06390  0.54030  1.0000
  C   C174      1.0  0.75100  0.06390  0.95970  1.0000
  C   C175      1.0  0.74900  0.56390  0.54030  1.0000
  C   C176      1.0  0.25100  0.56390  0.95970  1.0000
  H   H201      1.0  0.77960  0.94800  0.47360  1.0000
  H   H202      1.0  0.22040  0.94800  0.02640  1.0000
  H   H203      1.0  0.27960  0.44800  0.47360  1.0000
  H   H204      1.0  0.72040  0.44800  0.02640  1.0000
  H   H205      1.0  0.22040  0.05200  0.52640  1.0000
  H   H206      1.0  0.77960  0.05200  0.97360  1.0000
  H   H207      1.0  0.72040  0.55200  0.52640  1.0000
  H   H208      1.0  0.27960  0.55200  0.97360  1.0000
  C   C177      1.0  0.73210  0.01670  0.44280  1.0000
  C   C178      1.0  0.26790  0.01670  0.05720  1.0000
  C   C179      1.0  0.23210  0.51670  0.44280  1.0000
  C   C180      1.0  0.76790  0.51670  0.05720  1.0000
  C   C181      1.0  0.26790  0.98330  0.55720  1.0000
  C   C182      1.0  0.73210  0.98330  0.94280  1.0000
  C   C183      1.0  0.76790  0.48330  0.55720  1.0000
  C   C184      1.0  0.23210  0.48330  0.94280  1.0000
  C   C185      1.0  0.73120  0.90140  0.49750  1.0000
  C   C186      1.0  0.26880  0.90140  0.00250  1.0000
  C   C187      1.0  0.23120  0.40140  0.49750  1.0000
  C   C188      1.0  0.76880  0.40140  0.00250  1.0000
  C   C189      1.0  0.26880  0.09860  0.50250  1.0000
  C   C190      1.0  0.73120  0.09860  0.99750  1.0000
  C   C191      1.0  0.76880  0.59860  0.50250  1.0000
  C   C192      1.0  0.23120  0.59860  0.99750  1.0000
  H   H209      1.0  0.70350  0.00770  0.42910  1.0000
  H   H210      1.0  0.29650  0.00770  0.07090  1.0000
  H   H211      1.0  0.20350  0.50770  0.42910  1.0000
  H   H212      1.0  0.79650  0.50770  0.07090  1.0000
  H   H213      1.0  0.29650  0.99230  0.57090  1.0000
  H   H214      1.0  0.70350  0.99230  0.92910  1.0000
  H   H215      1.0  0.79650  0.49230  0.57090  1.0000
  H   H216      1.0  0.20350  0.49230  0.92910  1.0000
  H   H217      1.0  0.74590  0.03910  0.41840  1.0000
  H   H218      1.0  0.25410  0.03910  0.08160  1.0000
  H   H219      1.0  0.24590  0.53910  0.41840  1.0000
  H   H220      1.0  0.75410  0.53910  0.08160  1.0000
  H   H221      1.0  0.25410  0.96090  0.58160  1.0000
  H   H222      1.0  0.74590  0.96090  0.91840  1.0000
  H   H223      1.0  0.75410  0.46090  0.58160  1.0000
  H   H224      1.0  0.24590  0.46090  0.91840  1.0000
  C   C193      1.0  0.73500  0.07830  0.48220  1.0000
  C   C194      1.0  0.26500  0.07830  0.01780  1.0000
  C   C195      1.0  0.23500  0.57830  0.48220  1.0000
  C   C196      1.0  0.76500  0.57830  0.01780  1.0000
  C   C197      1.0  0.26500  0.92170  0.51780  1.0000
  C   C198      1.0  0.73500  0.92170  0.98220  1.0000
  C   C199      1.0  0.76500  0.42170  0.51780  1.0000
  C   C200      1.0  0.23500  0.42170  0.98220  1.0000
  C   C201      1.0  0.73480  0.96130  0.53800  1.0000
  C   C202      1.0  0.26520  0.96130  0.96200  1.0000
  C   C203      1.0  0.23480  0.46130  0.53800  1.0000
  C   C204      1.0  0.76520  0.46130  0.96200  1.0000
  C   C205      1.0  0.26520  0.03870  0.46200  1.0000
  C   C206      1.0  0.73480  0.03870  0.03800  1.0000
  C   C207      1.0  0.76520  0.53870  0.46200  1.0000
  C   C208      1.0  0.23480  0.53870  0.03800  1.0000
  H   H225      1.0  0.74420  0.84850  0.50830  1.0000
  H   H226      1.0  0.25580  0.84850  0.99170  1.0000
  H   H227      1.0  0.24420  0.34850  0.50830  1.0000
  H   H228      1.0  0.75580  0.34850  0.99170  1.0000
  H   H229      1.0  0.25580  0.15150  0.49170  1.0000
  H   H230      1.0  0.74420  0.15150  0.00830  1.0000
  H   H231      1.0  0.75580  0.65150  0.49170  1.0000
  H   H232      1.0  0.24420  0.65150  0.00830  1.0000
  H   H233      1.0  0.70250  0.89050  0.48540  1.0000
  H   H234      1.0  0.29750  0.89050  0.01460  1.0000
  H   H235      1.0  0.20250  0.39050  0.48540  1.0000
  H   H236      1.0  0.79750  0.39050  0.01460  1.0000
  H   H237      1.0  0.29750  0.10950  0.51460  1.0000
  H   H238      1.0  0.70250  0.10950  0.98540  1.0000
  H   H239      1.0  0.79750  0.60950  0.51460  1.0000
  H   H240      1.0  0.20250  0.60950  0.98540  1.0000
  H   H241      1.0  0.76360  0.09180  0.49340  1.0000
  H   H242      1.0  0.23640  0.09180  0.00660  1.0000
  H   H243      1.0  0.26360  0.59180  0.49340  1.0000
  H   H244      1.0  0.73640  0.59180  0.00660  1.0000
  H   H245      1.0  0.23640  0.90820  0.50660  1.0000
  H   H246      1.0  0.76360  0.90820  0.99340  1.0000
  H   H247      1.0  0.73640  0.40820  0.50660  1.0000
  H   H248      1.0  0.26360  0.40820  0.99340  1.0000
  H   H249      1.0  0.72100  0.12970  0.47050  1.0000
  H   H250      1.0  0.27900  0.12970  0.02950  1.0000
  H   H251      1.0  0.22100  0.62970  0.47050  1.0000
  H   H252      1.0  0.77900  0.62970  0.02950  1.0000
  H   H253      1.0  0.27900  0.87030  0.52950  1.0000
  H   H254      1.0  0.72100  0.87030  0.97050  1.0000
  H   H255      1.0  0.77900  0.37030  0.52950  1.0000
  H   H256      1.0  0.22100  0.37030  0.97050  1.0000
  C   C209      1.0  0.71670  0.04630  0.52210  1.0000
  C   C210      1.0  0.28330  0.04630  0.97790  1.0000
  C   C211      1.0  0.21670  0.54630  0.52210  1.0000
  C   C212      1.0  0.78330  0.54630  0.97790  1.0000
  C   C213      1.0  0.28330  0.95370  0.47790  1.0000
  C   C214      1.0  0.71670  0.95370  0.02210  1.0000
  C   C215      1.0  0.78330  0.45370  0.47790  1.0000
  C   C216      1.0  0.21670  0.45370  0.02210  1.0000
  H   H257      1.0  0.76350  0.96810  0.55190  1.0000
  H   H258      1.0  0.23650  0.96810  0.94810  1.0000
  H   H259      1.0  0.26350  0.46810  0.55190  1.0000
  H   H260      1.0  0.73650  0.46810  0.94810  1.0000
  H   H261      1.0  0.23650  0.03190  0.44810  1.0000
  H   H262      1.0  0.76350  0.03190  0.05190  1.0000
  H   H263      1.0  0.73650  0.53190  0.44810  1.0000
  H   H264      1.0  0.26350  0.53190  0.05190  1.0000
  H   H265      1.0  0.72060  0.93840  0.56190  1.0000
  H   H266      1.0  0.27940  0.93840  0.93810  1.0000
  H   H267      1.0  0.22060  0.43840  0.56190  1.0000
  H   H268      1.0  0.77940  0.43840  0.93810  1.0000
  H   H269      1.0  0.27940  0.06160  0.43810  1.0000
  H   H270      1.0  0.72060  0.06160  0.06190  1.0000
  H   H271      1.0  0.77940  0.56160  0.43810  1.0000
  H   H272      1.0  0.22060  0.56160  0.06190  1.0000
  H   H273      1.0  0.68700  0.03980  0.51170  1.0000
  H   H274      1.0  0.31300  0.03980  0.98830  1.0000
  H   H275      1.0  0.18700  0.53980  0.51170  1.0000
  H   H276      1.0  0.81300  0.53980  0.98830  1.0000
  H   H277      1.0  0.31300  0.96020  0.48830  1.0000
  H   H278      1.0  0.68700  0.96020  0.01170  1.0000
  H   H279      1.0  0.81300  0.46020  0.48830  1.0000
  H   H280      1.0  0.18700  0.46020  0.01170  1.0000
  C   C217      1.0  0.72370  0.10890  0.56010  1.0000
  C   C218      1.0  0.27630  0.10890  0.93990  1.0000
  C   C219      1.0  0.22370  0.60890  0.56010  1.0000
  C   C220      1.0  0.77630  0.60890  0.93990  1.0000
  C   C221      1.0  0.27630  0.89110  0.43990  1.0000
  C   C222      1.0  0.72370  0.89110  0.06010  1.0000
  C   C223      1.0  0.77630  0.39110  0.43990  1.0000
  C   C224      1.0  0.22370  0.39110  0.06010  1.0000
  O   O129      1.0  0.75150  0.09820  0.59370  1.0000
  O   O130      1.0  0.24850  0.09820  0.90630  1.0000
  O   O131      1.0  0.25150  0.59820  0.59370  1.0000
  O   O132      1.0  0.74850  0.59820  0.90630  1.0000
  O   O133      1.0  0.24850  0.90180  0.40630  1.0000
  O   O134      1.0  0.75150  0.90180  0.09370  1.0000
  O   O135      1.0  0.74850  0.40180  0.40630  1.0000
  O   O136      1.0  0.25150  0.40180  0.09370  1.0000
  O   O137      1.0  0.70180  0.17330  0.55820  1.0000
  O   O138      1.0  0.29820  0.17330  0.94180  1.0000
  O   O139      1.0  0.20180  0.67330  0.55820  1.0000
  O   O140      1.0  0.79820  0.67330  0.94180  1.0000
  O   O141      1.0  0.29820  0.82670  0.44180  1.0000
  O   O142      1.0  0.70180  0.82670  0.05820  1.0000
  O   O143      1.0  0.79820  0.32670  0.44180  1.0000
  O   O144      1.0  0.20180  0.32670  0.05820  1.0000
  U   U17       1.0  0.74274  0.23084  0.63038  1.0000
  U   U18       1.0  0.25726  0.23084  0.86962  1.0000
  U   U19       1.0  0.24274  0.73084  0.63038  1.0000
  U   U20       1.0  0.75726  0.73084  0.86962  1.0000
  U   U21       1.0  0.25726  0.76916  0.36962  1.0000
  U   U22       1.0  0.74274  0.76916  0.13038  1.0000
  U   U23       1.0  0.75726  0.26916  0.36962  1.0000
  U   U24       1.0  0.24274  0.26916  0.13038  1.0000
  O   O145      1.0  0.71020  0.18390  0.66420  1.0000
  O   O146      1.0  0.28980  0.18390  0.83580  1.0000
  O   O147      1.0  0.21020  0.68390  0.66420  1.0000
  O   O148      1.0  0.78980  0.68390  0.83580  1.0000
  O   O149      1.0  0.28980  0.81610  0.33580  1.0000
  O   O150      1.0  0.71020  0.81610  0.16420  1.0000
  O   O151      1.0  0.78980  0.31610  0.33580  1.0000
  O   O152      1.0  0.21020  0.31610  0.16420  1.0000
  O   O153      1.0  0.77550  0.27720  0.59760  1.0000
  O   O154      1.0  0.22450  0.27720  0.90240  1.0000
  O   O155      1.0  0.27550  0.77720  0.59760  1.0000
  O   O156      1.0  0.72450  0.77720  0.90240  1.0000
  O   O157      1.0  0.22450  0.72280  0.40240  1.0000
  O   O158      1.0  0.77550  0.72280  0.09760  1.0000
  O   O159      1.0  0.72450  0.22280  0.40240  1.0000
  O   O160      1.0  0.27550  0.22280  0.09760  1.0000
  O   O161      1.0  0.68620  0.32360  0.59730  1.0000
  O   O162      1.0  0.31380  0.32360  0.90270  1.0000
  O   O163      1.0  0.18620  0.82360  0.59730  1.0000
  O   O164      1.0  0.81380  0.82360  0.90270  1.0000
  O   O165      1.0  0.31380  0.67640  0.40270  1.0000
  O   O166      1.0  0.68620  0.67640  0.09730  1.0000
  O   O167      1.0  0.81380  0.17640  0.40270  1.0000
  O   O168      1.0  0.18620  0.17640  0.09730  1.0000
  O   O169      1.0  0.72460  0.36580  0.66070  1.0000
  O   O170      1.0  0.27540  0.36580  0.83930  1.0000
  O   O171      1.0  0.22460  0.86580  0.66070  1.0000
  O   O172      1.0  0.77540  0.86580  0.83930  1.0000
  O   O173      1.0  0.27540  0.63420  0.33930  1.0000
  O   O174      1.0  0.72460  0.63420  0.16070  1.0000
  O   O175      1.0  0.77540  0.13420  0.33930  1.0000
  O   O176      1.0  0.22460  0.13420  0.16070  1.0000
  O   O177      1.0  0.79030  0.26860  0.70110  1.0000
  O   O178      1.0  0.20970  0.26860  0.79890  1.0000
  O   O179      1.0  0.29030  0.76860  0.70110  1.0000
  O   O180      1.0  0.70970  0.76860  0.79890  1.0000
  O   O181      1.0  0.20970  0.73140  0.29890  1.0000
  O   O182      1.0  0.79030  0.73140  0.20110  1.0000
  O   O183      1.0  0.70970  0.23140  0.29890  1.0000
  O   O184      1.0  0.29030  0.23140  0.20110  1.0000
  O   O185      1.0  0.79630  0.14680  0.67190  1.0000
  O   O186      1.0  0.20370  0.14680  0.82810  1.0000
  O   O187      1.0  0.29630  0.64680  0.67190  1.0000
  O   O188      1.0  0.70370  0.64680  0.82810  1.0000
  O   O189      1.0  0.20370  0.85320  0.32810  1.0000
  O   O190      1.0  0.79630  0.85320  0.17190  1.0000
  O   O191      1.0  0.70370  0.35320  0.32810  1.0000
  O   O192      1.0  0.29630  0.35320  0.17190  1.0000
  C   C225      1.0  0.69220  0.37130  0.63160  1.0000
  C   C226      1.0  0.30780  0.37130  0.86840  1.0000
  C   C227      1.0  0.19220  0.87130  0.63160  1.0000
  C   C228      1.0  0.80780  0.87130  0.86840  1.0000
  C   C229      1.0  0.30780  0.62870  0.36840  1.0000
  C   C230      1.0  0.69220  0.62870  0.13160  1.0000
  C   C231      1.0  0.80780  0.12870  0.36840  1.0000
  C   C232      1.0  0.19220  0.12870  0.13160  1.0000
  C   C233      1.0  0.80720  0.19890  0.70480  1.0000
  C   C234      1.0  0.19280  0.19890  0.79520  1.0000
  C   C235      1.0  0.30720  0.69890  0.70480  1.0000
  C   C236      1.0  0.69280  0.69890  0.79520  1.0000
  C   C237      1.0  0.19280  0.80110  0.29520  1.0000
  C   C238      1.0  0.80720  0.80110  0.20480  1.0000
  C   C239      1.0  0.69280  0.30110  0.29520  1.0000
  C   C240      1.0  0.30720  0.30110  0.20480  1.0000
  C   C241      1.0  0.66110  0.43460  0.63820  1.0000
  C   C242      1.0  0.33890  0.43460  0.86180  1.0000
  C   C243      1.0  0.16110  0.93460  0.63820  1.0000
  C   C244      1.0  0.83890  0.93460  0.86180  1.0000
  C   C245      1.0  0.33890  0.56540  0.36180  1.0000
  C   C246      1.0  0.66110  0.56540  0.13820  1.0000
  C   C247      1.0  0.83890  0.06540  0.36180  1.0000
  C   C248      1.0  0.16110  0.06540  0.13820  1.0000
  C   C249      1.0  0.83800  0.17550  0.74480  1.0000
  C   C250      1.0  0.16200  0.17550  0.75520  1.0000
  C   C251      1.0  0.33800  0.67550  0.74480  1.0000
  C   C252      1.0  0.66200  0.67550  0.75520  1.0000
  C   C253      1.0  0.16200  0.82450  0.25520  1.0000
  C   C254      1.0  0.83800  0.82450  0.24480  1.0000
  C   C255      1.0  0.66200  0.32450  0.25520  1.0000
  C   C256      1.0  0.33800  0.32450  0.24480  1.0000
  H   H281      1.0  0.66460  0.44520  0.67220  1.0000
  H   H282      1.0  0.33540  0.44520  0.82780  1.0000
  H   H283      1.0  0.16460  0.94520  0.67220  1.0000
  H   H284      1.0  0.83540  0.94520  0.82780  1.0000
  H   H285      1.0  0.33540  0.55480  0.32780  1.0000
  H   H286      1.0  0.66460  0.55480  0.17220  1.0000
  H   H287      1.0  0.83540  0.05480  0.32780  1.0000
  H   H288      1.0  0.16460  0.05480  0.17220  1.0000
  C   C257      1.0  0.61790  0.40140  0.62350  1.0000
  C   C258      1.0  0.38210  0.40140  0.87650  1.0000
  C   C259      1.0  0.11790  0.90140  0.62350  1.0000
  C   C260      1.0  0.88210  0.90140  0.87650  1.0000
  C   C261      1.0  0.38210  0.59860  0.37650  1.0000
  C   C262      1.0  0.61790  0.59860  0.12350  1.0000
  C   C263      1.0  0.88210  0.09860  0.37650  1.0000
  C   C264      1.0  0.11790  0.09860  0.12350  1.0000
  C   C265      1.0  0.66760  0.51520  0.61620  1.0000
  C   C266      1.0  0.33240  0.51520  0.88380  1.0000
  C   C267      1.0  0.16760  0.01520  0.61620  1.0000
  C   C268      1.0  0.83240  0.01520  0.88380  1.0000
  C   C269      1.0  0.33240  0.48480  0.38380  1.0000
  C   C270      1.0  0.66760  0.48480  0.11620  1.0000
  C   C271      1.0  0.83240  0.98480  0.38380  1.0000
  C   C272      1.0  0.16760  0.98480  0.11620  1.0000
  H   H289      1.0  0.82350  0.15790  0.77010  1.0000
  H   H290      1.0  0.17650  0.15790  0.72990  1.0000
  H   H291      1.0  0.32350  0.65790  0.77010  1.0000
  H   H292      1.0  0.67650  0.65790  0.72990  1.0000
  H   H293      1.0  0.17650  0.84210  0.22990  1.0000
  H   H294      1.0  0.82350  0.84210  0.27010  1.0000
  H   H295      1.0  0.67650  0.34210  0.22990  1.0000
  H   H296      1.0  0.32350  0.34210  0.27010  1.0000
  C   C273      1.0  0.86530  0.24800  0.76350  1.0000
  C   C274      1.0  0.13470  0.24800  0.73650  1.0000
  C   C275      1.0  0.36530  0.74800  0.76350  1.0000
  C   C276      1.0  0.63470  0.74800  0.73650  1.0000
  C   C277      1.0  0.13470  0.75200  0.23650  1.0000
  C   C278      1.0  0.86530  0.75200  0.26350  1.0000
  C   C279      1.0  0.63470  0.25200  0.23650  1.0000
  C   C280      1.0  0.36530  0.25200  0.26350  1.0000
  C   C281      1.0  0.86450  0.10150  0.73460  1.0000
  C   C282      1.0  0.13550  0.10150  0.76540  1.0000
  C   C283      1.0  0.36450  0.60150  0.73460  1.0000
  C   C284      1.0  0.63550  0.60150  0.76540  1.0000
  C   C285      1.0  0.13550  0.89850  0.26540  1.0000
  C   C286      1.0  0.86450  0.89850  0.23460  1.0000
  C   C287      1.0  0.63550  0.39850  0.26540  1.0000
  C   C288      1.0  0.36450  0.39850  0.23460  1.0000
  H   H297      1.0  0.61290  0.38920  0.59000  1.0000
  H   H298      1.0  0.38710  0.38920  0.91000  1.0000
  H   H299      1.0  0.11290  0.88920  0.59000  1.0000
  H   H300      1.0  0.88710  0.88920  0.91000  1.0000
  H   H301      1.0  0.38710  0.61080  0.41000  1.0000
  H   H302      1.0  0.61290  0.61080  0.09000  1.0000
  H   H303      1.0  0.88710  0.11080  0.41000  1.0000
  H   H304      1.0  0.11290  0.11080  0.09000  1.0000
  H   H305      1.0  0.61470  0.34960  0.64030  1.0000
  H   H306      1.0  0.38530  0.34960  0.85970  1.0000
  H   H307      1.0  0.11470  0.84960  0.64030  1.0000
  H   H308      1.0  0.88530  0.84960  0.85970  1.0000
  H   H309      1.0  0.38530  0.65040  0.35970  1.0000
  H   H310      1.0  0.61470  0.65040  0.14030  1.0000
  H   H311      1.0  0.88530  0.15040  0.35970  1.0000
  H   H312      1.0  0.11470  0.15040  0.14030  1.0000
  C   C289      1.0  0.58700  0.46540  0.63420  1.0000
  C   C290      1.0  0.41300  0.46540  0.86580  1.0000
  C   C291      1.0  0.08700  0.96540  0.63420  1.0000
  C   C292      1.0  0.91300  0.96540  0.86580  1.0000
  C   C293      1.0  0.41300  0.53460  0.36580  1.0000
  C   C294      1.0  0.58700  0.53460  0.13420  1.0000
  C   C295      1.0  0.91300  0.03460  0.36580  1.0000
  C   C296      1.0  0.08700  0.03460  0.13420  1.0000
  C   C297      1.0  0.63620  0.58130  0.62380  1.0000
  C   C298      1.0  0.36380  0.58130  0.87620  1.0000
  C   C299      1.0  0.13620  0.08130  0.62380  1.0000
  C   C300      1.0  0.86380  0.08130  0.87620  1.0000
  C   C301      1.0  0.36380  0.41870  0.37620  1.0000
  C   C302      1.0  0.63620  0.41870  0.12380  1.0000
  C   C303      1.0  0.86380  0.91870  0.37620  1.0000
  C   C304      1.0  0.13620  0.91870  0.12380  1.0000
  H   H313      1.0  0.66640  0.50680  0.58260  1.0000
  H   H314      1.0  0.33360  0.50680  0.91740  1.0000
  H   H315      1.0  0.16640  0.00680  0.58260  1.0000
  H   H316      1.0  0.83360  0.00680  0.91740  1.0000
  H   H317      1.0  0.33360  0.49320  0.41740  1.0000
  H   H318      1.0  0.66640  0.49320  0.08260  1.0000
  H   H319      1.0  0.83360  0.99320  0.41740  1.0000
  H   H320      1.0  0.16640  0.99320  0.08260  1.0000
  H   H321      1.0  0.69490  0.53570  0.62910  1.0000
  H   H322      1.0  0.30510  0.53570  0.87090  1.0000
  H   H323      1.0  0.19490  0.03570  0.62910  1.0000
  H   H324      1.0  0.80510  0.03570  0.87090  1.0000
  H   H325      1.0  0.30510  0.46430  0.37090  1.0000
  H   H326      1.0  0.69490  0.46430  0.12910  1.0000
  H   H327      1.0  0.80510  0.96430  0.37090  1.0000
  H   H328      1.0  0.19490  0.96430  0.12910  1.0000
  H   H329      1.0  0.84840  0.29620  0.76770  1.0000
  H   H330      1.0  0.15160  0.29620  0.73230  1.0000
  H   H331      1.0  0.34840  0.79620  0.76770  1.0000
  H   H332      1.0  0.65160  0.79620  0.73230  1.0000
  H   H333      1.0  0.15160  0.70380  0.23230  1.0000
  H   H334      1.0  0.84840  0.70380  0.26770  1.0000
  H   H335      1.0  0.65160  0.20380  0.23230  1.0000
  H   H336      1.0  0.34840  0.20380  0.26770  1.0000
  H   H337      1.0  0.88080  0.23300  0.79420  1.0000
  H   H338      1.0  0.11920  0.23300  0.70580  1.0000
  H   H339      1.0  0.38080  0.73300  0.79420  1.0000
  H   H340      1.0  0.61920  0.73300  0.70580  1.0000
  H   H341      1.0  0.11920  0.76700  0.20580  1.0000
  H   H342      1.0  0.88080  0.76700  0.29420  1.0000
  H   H343      1.0  0.61920  0.26700  0.20580  1.0000
  H   H344      1.0  0.38080  0.26700  0.29420  1.0000
  C   C305      1.0  0.89470  0.27160  0.73160  1.0000
  C   C306      1.0  0.10530  0.27160  0.76840  1.0000
  C   C307      1.0  0.39470  0.77160  0.73160  1.0000
  C   C308      1.0  0.60530  0.77160  0.76840  1.0000
  C   C309      1.0  0.10530  0.72840  0.26840  1.0000
  C   C310      1.0  0.89470  0.72840  0.23160  1.0000
  C   C311      1.0  0.60530  0.22840  0.26840  1.0000
  C   C312      1.0  0.39470  0.22840  0.23160  1.0000
  C   C313      1.0  0.89320  0.12610  0.70240  1.0000
  C   C314      1.0  0.10680  0.12610  0.79760  1.0000
  C   C315      1.0  0.39320  0.62610  0.70240  1.0000
  C   C316      1.0  0.60680  0.62610  0.79760  1.0000
  C   C317      1.0  0.10680  0.87390  0.29760  1.0000
  C   C318      1.0  0.89320  0.87390  0.20240  1.0000
  C   C319      1.0  0.60680  0.37390  0.29760  1.0000
  C   C320      1.0  0.39320  0.37390  0.20240  1.0000
  H   H345      1.0  0.88020  0.08080  0.76400  1.0000
  H   H346      1.0  0.11980  0.08080  0.73600  1.0000
  H   H347      1.0  0.38020  0.58080  0.76400  1.0000
  H   H348      1.0  0.61980  0.58080  0.73600  1.0000
  H   H349      1.0  0.11980  0.91920  0.23600  1.0000
  H   H350      1.0  0.88020  0.91920  0.26400  1.0000
  H   H351      1.0  0.61980  0.41920  0.23600  1.0000
  H   H352      1.0  0.38020  0.41920  0.26400  1.0000
  H   H353      1.0  0.84700  0.05630  0.72030  1.0000
  H   H354      1.0  0.15300  0.05630  0.77970  1.0000
  H   H355      1.0  0.34700  0.55630  0.72030  1.0000
  H   H356      1.0  0.65300  0.55630  0.77970  1.0000
  H   H357      1.0  0.15300  0.94370  0.27970  1.0000
  H   H358      1.0  0.84700  0.94370  0.22030  1.0000
  H   H359      1.0  0.65300  0.44370  0.27970  1.0000
  H   H360      1.0  0.34700  0.44370  0.22030  1.0000
  H   H361      1.0  0.55950  0.44520  0.62270  1.0000
  H   H362      1.0  0.44050  0.44520  0.87730  1.0000
  H   H363      1.0  0.05950  0.94520  0.62270  1.0000
  H   H364      1.0  0.94050  0.94520  0.87730  1.0000
  H   H365      1.0  0.44050  0.55480  0.37730  1.0000
  H   H366      1.0  0.55950  0.55480  0.12270  1.0000
  H   H367      1.0  0.94050  0.05480  0.37730  1.0000
  H   H368      1.0  0.05950  0.05480  0.12270  1.0000
  H   H369      1.0  0.59010  0.47320  0.66800  1.0000
  H   H370      1.0  0.40990  0.47320  0.83200  1.0000
  H   H371      1.0  0.09010  0.97320  0.66800  1.0000
  H   H372      1.0  0.90990  0.97320  0.83200  1.0000
  H   H373      1.0  0.40990  0.52680  0.33200  1.0000
  H   H374      1.0  0.59010  0.52680  0.16800  1.0000
  H   H375      1.0  0.90990  0.02680  0.33200  1.0000
  H   H376      1.0  0.09010  0.02680  0.16800  1.0000
  C   C321      1.0  0.59330  0.54670  0.61150  1.0000
  C   C322      1.0  0.40670  0.54670  0.88850  1.0000
  C   C323      1.0  0.09330  0.04670  0.61150  1.0000
  C   C324      1.0  0.90670  0.04670  0.88850  1.0000
  C   C325      1.0  0.40670  0.45330  0.38850  1.0000
  C   C326      1.0  0.59330  0.45330  0.11150  1.0000
  C   C327      1.0  0.90670  0.95330  0.38850  1.0000
  C   C328      1.0  0.09330  0.95330  0.11150  1.0000
  H   H377      1.0  0.64140  0.59920  0.65650  1.0000
  H   H378      1.0  0.35860  0.59920  0.84350  1.0000
  H   H379      1.0  0.14140  0.09920  0.65650  1.0000
  H   H380      1.0  0.85860  0.09920  0.84350  1.0000
  H   H381      1.0  0.35860  0.40080  0.34350  1.0000
  H   H382      1.0  0.64140  0.40080  0.15650  1.0000
  H   H383      1.0  0.85860  0.90080  0.34350  1.0000
  H   H384      1.0  0.14140  0.90080  0.15650  1.0000
  H   H385      1.0  0.63900  0.62990  0.60430  1.0000
  H   H386      1.0  0.36100  0.62990  0.89570  1.0000
  H   H387      1.0  0.13900  0.12990  0.60430  1.0000
  H   H388      1.0  0.86100  0.12990  0.89570  1.0000
  H   H389      1.0  0.36100  0.37010  0.39570  1.0000
  H   H390      1.0  0.63900  0.37010  0.10430  1.0000
  H   H391      1.0  0.86100  0.87010  0.39570  1.0000
  H   H392      1.0  0.13900  0.87010  0.10430  1.0000
  H   H393      1.0  0.91210  0.31720  0.74560  1.0000
  H   H394      1.0  0.08790  0.31720  0.75440  1.0000
  H   H395      1.0  0.41210  0.81720  0.74560  1.0000
  H   H396      1.0  0.58790  0.81720  0.75440  1.0000
  H   H397      1.0  0.08790  0.68280  0.25440  1.0000
  H   H398      1.0  0.91210  0.68280  0.24560  1.0000
  H   H399      1.0  0.58790  0.18280  0.25440  1.0000
  H   H400      1.0  0.41210  0.18280  0.24560  1.0000
  H   H401      1.0  0.87950  0.29100  0.70170  1.0000
  H   H402      1.0  0.12050  0.29100  0.79830  1.0000
  H   H403      1.0  0.37950  0.79100  0.70170  1.0000
  H   H404      1.0  0.62050  0.79100  0.79830  1.0000
  H   H405      1.0  0.12050  0.70900  0.29830  1.0000
  H   H406      1.0  0.87950  0.70900  0.20170  1.0000
  H   H407      1.0  0.62050  0.20900  0.29830  1.0000
  H   H408      1.0  0.37950  0.20900  0.20170  1.0000
  C   C329      1.0  0.92100  0.19750  0.72340  1.0000
  C   C330      1.0  0.07900  0.19750  0.77660  1.0000
  C   C331      1.0  0.42100  0.69750  0.72340  1.0000
  C   C332      1.0  0.57900  0.69750  0.77660  1.0000
  C   C333      1.0  0.07900  0.80250  0.27660  1.0000
  C   C334      1.0  0.92100  0.80250  0.22340  1.0000
  C   C335      1.0  0.57900  0.30250  0.27660  1.0000
  C   C336      1.0  0.42100  0.30250  0.22340  1.0000
  H   H409      1.0  0.87760  0.14350  0.67230  1.0000
  H   H410      1.0  0.12240  0.14350  0.82770  1.0000
  H   H411      1.0  0.37760  0.64350  0.67230  1.0000
  H   H412      1.0  0.62240  0.64350  0.82770  1.0000
  H   H413      1.0  0.12240  0.85650  0.32770  1.0000
  H   H414      1.0  0.87760  0.85650  0.17230  1.0000
  H   H415      1.0  0.62240  0.35650  0.32770  1.0000
  H   H416      1.0  0.37760  0.35650  0.17230  1.0000
  H   H417      1.0  0.90980  0.07800  0.69700  1.0000
  H   H418      1.0  0.09020  0.07800  0.80300  1.0000
  H   H419      1.0  0.40980  0.57800  0.69700  1.0000
  H   H420      1.0  0.59020  0.57800  0.80300  1.0000
  H   H421      1.0  0.09020  0.92200  0.30300  1.0000
  H   H422      1.0  0.90980  0.92200  0.19700  1.0000
  H   H423      1.0  0.59020  0.42200  0.30300  1.0000
  H   H424      1.0  0.40980  0.42200  0.19700  1.0000
  H   H425      1.0  0.58790  0.53710  0.57730  1.0000
  H   H426      1.0  0.41210  0.53710  0.92270  1.0000
  H   H427      1.0  0.08790  0.03710  0.57730  1.0000
  H   H428      1.0  0.91210  0.03710  0.92270  1.0000
  H   H429      1.0  0.41210  0.46290  0.42270  1.0000
  H   H430      1.0  0.58790  0.46290  0.07730  1.0000
  H   H431      1.0  0.91210  0.96290  0.42270  1.0000
  H   H432      1.0  0.08790  0.96290  0.07730  1.0000
  C   C337      1.0  0.56350  0.61300  0.62160  1.0000
  C   C338      1.0  0.43650  0.61300  0.87840  1.0000
  C   C339      1.0  0.06350  0.11300  0.62160  1.0000
  C   C340      1.0  0.93650  0.11300  0.87840  1.0000
  C   C341      1.0  0.43650  0.38700  0.37840  1.0000
  C   C342      1.0  0.56350  0.38700  0.12160  1.0000
  C   C343      1.0  0.93650  0.88700  0.37840  1.0000
  C   C344      1.0  0.06350  0.88700  0.12160  1.0000
  H   H433      1.0  0.93630  0.17910  0.75390  1.0000
  H   H434      1.0  0.06370  0.17910  0.74610  1.0000
  H   H435      1.0  0.43630  0.67910  0.75390  1.0000
  H   H436      1.0  0.56370  0.67910  0.74610  1.0000
  H   H437      1.0  0.06370  0.82090  0.24610  1.0000
  H   H438      1.0  0.93630  0.82090  0.25390  1.0000
  H   H439      1.0  0.56370  0.32090  0.24610  1.0000
  H   H440      1.0  0.43630  0.32090  0.25390  1.0000
  C   C345      1.0  0.95060  0.21600  0.69170  1.0000
  C   C346      1.0  0.04940  0.21600  0.80830  1.0000
  C   C347      1.0  0.45060  0.71600  0.69170  1.0000
  C   C348      1.0  0.54940  0.71600  0.80830  1.0000
  C   C349      1.0  0.04940  0.78400  0.30830  1.0000
  C   C350      1.0  0.95060  0.78400  0.19170  1.0000
  C   C351      1.0  0.54940  0.28400  0.30830  1.0000
  C   C352      1.0  0.45060  0.28400  0.19170  1.0000
  O   O193      1.0  0.56110  0.67800  0.59650  1.0000
  O   O194      1.0  0.43890  0.67800  0.90350  1.0000
  O   O195      1.0  0.06110  0.17800  0.59650  1.0000
  O   O196      1.0  0.93890  0.17800  0.90350  1.0000
  O   O197      1.0  0.43890  0.32200  0.40350  1.0000
  O   O198      1.0  0.56110  0.32200  0.09650  1.0000
  O   O199      1.0  0.93890  0.82200  0.40350  1.0000
  O   O200      1.0  0.06110  0.82200  0.09650  1.0000
  O   O201      1.0  0.54130  0.60410  0.65070  1.0000
  O   O202      1.0  0.45870  0.60410  0.84930  1.0000
  O   O203      1.0  0.04130  0.10410  0.65070  1.0000
  O   O204      1.0  0.95870  0.10410  0.84930  1.0000
  O   O205      1.0  0.45870  0.39590  0.34930  1.0000
  O   O206      1.0  0.54130  0.39590  0.15070  1.0000
  O   O207      1.0  0.95870  0.89590  0.34930  1.0000
  O   O208      1.0  0.04130  0.89590  0.15070  1.0000
  O   O209      1.0  0.97920  0.16290  0.69080  1.0000
  O   O210      1.0  0.02080  0.16290  0.80920  1.0000
  O   O211      1.0  0.47920  0.66290  0.69080  1.0000
  O   O212      1.0  0.52080  0.66290  0.80920  1.0000
  O   O213      1.0  0.02080  0.83710  0.30920  1.0000
  O   O214      1.0  0.97920  0.83710  0.19080  1.0000
  O   O215      1.0  0.52080  0.33710  0.30920  1.0000
  O   O216      1.0  0.47920  0.33710  0.19080  1.0000
  O   O217      1.0  0.94830  0.27670  0.66670  1.0000
  O   O218      1.0  0.05170  0.27670  0.83330  1.0000
  O   O219      1.0  0.44830  0.77670  0.66670  1.0000
  O   O220      1.0  0.55170  0.77670  0.83330  1.0000
  O   O221      1.0  0.05170  0.72330  0.33330  1.0000
  O   O222      1.0  0.94830  0.72330  0.16670  1.0000
  O   O223      1.0  0.55170  0.22330  0.33330  1.0000
  O   O224      1.0  0.44830  0.22330  0.16670  1.0000
  U   U25       1.0  0.50403  0.73431  0.62817  1.0000
  U   U26       1.0  0.49597  0.73431  0.87183  1.0000
  U   U27       1.0  0.00403  0.23431  0.62817  1.0000
  U   U28       1.0  0.99597  0.23431  0.87183  1.0000
  U   U29       1.0  0.49597  0.26569  0.37183  1.0000
  U   U30       1.0  0.50403  0.26569  0.12817  1.0000
  U   U31       1.0  0.99597  0.76569  0.37183  1.0000
  U   U32       1.0  0.00403  0.76569  0.12817  1.0000
  O   O225      1.0  0.46970  0.67570  0.58860  1.0000
  O   O226      1.0  0.53030  0.67570  0.91140  1.0000
  O   O227      1.0  0.96970  0.17570  0.58860  1.0000
  O   O228      1.0  0.03030  0.17570  0.91140  1.0000
  O   O229      1.0  0.53030  0.32430  0.41140  1.0000
  O   O230      1.0  0.46970  0.32430  0.08860  1.0000
  O   O231      1.0  0.03030  0.82430  0.41140  1.0000
  O   O232      1.0  0.96970  0.82430  0.08860  1.0000
  O   O233      1.0  0.53670  0.79280  0.66910  1.0000
  O   O234      1.0  0.46330  0.79280  0.83090  1.0000
  O   O235      1.0  0.03670  0.29280  0.66910  1.0000
  O   O236      1.0  0.96330  0.29280  0.83090  1.0000
  O   O237      1.0  0.46330  0.20720  0.33090  1.0000
  O   O238      1.0  0.53670  0.20720  0.16910  1.0000
  O   O239      1.0  0.96330  0.70720  0.33090  1.0000
  O   O240      1.0  0.03670  0.70720  0.16910  1.0000
  O   O241      1.0  0.47320  0.86050  0.59210  1.0000
  O   O242      1.0  0.52680  0.86050  0.90790  1.0000
  O   O243      1.0  0.97320  0.36050  0.59210  1.0000
  O   O244      1.0  0.02680  0.36050  0.90790  1.0000
  O   O245      1.0  0.52680  0.13950  0.40790  1.0000
  O   O246      1.0  0.47320  0.13950  0.09210  1.0000
  O   O247      1.0  0.02680  0.63950  0.40790  1.0000
  O   O248      1.0  0.97320  0.63950  0.09210  1.0000
  O   O249      1.0  0.52410  0.81160  0.56490  1.0000
  O   O250      1.0  0.47590  0.81160  0.93510  1.0000
  O   O251      1.0  0.02410  0.31160  0.56490  1.0000
  O   O252      1.0  0.97590  0.31160  0.93510  1.0000
  O   O253      1.0  0.47590  0.18840  0.43510  1.0000
  O   O254      1.0  0.52410  0.18840  0.06490  1.0000
  O   O255      1.0  0.97590  0.68840  0.43510  1.0000
  O   O256      1.0  0.02410  0.68840  0.06490  1.0000
  C   C353      1.0  0.49690  0.86390  0.56350  1.0000
  C   C354      1.0  0.50310  0.86390  0.93650  1.0000
  C   C355      1.0  0.99690  0.36390  0.56350  1.0000
  C   C356      1.0  0.00310  0.36390  0.93650  1.0000
  C   C357      1.0  0.50310  0.13610  0.43650  1.0000
  C   C358      1.0  0.49690  0.13610  0.06350  1.0000
  C   C359      1.0  0.00310  0.63610  0.43650  1.0000
  C   C360      1.0  0.99690  0.63610  0.06350  1.0000
  C   C361      1.0  0.49040  0.92560  0.52370  1.0000
  C   C362      1.0  0.50960  0.92560  0.97630  1.0000
  C   C363      1.0  0.99040  0.42560  0.52370  1.0000
  C   C364      1.0  0.00960  0.42560  0.97630  1.0000
  C   C365      1.0  0.50960  0.07440  0.47630  1.0000
  C   C366      1.0  0.49040  0.07440  0.02370  1.0000
  C   C367      1.0  0.00960  0.57440  0.47630  1.0000
  C   C368      1.0  0.99040  0.57440  0.02370  1.0000
  H   H441      1.0  0.46710  0.90780  0.49990  1.0000
  H   H442      1.0  0.53290  0.90780  0.00010  1.0000
  H   H443      1.0  0.96710  0.40780  0.49990  1.0000
  H   H444      1.0  0.03290  0.40780  0.00010  1.0000
  H   H445      1.0  0.53290  0.09220  0.50010  1.0000
  H   H446      1.0  0.46710  0.09220  0.99990  1.0000
  H   H447      1.0  0.03290  0.59220  0.50010  1.0000
  H   H448      1.0  0.96710  0.59220  0.99990  1.0000
  C   C369      1.0  0.48230  0.00980  0.54160  1.0000
  C   C370      1.0  0.51770  0.00980  0.95840  1.0000
  C   C371      1.0  0.98230  0.50980  0.54160  1.0000
  C   C372      1.0  0.01770  0.50980  0.95840  1.0000
  C   C373      1.0  0.51770  0.99020  0.45840  1.0000
  C   C374      1.0  0.48230  0.99020  0.04160  1.0000
  C   C375      1.0  0.01770  0.49020  0.45840  1.0000
  C   C376      1.0  0.98230  0.49020  0.04160  1.0000
  C   C377      1.0  0.52880  0.93130  0.50160  1.0000
  C   C378      1.0  0.47120  0.93130  0.99840  1.0000
  C   C379      1.0  0.02880  0.43130  0.50160  1.0000
  C   C380      1.0  0.97120  0.43130  0.99840  1.0000
  C   C381      1.0  0.47120  0.06870  0.49840  1.0000
  C   C382      1.0  0.52880  0.06870  0.00160  1.0000
  C   C383      1.0  0.97120  0.56870  0.49840  1.0000
  C   C384      1.0  0.02880  0.56870  0.00160  1.0000
  H   H449      1.0  0.50640  0.03050  0.56250  1.0000
  H   H450      1.0  0.49360  0.03050  0.93750  1.0000
  H   H451      1.0  0.00640  0.53050  0.56250  1.0000
  H   H452      1.0  0.99360  0.53050  0.93750  1.0000
  H   H453      1.0  0.49360  0.96950  0.43750  1.0000
  H   H454      1.0  0.50640  0.96950  0.06250  1.0000
  H   H455      1.0  0.99360  0.46950  0.43750  1.0000
  H   H456      1.0  0.00640  0.46950  0.06250  1.0000
  H   H457      1.0  0.45980  0.00720  0.55910  1.0000
  H   H458      1.0  0.54020  0.00720  0.94090  1.0000
  H   H459      1.0  0.95980  0.50720  0.55910  1.0000
  H   H460      1.0  0.04020  0.50720  0.94090  1.0000
  H   H461      1.0  0.54020  0.99280  0.44090  1.0000
  H   H462      1.0  0.45980  0.99280  0.05910  1.0000
  H   H463      1.0  0.04020  0.49280  0.44090  1.0000
  H   H464      1.0  0.95980  0.49280  0.05910  1.0000
  H   H465      1.0  0.55150  0.95440  0.52390  1.0000
  H   H466      1.0  0.44850  0.95440  0.97610  1.0000
  H   H467      1.0  0.05150  0.45440  0.52390  1.0000
  H   H468      1.0  0.94850  0.45440  0.97610  1.0000
  H   H469      1.0  0.44850  0.04560  0.47610  1.0000
  H   H470      1.0  0.55150  0.04560  0.02390  1.0000
  H   H471      1.0  0.94850  0.54560  0.47610  1.0000
  H   H472      1.0  0.05150  0.54560  0.02390  1.0000
  H   H473      1.0  0.53660  0.87620  0.49180  1.0000
  H   H474      1.0  0.46340  0.87620  0.00820  1.0000
  H   H475      1.0  0.03660  0.37620  0.49180  1.0000
  H   H476      1.0  0.96340  0.37620  0.00820  1.0000
  H   H477      1.0  0.46340  0.12380  0.50820  1.0000
  H   H478      1.0  0.53660  0.12380  0.99180  1.0000
  H   H479      1.0  0.96340  0.62380  0.50820  1.0000
  H   H480      1.0  0.03660  0.62380  0.99180  1.0000
