data_image0
_chemical_formula_structural       U8O64C12H12C12H24C12H24C12H12C12H24C12H24C24
_chemical_formula_sum              "U8 O64 C96 H120"
_cell_length_a       17.9583
_cell_length_b       17.9583
_cell_length_c       17.9583
_cell_angle_alpha    90
_cell_angle_beta     90
_cell_angle_gamma    90

_space_group_name_H-M_alt    "P 1"
_space_group_IT_number       1

loop_
  _space_group_symop_operation_xyz
  'x, y, z'

loop_
  _atom_site_type_symbol
  _atom_site_label
  _atom_site_symmetry_multiplicity
  _atom_site_fract_x
  _atom_site_fract_y
  _atom_site_fract_z
  _atom_site_occupancy
  U   U1        1.0  0.02773  0.47227  0.52773  1.0000
  U   U2        1.0  0.47227  0.52773  0.02773  1.0000
  U   U3        1.0  0.97227  0.97227  0.97227  1.0000
  U   U4        1.0  0.52773  0.02773  0.47227  1.0000
  U   U5        1.0  0.55887  0.55887  0.55887  1.0000
  U   U6        1.0  0.94113  0.44113  0.05887  1.0000
  U   U7        1.0  0.44113  0.05887  0.94113  1.0000
  U   U8        1.0  0.05887  0.94113  0.44113  1.0000
  O   O1        1.0  0.97110  0.52890  0.47110  1.0000
  O   O2        1.0  0.52890  0.47110  0.97110  1.0000
  O   O3        1.0  0.02890  0.02890  0.02890  1.0000
  O   O4        1.0  0.47110  0.97110  0.52890  1.0000
  O   O5        1.0  0.08400  0.41600  0.58400  1.0000
  O   O6        1.0  0.41600  0.58400  0.08400  1.0000
  O   O7        1.0  0.91600  0.91600  0.91600  1.0000
  O   O8        1.0  0.58400  0.08400  0.41600  1.0000
  O   O9        1.0  0.61560  0.61560  0.61560  1.0000
  O   O10       1.0  0.88440  0.38440  0.11560  1.0000
  O   O11       1.0  0.38440  0.11560  0.88440  1.0000
  O   O12       1.0  0.11560  0.88440  0.38440  1.0000
  O   O13       1.0  0.50220  0.50220  0.50220  1.0000
  O   O14       1.0  0.99780  0.49780  0.00220  1.0000
  O   O15       1.0  0.49780  0.00220  0.99780  1.0000
  O   O16       1.0  0.00220  0.99780  0.49780  1.0000
  O   O17       1.0  0.93200  0.37260  0.52970  1.0000
  O   O18       1.0  0.56800  0.62740  0.02970  1.0000
  O   O19       1.0  0.06800  0.87260  0.97030  1.0000
  O   O20       1.0  0.43200  0.12740  0.47030  1.0000
  O   O21       1.0  0.52970  0.93200  0.37260  1.0000
  O   O22       1.0  0.02970  0.56800  0.62740  1.0000
  O   O23       1.0  0.97030  0.06800  0.87260  1.0000
  O   O24       1.0  0.47030  0.43200  0.12740  1.0000
  O   O25       1.0  0.37260  0.52970  0.93200  1.0000
  O   O26       1.0  0.62740  0.02970  0.56800  1.0000
  O   O27       1.0  0.87260  0.97030  0.06800  1.0000
  O   O28       1.0  0.12740  0.47030  0.43200  1.0000
  O   O29       1.0  0.92250  0.45950  0.61420  1.0000
  O   O30       1.0  0.57750  0.54050  0.11420  1.0000
  O   O31       1.0  0.07750  0.95950  0.88580  1.0000
  O   O32       1.0  0.42250  0.04050  0.38580  1.0000
  O   O33       1.0  0.61420  0.92250  0.45950  1.0000
  O   O34       1.0  0.11420  0.57750  0.54050  1.0000
  O   O35       1.0  0.88580  0.07750  0.95950  1.0000
  O   O36       1.0  0.38580  0.42250  0.04050  1.0000
  O   O37       1.0  0.45950  0.61420  0.92250  1.0000
  O   O38       1.0  0.54050  0.11420  0.57750  1.0000
  O   O39       1.0  0.95950  0.88580  0.07750  1.0000
  O   O40       1.0  0.04050  0.38580  0.42250  1.0000
  O   O41       1.0  0.65450  0.46110  0.55300  1.0000
  O   O42       1.0  0.84550  0.53890  0.05300  1.0000
  O   O43       1.0  0.34550  0.96110  0.94700  1.0000
  O   O44       1.0  0.15450  0.03890  0.44700  1.0000
  O   O45       1.0  0.55300  0.65450  0.46110  1.0000
  O   O46       1.0  0.05300  0.84550  0.53890  1.0000
  O   O47       1.0  0.94700  0.34550  0.96110  1.0000
  O   O48       1.0  0.44700  0.15450  0.03890  1.0000
  O   O49       1.0  0.46110  0.55300  0.65450  1.0000
  O   O50       1.0  0.53890  0.05300  0.84550  1.0000
  O   O51       1.0  0.96110  0.94700  0.34550  1.0000
  O   O52       1.0  0.03890  0.44700  0.15450  1.0000
  O   O53       1.0  0.57470  0.45380  0.64510  1.0000
  O   O54       1.0  0.92530  0.54620  0.14510  1.0000
  O   O55       1.0  0.42530  0.95380  0.85490  1.0000
  O   O56       1.0  0.07470  0.04620  0.35490  1.0000
  O   O57       1.0  0.64510  0.57470  0.45380  1.0000
  O   O58       1.0  0.14510  0.92530  0.54620  1.0000
  O   O59       1.0  0.85490  0.42530  0.95380  1.0000
  O   O60       1.0  0.35490  0.07470  0.04620  1.0000
  O   O61       1.0  0.45380  0.64510  0.57470  1.0000
  O   O62       1.0  0.54620  0.14510  0.92530  1.0000
  O   O63       1.0  0.95380  0.85490  0.42530  1.0000
  O   O64       1.0  0.04620  0.35490  0.07470  1.0000
  C   C1        1.0  0.82750  0.36550  0.61260  1.0000
  C   C2        1.0  0.67250  0.63450  0.11260  1.0000
  C   C3        1.0  0.17250  0.86550  0.88740  1.0000
  C   C4        1.0  0.32750  0.13450  0.38740  1.0000
  C   C5        1.0  0.61260  0.82750  0.36550  1.0000
  C   C6        1.0  0.11260  0.67250  0.63450  1.0000
  C   C7        1.0  0.88740  0.17250  0.86550  1.0000
  C   C8        1.0  0.38740  0.32750  0.13450  1.0000
  C   C9        1.0  0.36550  0.61260  0.82750  1.0000
  C   C10       1.0  0.63450  0.11260  0.67250  1.0000
  C   C11       1.0  0.86550  0.88740  0.17250  1.0000
  C   C12       1.0  0.13450  0.38740  0.32750  1.0000
  H   H1        1.0  0.84220  0.31810  0.63780  1.0000
  H   H2        1.0  0.65780  0.68190  0.13780  1.0000
  H   H3        1.0  0.15780  0.81810  0.86220  1.0000
  H   H4        1.0  0.34220  0.18190  0.36220  1.0000
  H   H5        1.0  0.63780  0.84220  0.31810  1.0000
  H   H6        1.0  0.13780  0.65780  0.68190  1.0000
  H   H7        1.0  0.86220  0.15780  0.81810  1.0000
  H   H8        1.0  0.36220  0.34220  0.18190  1.0000
  H   H9        1.0  0.31810  0.63780  0.84220  1.0000
  H   H10       1.0  0.68190  0.13780  0.65780  1.0000
  H   H11       1.0  0.81810  0.86220  0.15780  1.0000
  H   H12       1.0  0.18190  0.36220  0.34220  1.0000
  C   C13       1.0  0.77580  0.34450  0.54760  1.0000
  C   C14       1.0  0.72420  0.65550  0.04760  1.0000
  C   C15       1.0  0.22420  0.84450  0.95240  1.0000
  C   C16       1.0  0.27580  0.15550  0.45240  1.0000
  C   C17       1.0  0.54760  0.77580  0.34450  1.0000
  C   C18       1.0  0.04760  0.72420  0.65550  1.0000
  C   C19       1.0  0.95240  0.22420  0.84450  1.0000
  C   C20       1.0  0.45240  0.27580  0.15550  1.0000
  C   C21       1.0  0.34450  0.54760  0.77580  1.0000
  C   C22       1.0  0.65550  0.04760  0.72420  1.0000
  C   C23       1.0  0.84450  0.95240  0.22420  1.0000
  C   C24       1.0  0.15550  0.45240  0.27580  1.0000
  H   H13       1.0  0.76450  0.38960  0.51810  1.0000
  H   H14       1.0  0.73550  0.61040  0.01810  1.0000
  H   H15       1.0  0.23550  0.88960  0.98190  1.0000
  H   H16       1.0  0.26450  0.11040  0.48190  1.0000
  H   H17       1.0  0.51810  0.76450  0.38960  1.0000
  H   H18       1.0  0.01810  0.73550  0.61040  1.0000
  H   H19       1.0  0.98190  0.23550  0.88960  1.0000
  H   H20       1.0  0.48190  0.26450  0.11040  1.0000
  H   H21       1.0  0.38960  0.51810  0.76450  1.0000
  H   H22       1.0  0.61040  0.01810  0.73550  1.0000
  H   H23       1.0  0.88960  0.98190  0.23550  1.0000
  H   H24       1.0  0.11040  0.48190  0.26450  1.0000
  H   H25       1.0  0.80170  0.30870  0.51460  1.0000
  H   H26       1.0  0.69830  0.69130  0.01460  1.0000
  H   H27       1.0  0.19830  0.80870  0.98540  1.0000
  H   H28       1.0  0.30170  0.19130  0.48540  1.0000
  H   H29       1.0  0.51460  0.80170  0.30870  1.0000
  H   H30       1.0  0.01460  0.69830  0.69130  1.0000
  H   H31       1.0  0.98540  0.19830  0.80870  1.0000
  H   H32       1.0  0.48540  0.30170  0.19130  1.0000
  H   H33       1.0  0.30870  0.51460  0.80170  1.0000
  H   H34       1.0  0.69130  0.01460  0.69830  1.0000
  H   H35       1.0  0.80870  0.98540  0.19830  1.0000
  H   H36       1.0  0.19130  0.48540  0.30170  1.0000
  C   C25       1.0  0.70300  0.30980  0.57510  1.0000
  C   C26       1.0  0.79700  0.69020  0.07510  1.0000
  C   C27       1.0  0.29700  0.80980  0.92490  1.0000
  C   C28       1.0  0.20300  0.19020  0.42490  1.0000
  C   C29       1.0  0.57510  0.70300  0.30980  1.0000
  C   C30       1.0  0.07510  0.79700  0.69020  1.0000
  C   C31       1.0  0.92490  0.29700  0.80980  1.0000
  C   C32       1.0  0.42490  0.20300  0.19020  1.0000
  C   C33       1.0  0.30980  0.57510  0.70300  1.0000
  C   C34       1.0  0.69020  0.07510  0.79700  1.0000
  C   C35       1.0  0.80980  0.92490  0.29700  1.0000
  C   C36       1.0  0.19020  0.42490  0.20300  1.0000
  H   H37       1.0  0.71350  0.25930  0.59440  1.0000
  H   H38       1.0  0.78650  0.74070  0.09440  1.0000
  H   H39       1.0  0.28650  0.75930  0.90560  1.0000
  H   H40       1.0  0.21350  0.24070  0.40560  1.0000
  H   H41       1.0  0.59440  0.71350  0.25930  1.0000
  H   H42       1.0  0.09440  0.78650  0.74070  1.0000
  H   H43       1.0  0.90560  0.28650  0.75930  1.0000
  H   H44       1.0  0.40560  0.21350  0.24070  1.0000
  H   H45       1.0  0.25930  0.59440  0.71350  1.0000
  H   H46       1.0  0.74070  0.09440  0.78650  1.0000
  H   H47       1.0  0.75930  0.90560  0.28650  1.0000
  H   H48       1.0  0.24070  0.40560  0.21350  1.0000
  H   H49       1.0  0.66850  0.30460  0.53240  1.0000
  H   H50       1.0  0.83150  0.69540  0.03240  1.0000
  H   H51       1.0  0.33150  0.80460  0.96760  1.0000
  H   H52       1.0  0.16850  0.19540  0.46760  1.0000
  H   H53       1.0  0.53240  0.66850  0.30460  1.0000
  H   H54       1.0  0.03240  0.83150  0.69540  1.0000
  H   H55       1.0  0.96760  0.33150  0.80460  1.0000
  H   H56       1.0  0.46760  0.16850  0.19540  1.0000
  H   H57       1.0  0.30460  0.53240  0.66850  1.0000
  H   H58       1.0  0.69540  0.03240  0.83150  1.0000
  H   H59       1.0  0.80460  0.96760  0.33150  1.0000
  H   H60       1.0  0.19540  0.46760  0.16850  1.0000
  C   C37       1.0  0.66470  0.35550  0.63630  1.0000
  C   C38       1.0  0.83530  0.64450  0.13630  1.0000
  C   C39       1.0  0.33530  0.85550  0.86370  1.0000
  C   C40       1.0  0.16470  0.14450  0.36370  1.0000
  C   C41       1.0  0.63630  0.66470  0.35550  1.0000
  C   C42       1.0  0.13630  0.83530  0.64450  1.0000
  C   C43       1.0  0.86370  0.33530  0.85550  1.0000
  C   C44       1.0  0.36370  0.16470  0.14450  1.0000
  C   C45       1.0  0.35550  0.63630  0.66470  1.0000
  C   C46       1.0  0.64450  0.13630  0.83530  1.0000
  C   C47       1.0  0.85550  0.86370  0.33530  1.0000
  C   C48       1.0  0.14450  0.36370  0.16470  1.0000
  H   H61       1.0  0.62420  0.32390  0.65790  1.0000
  H   H62       1.0  0.87580  0.67610  0.15790  1.0000
  H   H63       1.0  0.37580  0.82390  0.84210  1.0000
  H   H64       1.0  0.12420  0.17610  0.34210  1.0000
  H   H65       1.0  0.65790  0.62420  0.32390  1.0000
  H   H66       1.0  0.15790  0.87580  0.67610  1.0000
  H   H67       1.0  0.84210  0.37580  0.82390  1.0000
  H   H68       1.0  0.34210  0.12420  0.17610  1.0000
  H   H69       1.0  0.32390  0.65790  0.62420  1.0000
  H   H70       1.0  0.67610  0.15790  0.87580  1.0000
  H   H71       1.0  0.82390  0.84210  0.37580  1.0000
  H   H72       1.0  0.17610  0.34210  0.12420  1.0000
  C   C49       1.0  0.71910  0.37500  0.70010  1.0000
  C   C50       1.0  0.78090  0.62500  0.20010  1.0000
  C   C51       1.0  0.28090  0.87500  0.79990  1.0000
  C   C52       1.0  0.21910  0.12500  0.29990  1.0000
  C   C53       1.0  0.70010  0.71910  0.37500  1.0000
  C   C54       1.0  0.20010  0.78090  0.62500  1.0000
  C   C55       1.0  0.79990  0.28090  0.87500  1.0000
  C   C56       1.0  0.29990  0.21910  0.12500  1.0000
  C   C57       1.0  0.37500  0.70010  0.71910  1.0000
  C   C58       1.0  0.62500  0.20010  0.78090  1.0000
  C   C59       1.0  0.87500  0.79990  0.28090  1.0000
  C   C60       1.0  0.12500  0.29990  0.21910  1.0000
  H   H73       1.0  0.69380  0.40790  0.73650  1.0000
  H   H74       1.0  0.80620  0.59210  0.23650  1.0000
  H   H75       1.0  0.30620  0.90790  0.76350  1.0000
  H   H76       1.0  0.19380  0.09210  0.26350  1.0000
  H   H77       1.0  0.73650  0.69380  0.40790  1.0000
  H   H78       1.0  0.23650  0.80620  0.59210  1.0000
  H   H79       1.0  0.76350  0.30620  0.90790  1.0000
  H   H80       1.0  0.26350  0.19380  0.09210  1.0000
  H   H81       1.0  0.40790  0.73650  0.69380  1.0000
  H   H82       1.0  0.59210  0.23650  0.80620  1.0000
  H   H83       1.0  0.90790  0.76350  0.30620  1.0000
  H   H84       1.0  0.09210  0.26350  0.19380  1.0000
  H   H85       1.0  0.73390  0.32880  0.72640  1.0000
  H   H86       1.0  0.76610  0.67120  0.22640  1.0000
  H   H87       1.0  0.26610  0.82880  0.77360  1.0000
  H   H88       1.0  0.23390  0.17120  0.27360  1.0000
  H   H89       1.0  0.72640  0.73390  0.32880  1.0000
  H   H90       1.0  0.22640  0.76610  0.67120  1.0000
  H   H91       1.0  0.77360  0.26610  0.82880  1.0000
  H   H92       1.0  0.27360  0.23390  0.17120  1.0000
  H   H93       1.0  0.32880  0.72640  0.73390  1.0000
  H   H94       1.0  0.67120  0.22640  0.76610  1.0000
  H   H95       1.0  0.82880  0.77360  0.26610  1.0000
  H   H96       1.0  0.17120  0.27360  0.23390  1.0000
  C   C61       1.0  0.78750  0.41350  0.67060  1.0000
  C   C62       1.0  0.71250  0.58650  0.17060  1.0000
  C   C63       1.0  0.21250  0.91350  0.82940  1.0000
  C   C64       1.0  0.28750  0.08650  0.32940  1.0000
  C   C65       1.0  0.67060  0.78750  0.41350  1.0000
  C   C66       1.0  0.17060  0.71250  0.58650  1.0000
  C   C67       1.0  0.82940  0.21250  0.91350  1.0000
  C   C68       1.0  0.32940  0.28750  0.08650  1.0000
  C   C69       1.0  0.41350  0.67060  0.78750  1.0000
  C   C70       1.0  0.58650  0.17060  0.71250  1.0000
  C   C71       1.0  0.91350  0.82940  0.21250  1.0000
  C   C72       1.0  0.08650  0.32940  0.28750  1.0000
  H   H97       1.0  0.82190  0.42420  0.71230  1.0000
  H   H98       1.0  0.67810  0.57580  0.21230  1.0000
  H   H99       1.0  0.17810  0.92420  0.78770  1.0000
  H   H100      1.0  0.32190  0.07580  0.28770  1.0000
  H   H101      1.0  0.71230  0.82190  0.42420  1.0000
  H   H102      1.0  0.21230  0.67810  0.57580  1.0000
  H   H103      1.0  0.78770  0.17810  0.92420  1.0000
  H   H104      1.0  0.28770  0.32190  0.07580  1.0000
  H   H105      1.0  0.42420  0.71230  0.82190  1.0000
  H   H106      1.0  0.57580  0.21230  0.67810  1.0000
  H   H107      1.0  0.92420  0.78770  0.17810  1.0000
  H   H108      1.0  0.07580  0.28770  0.32190  1.0000
  H   H109      1.0  0.77300  0.46150  0.64770  1.0000
  H   H110      1.0  0.72700  0.53850  0.14770  1.0000
  H   H111      1.0  0.22700  0.96150  0.85230  1.0000
  H   H112      1.0  0.27300  0.03850  0.35230  1.0000
  H   H113      1.0  0.64770  0.77300  0.46150  1.0000
  H   H114      1.0  0.14770  0.72700  0.53850  1.0000
  H   H115      1.0  0.85230  0.22700  0.96150  1.0000
  H   H116      1.0  0.35230  0.27300  0.03850  1.0000
  H   H117      1.0  0.46150  0.64770  0.77300  1.0000
  H   H118      1.0  0.53850  0.14770  0.72700  1.0000
  H   H119      1.0  0.96150  0.85230  0.22700  1.0000
  H   H120      1.0  0.03850  0.35230  0.27300  1.0000
  C   C73       1.0  0.89770  0.40100  0.58370  1.0000
  C   C74       1.0  0.60230  0.59900  0.08370  1.0000
  C   C75       1.0  0.10230  0.90100  0.91630  1.0000
  C   C76       1.0  0.39770  0.09900  0.41630  1.0000
  C   C77       1.0  0.58370  0.89770  0.40100  1.0000
  C   C78       1.0  0.08370  0.60230  0.59900  1.0000
  C   C79       1.0  0.91630  0.10230  0.90100  1.0000
  C   C80       1.0  0.41630  0.39770  0.09900  1.0000
  C   C81       1.0  0.40100  0.58370  0.89770  1.0000
  C   C82       1.0  0.59900  0.08370  0.60230  1.0000
  C   C83       1.0  0.90100  0.91630  0.10230  1.0000
  C   C84       1.0  0.09900  0.41630  0.39770  1.0000
  C   C85       1.0  0.62900  0.42710  0.60850  1.0000
  C   C86       1.0  0.87100  0.57290  0.10850  1.0000
  C   C87       1.0  0.37100  0.92710  0.89150  1.0000
  C   C88       1.0  0.12900  0.07290  0.39150  1.0000
  C   C89       1.0  0.60850  0.62900  0.42710  1.0000
  C   C90       1.0  0.10850  0.87100  0.57290  1.0000
  C   C91       1.0  0.89150  0.37100  0.92710  1.0000
  C   C92       1.0  0.39150  0.12900  0.07290  1.0000
  C   C93       1.0  0.42710  0.60850  0.62900  1.0000
  C   C94       1.0  0.57290  0.10850  0.87100  1.0000
  C   C95       1.0  0.92710  0.89150  0.37100  1.0000
  C   C96       1.0  0.07290  0.39150  0.12900  1.0000
