data_image0
_chemical_formula_structural       U4O32C2H2C2H4C2H4C2H2C2H4C2H4C6H2C2H4C2H4C2H2C2H4C2H4C6H2C2H4C2H4C2H2C2H4C2H4C4
_chemical_formula_sum              "U4 O32 C48 H60"
_cell_length_a       8.2701
_cell_length_b       14.8223
_cell_length_c       26.6956
_cell_angle_alpha    90
_cell_angle_beta     95.453
_cell_angle_gamma    90

_space_group_name_H-M_alt    "P 1"
_space_group_IT_number       1

loop_
  _space_group_symop_operation_xyz
  'x, y, z'

loop_
  _atom_site_type_symbol
  _atom_site_label
  _atom_site_symmetry_multiplicity
  _atom_site_fract_x
  _atom_site_fract_y
  _atom_site_fract_z
  _atom_site_occupancy
  U   U1        1.0  0.40811  0.27250  0.94036  1.0000
  U   U2        1.0  0.40811  0.72750  0.44036  1.0000
  U   U3        1.0  0.14249  0.20029  0.25634  1.0000
  U   U4        1.0  0.14249  0.79971  0.75634  1.0000
  O   O1        1.0  0.47950  0.17770  0.90870  1.0000
  O   O2        1.0  0.47950  0.82230  0.40870  1.0000
  O   O3        1.0  0.33350  0.36610  0.97120  1.0000
  O   O4        1.0  0.33350  0.63390  0.47120  1.0000
  O   O5        1.0  0.04330  0.19130  0.19450  1.0000
  O   O6        1.0  0.04330  0.80870  0.69450  1.0000
  O   O7        1.0  0.24470  0.20890  0.31780  1.0000
  O   O8        1.0  0.24470  0.79110  0.81780  1.0000
  O   O9        1.0  0.62830  0.25280  0.00550  1.0000
  O   O10       1.0  0.62830  0.74720  0.50550  1.0000
  O   O11       1.0  0.39890  0.19030  0.02140  1.0000
  O   O12       1.0  0.39890  0.80970  0.52140  1.0000
  O   O13       1.0  0.36890  0.27500  0.21810  1.0000
  O   O14       1.0  0.36890  0.72500  0.71810  1.0000
  O   O15       1.0  0.39020  0.12870  0.23140  1.0000
  O   O16       1.0  0.39020  0.87130  0.73140  1.0000
  O   O17       1.0  0.14690  0.19020  0.94210  1.0000
  O   O18       1.0  0.14690  0.80980  0.44210  1.0000
  O   O19       1.0  0.17210  0.27910  0.87740  1.0000
  O   O20       1.0  0.17210  0.72090  0.37740  1.0000
  O   O21       1.0  0.12520  0.96610  0.76830  1.0000
  O   O22       1.0  0.12520  0.03390  0.26830  1.0000
  O   O23       1.0  0.92350  0.88550  0.79050  1.0000
  O   O24       1.0  0.92350  0.11450  0.29050  1.0000
  O   O25       1.0  0.45400  0.36850  0.86630  1.0000
  O   O26       1.0  0.45400  0.63150  0.36630  1.0000
  O   O27       1.0  0.65440  0.35950  0.92540  1.0000
  O   O28       1.0  0.65440  0.64050  0.42540  1.0000
  O   O29       1.0  0.92100  0.70880  0.78210  1.0000
  O   O30       1.0  0.92100  0.29120  0.28210  1.0000
  O   O31       1.0  0.12110  0.63080  0.75650  1.0000
  O   O32       1.0  0.12110  0.36920  0.25650  1.0000
  C   C1        1.0  0.61460  0.20460  0.08990  1.0000
  C   C2        1.0  0.61460  0.79540  0.58990  1.0000
  H   H1        1.0  0.73540  0.20120  0.08990  1.0000
  H   H2        1.0  0.73540  0.79880  0.58990  1.0000
  C   C3        1.0  0.56080  0.12130  0.11660  1.0000
  C   C4        1.0  0.56080  0.87870  0.61660  1.0000
  H   H3        1.0  0.58590  0.06660  0.09750  1.0000
  H   H4        1.0  0.58590  0.93340  0.59750  1.0000
  H   H5        1.0  0.44210  0.12340  0.11890  1.0000
  H   H6        1.0  0.44210  0.87660  0.61890  1.0000
  C   C5        1.0  0.65110  0.11820  0.16970  1.0000
  C   C6        1.0  0.65110  0.88180  0.66970  1.0000
  H   H7        1.0  0.61510  0.06460  0.18780  1.0000
  H   H8        1.0  0.61510  0.93540  0.68780  1.0000
  H   H9        1.0  0.76920  0.11220  0.16700  1.0000
  H   H10       1.0  0.76920  0.88780  0.66700  1.0000
  C   C7        1.0  0.61980  0.20270  0.19960  1.0000
  C   C8        1.0  0.61980  0.79730  0.69960  1.0000
  H   H11       1.0  0.69680  0.20070  0.23090  1.0000
  H   H12       1.0  0.69680  0.79930  0.73090  1.0000
  C   C9        1.0  0.65810  0.28830  0.17180  1.0000
  C   C10       1.0  0.65810  0.71170  0.67180  1.0000
  H   H13       1.0  0.77710  0.29300  0.17080  1.0000
  H   H14       1.0  0.77710  0.70700  0.67080  1.0000
  H   H15       1.0  0.62190  0.34110  0.19050  1.0000
  H   H16       1.0  0.62190  0.65890  0.69050  1.0000
  C   C11       1.0  0.57610  0.29070  0.11800  1.0000
  C   C12       1.0  0.57610  0.70930  0.61800  1.0000
  H   H17       1.0  0.61500  0.34390  0.10020  1.0000
  H   H18       1.0  0.61500  0.65610  0.60020  1.0000
  H   H19       1.0  0.45710  0.29640  0.11880  1.0000
  H   H20       1.0  0.45710  0.70360  0.61880  1.0000
  C   C13       1.0  0.54430  0.21420  0.03550  1.0000
  C   C14       1.0  0.54430  0.78580  0.53550  1.0000
  C   C15       1.0  0.44800  0.20270  0.21670  1.0000
  C   C16       1.0  0.44800  0.79730  0.71670  1.0000
  C   C17       1.0  0.91610  0.20150  0.87880  1.0000
  C   C18       1.0  0.91610  0.79850  0.37880  1.0000
  H   H21       1.0  0.84160  0.24690  0.89210  1.0000
  H   H22       1.0  0.84160  0.75310  0.39210  1.0000
  C   C19       1.0  0.86220  0.10770  0.89540  1.0000
  C   C20       1.0  0.86220  0.89230  0.39540  1.0000
  H   H23       1.0  0.88620  0.10210  0.93240  1.0000
  H   H24       1.0  0.88620  0.89790  0.43240  1.0000
  H   H25       1.0  0.74330  0.10180  0.88750  1.0000
  H   H26       1.0  0.74330  0.89820  0.38750  1.0000
  C   C21       1.0  0.94540  0.03230  0.87020  1.0000
  C   C22       1.0  0.94540  0.96770  0.37020  1.0000
  H   H27       1.0  0.90100  0.97370  0.88010  1.0000
  H   H28       1.0  0.90100  0.02630  0.38010  1.0000
  H   H29       1.0  0.06310  0.03320  0.88130  1.0000
  H   H30       1.0  0.06310  0.96680  0.38130  1.0000
  C   C23       1.0  0.91990  0.04250  0.81190  1.0000
  C   C24       1.0  0.91990  0.95750  0.31190  1.0000
  H   H31       1.0  0.80030  0.04150  0.80180  1.0000
  H   H32       1.0  0.80030  0.95850  0.30180  1.0000
  C   C25       1.0  0.98480  0.13260  0.79620  1.0000
  C   C26       1.0  0.98480  0.86740  0.29620  1.0000
  H   H33       1.0  0.96670  0.13880  0.75920  1.0000
  H   H34       1.0  0.96670  0.86120  0.25920  1.0000
  H   H35       1.0  0.10320  0.13550  0.80600  1.0000
  H   H36       1.0  0.10320  0.86450  0.30600  1.0000
  C   C27       1.0  0.90020  0.21030  0.82120  1.0000
  C   C28       1.0  0.90020  0.78970  0.32120  1.0000
  H   H37       1.0  0.78380  0.21110  0.80850  1.0000
  H   H38       1.0  0.78380  0.78890  0.30850  1.0000
  H   H39       1.0  0.94870  0.26830  0.81180  1.0000
  H   H40       1.0  0.94870  0.73170  0.31180  1.0000
  C   C29       1.0  0.08920  0.22450  0.90060  1.0000
  C   C30       1.0  0.08920  0.77550  0.40060  1.0000
  C   C31       1.0  0.99440  0.96050  0.78870  1.0000
  C   C32       1.0  0.99440  0.03950  0.28870  1.0000
  C   C33       1.0  0.69130  0.46030  0.85820  1.0000
  C   C34       1.0  0.69130  0.53970  0.35820  1.0000
  H   H41       1.0  0.64440  0.51920  0.86810  1.0000
  H   H42       1.0  0.64440  0.48080  0.36810  1.0000
  C   C35       1.0  0.86570  0.46830  0.87590  1.0000
  C   C36       1.0  0.86570  0.53170  0.37590  1.0000
  H   H43       1.0  0.92220  0.41210  0.86760  1.0000
  H   H44       1.0  0.92220  0.58790  0.36760  1.0000
  H   H45       1.0  0.87770  0.47540  0.91290  1.0000
  H   H46       1.0  0.87770  0.52460  0.41290  1.0000
  C   C37       1.0  0.94450  0.54790  0.85200  1.0000
  C   C38       1.0  0.94450  0.45210  0.35200  1.0000
  H   H47       1.0  0.06330  0.54560  0.86110  1.0000
  H   H48       1.0  0.06330  0.45440  0.36110  1.0000
  H   H49       1.0  0.90340  0.60450  0.86590  1.0000
  H   H50       1.0  0.90340  0.39550  0.36590  1.0000
  C   C39       1.0  0.91160  0.54950  0.79500  1.0000
  C   C40       1.0  0.91160  0.45050  0.29500  1.0000
  H   H51       1.0  0.96550  0.49590  0.78110  1.0000
  H   H52       1.0  0.96550  0.50410  0.28110  1.0000
  C   C41       1.0  0.72900  0.54340  0.77930  1.0000
  C   C42       1.0  0.72900  0.45660  0.27930  1.0000
  H   H53       1.0  0.67370  0.59780  0.79080  1.0000
  H   H54       1.0  0.67370  0.40220  0.29080  1.0000
  H   H55       1.0  0.70930  0.54010  0.74220  1.0000
  H   H56       1.0  0.70930  0.45990  0.24220  1.0000
  C   C43       1.0  0.66300  0.46000  0.80270  1.0000
  C   C44       1.0  0.66300  0.54000  0.30270  1.0000
  H   H57       1.0  0.54430  0.45600  0.79280  1.0000
  H   H58       1.0  0.54430  0.54400  0.29280  1.0000
  H   H59       1.0  0.71430  0.40590  0.78940  1.0000
  H   H60       1.0  0.71430  0.59410  0.28940  1.0000
  C   C45       1.0  0.59480  0.39050  0.88450  1.0000
  C   C46       1.0  0.59480  0.60950  0.38450  1.0000
  C   C47       1.0  0.98760  0.63340  0.77580  1.0000
  C   C48       1.0  0.98760  0.36660  0.27580  1.0000
