data_image0
_chemical_formula_structural       U12P8F16O52C48H48
_chemical_formula_sum              "U12 P8 F16 O52 C48 H48"
_cell_length_a       6.7796
_cell_length_b       17.2821
_cell_length_c       24.6754
_cell_angle_alpha    90
_cell_angle_beta     90
_cell_angle_gamma    90

_space_group_name_H-M_alt    "P 1"
_space_group_IT_number       1

loop_
  _space_group_symop_operation_xyz
  'x, y, z'

loop_
  _atom_site_type_symbol
  _atom_site_label
  _atom_site_symmetry_multiplicity
  _atom_site_fract_x
  _atom_site_fract_y
  _atom_site_fract_z
  _atom_site_occupancy
  U   U1        1.0  0.08796  0.71675  0.33042  1.0000
  U   U2        1.0  0.91204  0.21675  0.33042  1.0000
  U   U3        1.0  0.08796  0.78325  0.83042  1.0000
  U   U4        1.0  0.08796  0.71675  0.16958  1.0000
  U   U5        1.0  0.91204  0.28325  0.66958  1.0000
  U   U6        1.0  0.08796  0.78325  0.66958  1.0000
  U   U7        1.0  0.91204  0.21675  0.16958  1.0000
  U   U8        1.0  0.91204  0.28325  0.83042  1.0000
  U   U9        1.0  0.91071  0.75000  0.50000  1.0000
  U   U10       1.0  0.08929  0.25000  0.50000  1.0000
  U   U11       1.0  0.91071  0.75000  0.00000  1.0000
  U   U12       1.0  0.08929  0.25000  0.00000  1.0000
  P   P1        1.0  0.59110  0.68682  0.38783  1.0000
  P   P2        1.0  0.40890  0.18682  0.38783  1.0000
  P   P3        1.0  0.59110  0.81318  0.88783  1.0000
  P   P4        1.0  0.59110  0.68682  0.11217  1.0000
  P   P5        1.0  0.40890  0.31318  0.61217  1.0000
  P   P6        1.0  0.59110  0.81318  0.61217  1.0000
  P   P7        1.0  0.40890  0.18682  0.11217  1.0000
  P   P8        1.0  0.40890  0.31318  0.88783  1.0000
  F   F1        1.0  0.90600  0.73530  0.25000  1.0000
  F   F2        1.0  0.09400  0.23530  0.25000  1.0000
  F   F3        1.0  0.90600  0.76470  0.75000  1.0000
  F   F4        1.0  0.09400  0.26470  0.75000  1.0000
  F   F5        1.0  0.27890  0.73820  0.25000  1.0000
  F   F6        1.0  0.72110  0.23820  0.25000  1.0000
  F   F7        1.0  0.27890  0.76180  0.75000  1.0000
  F   F8        1.0  0.72110  0.26180  0.75000  1.0000
  F   F9        1.0  0.04430  0.70010  0.42115  1.0000
  F   F10       1.0  0.95570  0.20010  0.42115  1.0000
  F   F11       1.0  0.04430  0.79990  0.92115  1.0000
  F   F12       1.0  0.04430  0.70010  0.07885  1.0000
  F   F13       1.0  0.95570  0.29990  0.57885  1.0000
  F   F14       1.0  0.04430  0.79990  0.57885  1.0000
  F   F15       1.0  0.95570  0.20010  0.07885  1.0000
  F   F16       1.0  0.95570  0.29990  0.92115  1.0000
  O   O1        1.0  0.06090  0.81810  0.33920  1.0000
  O   O2        1.0  0.93910  0.31810  0.33920  1.0000
  O   O3        1.0  0.06090  0.68190  0.83920  1.0000
  O   O4        1.0  0.06090  0.81810  0.16080  1.0000
  O   O5        1.0  0.93910  0.18190  0.66080  1.0000
  O   O6        1.0  0.06090  0.68190  0.66080  1.0000
  O   O7        1.0  0.93910  0.31810  0.16080  1.0000
  O   O8        1.0  0.93910  0.18190  0.83920  1.0000
  O   O9        1.0  0.11310  0.61610  0.31710  1.0000
  O   O10       1.0  0.88690  0.11610  0.31710  1.0000
  O   O11       1.0  0.11310  0.88390  0.81710  1.0000
  O   O12       1.0  0.11310  0.61610  0.18290  1.0000
  O   O13       1.0  0.88690  0.38390  0.68290  1.0000
  O   O14       1.0  0.11310  0.88390  0.68290  1.0000
  O   O15       1.0  0.88690  0.11610  0.18290  1.0000
  O   O16       1.0  0.88690  0.38390  0.81710  1.0000
  O   O17       1.0  0.75270  0.69350  0.34420  1.0000
  O   O18       1.0  0.24730  0.19350  0.34420  1.0000
  O   O19       1.0  0.75270  0.80650  0.84420  1.0000
  O   O20       1.0  0.75270  0.69350  0.15580  1.0000
  O   O21       1.0  0.24730  0.30650  0.65580  1.0000
  O   O22       1.0  0.75270  0.80650  0.65580  1.0000
  O   O23       1.0  0.24730  0.19350  0.15580  1.0000
  O   O24       1.0  0.24730  0.30650  0.84420  1.0000
  O   O25       1.0  0.91700  0.65490  0.52570  1.0000
  O   O26       1.0  0.08300  0.15490  0.52570  1.0000
  O   O27       1.0  0.91700  0.84510  0.02570  1.0000
  O   O28       1.0  0.91700  0.65490  0.97430  1.0000
  O   O29       1.0  0.08300  0.34510  0.47430  1.0000
  O   O30       1.0  0.91700  0.84510  0.47430  1.0000
  O   O31       1.0  0.08300  0.15490  0.97430  1.0000
  O   O32       1.0  0.08300  0.34510  0.02570  1.0000
  O   O33       1.0  0.27660  0.75000  0.50000  1.0000
  O   O34       1.0  0.72340  0.25000  0.50000  1.0000
  O   O35       1.0  0.27660  0.75000  0.00000  1.0000
  O   O36       1.0  0.72340  0.25000  0.00000  1.0000
  O   O37       1.0  0.39860  0.72050  0.36490  1.0000
  O   O38       1.0  0.60140  0.22050  0.36490  1.0000
  O   O39       1.0  0.39860  0.77950  0.86490  1.0000
  O   O40       1.0  0.39860  0.72050  0.13510  1.0000
  O   O41       1.0  0.60140  0.27950  0.63510  1.0000
  O   O42       1.0  0.39860  0.77950  0.63510  1.0000
  O   O43       1.0  0.60140  0.22050  0.13510  1.0000
  O   O44       1.0  0.60140  0.27950  0.86490  1.0000
  O   O45       1.0  0.64420  0.72670  0.44090  1.0000
  O   O46       1.0  0.35580  0.22670  0.44090  1.0000
  O   O47       1.0  0.64420  0.77330  0.94090  1.0000
  O   O48       1.0  0.64420  0.72670  0.05910  1.0000
  O   O49       1.0  0.35580  0.27330  0.55910  1.0000
  O   O50       1.0  0.64420  0.77330  0.55910  1.0000
  O   O51       1.0  0.35580  0.22670  0.05910  1.0000
  O   O52       1.0  0.35580  0.27330  0.94090  1.0000
  C   C1        1.0  0.55720  0.58610  0.40320  1.0000
  C   C2        1.0  0.44280  0.08610  0.40320  1.0000
  C   C3        1.0  0.55720  0.91390  0.90320  1.0000
  C   C4        1.0  0.55720  0.58610  0.09680  1.0000
  C   C5        1.0  0.44280  0.41390  0.59680  1.0000
  C   C6        1.0  0.55720  0.91390  0.59680  1.0000
  C   C7        1.0  0.44280  0.08610  0.09680  1.0000
  C   C8        1.0  0.44280  0.41390  0.90320  1.0000
  C   C9        1.0  0.37890  0.55990  0.42640  1.0000
  C   C10       1.0  0.62110  0.05990  0.42640  1.0000
  C   C11       1.0  0.37890  0.94010  0.92640  1.0000
  C   C12       1.0  0.37890  0.55990  0.07360  1.0000
  C   C13       1.0  0.62110  0.44010  0.57360  1.0000
  C   C14       1.0  0.37890  0.94010  0.57360  1.0000
  C   C15       1.0  0.62110  0.05990  0.07360  1.0000
  C   C16       1.0  0.62110  0.44010  0.92640  1.0000
  C   C17       1.0  0.70880  0.53290  0.39690  1.0000
  C   C18       1.0  0.29120  0.03290  0.39690  1.0000
  C   C19       1.0  0.70880  0.96710  0.89690  1.0000
  C   C20       1.0  0.70880  0.53290  0.10310  1.0000
  C   C21       1.0  0.29120  0.46710  0.60310  1.0000
  C   C22       1.0  0.70880  0.96710  0.60310  1.0000
  C   C23       1.0  0.29120  0.03290  0.10310  1.0000
  C   C24       1.0  0.29120  0.46710  0.89690  1.0000
  C   C25       1.0  0.50800  0.43270  0.43420  1.0000
  C   C26       1.0  0.49200  0.93270  0.43420  1.0000
  C   C27       1.0  0.50800  0.06730  0.93420  1.0000
  C   C28       1.0  0.50800  0.43270  0.06580  1.0000
  C   C29       1.0  0.49200  0.56730  0.56580  1.0000
  C   C30       1.0  0.50800  0.06730  0.56580  1.0000
  C   C31       1.0  0.49200  0.93270  0.06580  1.0000
  C   C32       1.0  0.49200  0.56730  0.93420  1.0000
  C   C33       1.0  0.35570  0.48460  0.44190  1.0000
  C   C34       1.0  0.64430  0.98460  0.44190  1.0000
  C   C35       1.0  0.35570  0.01540  0.94190  1.0000
  C   C36       1.0  0.35570  0.48460  0.05810  1.0000
  C   C37       1.0  0.64430  0.51540  0.55810  1.0000
  C   C38       1.0  0.35570  0.01540  0.55810  1.0000
  C   C39       1.0  0.64430  0.98460  0.05810  1.0000
  C   C40       1.0  0.64430  0.51540  0.94190  1.0000
  C   C41       1.0  0.68350  0.45590  0.41260  1.0000
  C   C42       1.0  0.31650  0.95590  0.41260  1.0000
  C   C43       1.0  0.68350  0.04410  0.91260  1.0000
  C   C44       1.0  0.68350  0.45590  0.08740  1.0000
  C   C45       1.0  0.31650  0.54410  0.58740  1.0000
  C   C46       1.0  0.68350  0.04410  0.58740  1.0000
  C   C47       1.0  0.31650  0.95590  0.08740  1.0000
  C   C48       1.0  0.31650  0.54410  0.91260  1.0000
  H   H1        1.0  0.35740  0.76560  0.52490  1.0000
  H   H2        1.0  0.64260  0.26560  0.52490  1.0000
  H   H3        1.0  0.35740  0.73440  0.02490  1.0000
  H   H4        1.0  0.35740  0.76560  0.97510  1.0000
  H   H5        1.0  0.64260  0.23440  0.47510  1.0000
  H   H6        1.0  0.35740  0.73440  0.47510  1.0000
  H   H7        1.0  0.64260  0.26560  0.97510  1.0000
  H   H8        1.0  0.64260  0.23440  0.02490  1.0000
  H   H9        1.0  0.26770  0.59740  0.43170  1.0000
  H   H10       1.0  0.73230  0.09740  0.43170  1.0000
  H   H11       1.0  0.26770  0.90260  0.93170  1.0000
  H   H12       1.0  0.26770  0.59740  0.06830  1.0000
  H   H13       1.0  0.73230  0.40260  0.56830  1.0000
  H   H14       1.0  0.26770  0.90260  0.56830  1.0000
  H   H15       1.0  0.73230  0.09740  0.06830  1.0000
  H   H16       1.0  0.73230  0.40260  0.93170  1.0000
  H   H17       1.0  0.83720  0.54950  0.38090  1.0000
  H   H18       1.0  0.16280  0.04950  0.38090  1.0000
  H   H19       1.0  0.83720  0.95050  0.88090  1.0000
  H   H20       1.0  0.83720  0.54950  0.11910  1.0000
  H   H21       1.0  0.16280  0.45050  0.61910  1.0000
  H   H22       1.0  0.83720  0.95050  0.61910  1.0000
  H   H23       1.0  0.16280  0.04950  0.11910  1.0000
  H   H24       1.0  0.16280  0.45050  0.88090  1.0000
  H   H25       1.0  0.48920  0.37730  0.44450  1.0000
  H   H26       1.0  0.51080  0.87730  0.44450  1.0000
  H   H27       1.0  0.48920  0.12270  0.94450  1.0000
  H   H28       1.0  0.48920  0.37730  0.05550  1.0000
  H   H29       1.0  0.51080  0.62270  0.55550  1.0000
  H   H30       1.0  0.48920  0.12270  0.55550  1.0000
  H   H31       1.0  0.51080  0.87730  0.05550  1.0000
  H   H32       1.0  0.51080  0.62270  0.94450  1.0000
  H   H33       1.0  0.22890  0.46710  0.45860  1.0000
  H   H34       1.0  0.77110  0.96710  0.45860  1.0000
  H   H35       1.0  0.22890  0.03290  0.95860  1.0000
  H   H36       1.0  0.22890  0.46710  0.04140  1.0000
  H   H37       1.0  0.77110  0.53290  0.54140  1.0000
  H   H38       1.0  0.22890  0.03290  0.54140  1.0000
  H   H39       1.0  0.77110  0.96710  0.04140  1.0000
  H   H40       1.0  0.77110  0.53290  0.95860  1.0000
  H   H41       1.0  0.79230  0.41840  0.40830  1.0000
  H   H42       1.0  0.20770  0.91840  0.40830  1.0000
  H   H43       1.0  0.79230  0.08160  0.90830  1.0000
  H   H44       1.0  0.79230  0.41840  0.09170  1.0000
  H   H45       1.0  0.20770  0.58160  0.59170  1.0000
  H   H46       1.0  0.79230  0.08160  0.59170  1.0000
  H   H47       1.0  0.20770  0.91840  0.09170  1.0000
  H   H48       1.0  0.20770  0.58160  0.90830  1.0000
