data_image0
_chemical_formula_structural       C16H8C8H8C24H8C8H8C16H8C8H8C24H8C8H8C16H8C8H8C24H8C8H8C16H8C8H8C24H8C8H8C16H8C8H8C24H8C8H8C16H8C8H8C24H8C8H8C8H8Mn24O104H8O32P16Cl8H16
_chemical_formula_sum              "C344 H224 Mn24 O136 P16 Cl8"
_cell_length_a       24.562
_cell_length_b       15.9487
_cell_length_c       32.901
_cell_angle_alpha    90
_cell_angle_beta     108.427
_cell_angle_gamma    90

_space_group_name_H-M_alt    "P 1"
_space_group_IT_number       1

loop_
  _space_group_symop_operation_xyz
  'x, y, z'

loop_
  _atom_site_type_symbol
  _atom_site_label
  _atom_site_symmetry_multiplicity
  _atom_site_fract_x
  _atom_site_fract_y
  _atom_site_fract_z
  _atom_site_occupancy
  C   C1        1.0  0.23541  0.53520  0.10083  1.0000
  C   C2        1.0  0.76459  0.53520  0.39917  1.0000
  C   C3        1.0  0.73541  0.03520  0.10083  1.0000
  C   C4        1.0  0.26459  0.03520  0.39917  1.0000
  C   C5        1.0  0.76459  0.46480  0.89917  1.0000
  C   C6        1.0  0.23541  0.46480  0.60083  1.0000
  C   C7        1.0  0.26459  0.96480  0.89917  1.0000
  C   C8        1.0  0.73541  0.96480  0.60083  1.0000
  C   C9        1.0  0.25510  0.61570  0.09723  1.0000
  C   C10       1.0  0.74490  0.61570  0.40277  1.0000
  C   C11       1.0  0.75510  0.11570  0.09723  1.0000
  C   C12       1.0  0.24490  0.11570  0.40277  1.0000
  C   C13       1.0  0.74490  0.38430  0.90277  1.0000
  C   C14       1.0  0.25510  0.38430  0.59723  1.0000
  C   C15       1.0  0.24490  0.88430  0.90277  1.0000
  C   C16       1.0  0.75510  0.88430  0.59723  1.0000
  H   H1        1.0  0.29060  0.62280  0.09180  1.0000
  H   H2        1.0  0.70940  0.62280  0.40820  1.0000
  H   H3        1.0  0.79060  0.12280  0.09180  1.0000
  H   H4        1.0  0.20940  0.12280  0.40820  1.0000
  H   H5        1.0  0.70940  0.37720  0.90820  1.0000
  H   H6        1.0  0.29060  0.37720  0.59180  1.0000
  H   H7        1.0  0.20940  0.87720  0.90820  1.0000
  H   H8        1.0  0.79060  0.87720  0.59180  1.0000
  C   C17       1.0  0.22390  0.68560  0.10137  1.0000
  C   C18       1.0  0.77610  0.68560  0.39863  1.0000
  C   C19       1.0  0.72390  0.18560  0.10137  1.0000
  C   C20       1.0  0.27610  0.18560  0.39863  1.0000
  C   C21       1.0  0.77610  0.31440  0.89863  1.0000
  C   C22       1.0  0.22390  0.31440  0.60137  1.0000
  C   C23       1.0  0.27610  0.81440  0.89863  1.0000
  C   C24       1.0  0.72390  0.81440  0.60137  1.0000
  H   H9        1.0  0.23820  0.74020  0.09930  1.0000
  H   H10       1.0  0.76180  0.74020  0.40070  1.0000
  H   H11       1.0  0.73820  0.24020  0.09930  1.0000
  H   H12       1.0  0.26180  0.24020  0.40070  1.0000
  H   H13       1.0  0.76180  0.25980  0.90070  1.0000
  H   H14       1.0  0.23820  0.25980  0.59930  1.0000
  H   H15       1.0  0.26180  0.75980  0.90070  1.0000
  H   H16       1.0  0.73820  0.75980  0.59930  1.0000
  C   C25       1.0  0.17090  0.67550  0.10869  1.0000
  C   C26       1.0  0.82910  0.67550  0.39131  1.0000
  C   C27       1.0  0.67090  0.17550  0.10869  1.0000
  C   C28       1.0  0.32910  0.17550  0.39131  1.0000
  C   C29       1.0  0.82910  0.32450  0.89131  1.0000
  C   C30       1.0  0.17090  0.32450  0.60869  1.0000
  C   C31       1.0  0.32910  0.82450  0.89131  1.0000
  C   C32       1.0  0.67090  0.82450  0.60869  1.0000
  C   C33       1.0  0.14010  0.75330  0.11576  1.0000
  C   C34       1.0  0.85990  0.75330  0.38424  1.0000
  C   C35       1.0  0.64010  0.25330  0.11576  1.0000
  C   C36       1.0  0.35990  0.25330  0.38424  1.0000
  C   C37       1.0  0.85990  0.24670  0.88424  1.0000
  C   C38       1.0  0.14010  0.24670  0.61576  1.0000
  C   C39       1.0  0.35990  0.74670  0.88424  1.0000
  C   C40       1.0  0.64010  0.74670  0.61576  1.0000
  C   C41       1.0  0.15040  0.59510  0.11144  1.0000
  C   C42       1.0  0.84960  0.59510  0.38856  1.0000
  C   C43       1.0  0.65040  0.09510  0.11144  1.0000
  C   C44       1.0  0.34960  0.09510  0.38856  1.0000
  C   C45       1.0  0.84960  0.40490  0.88856  1.0000
  C   C46       1.0  0.15040  0.40490  0.61144  1.0000
  C   C47       1.0  0.34960  0.90490  0.88856  1.0000
  C   C48       1.0  0.65040  0.90490  0.61144  1.0000
  H   H17       1.0  0.11440  0.58810  0.11610  1.0000
  H   H18       1.0  0.88560  0.58810  0.38390  1.0000
  H   H19       1.0  0.61440  0.08810  0.11610  1.0000
  H   H20       1.0  0.38560  0.08810  0.38390  1.0000
  H   H21       1.0  0.88560  0.41190  0.88390  1.0000
  H   H22       1.0  0.11440  0.41190  0.61610  1.0000
  H   H23       1.0  0.38560  0.91190  0.88390  1.0000
  H   H24       1.0  0.61440  0.91190  0.61610  1.0000
  C   C49       1.0  0.18180  0.52470  0.10746  1.0000
  C   C50       1.0  0.81820  0.52470  0.39254  1.0000
  C   C51       1.0  0.68180  0.02470  0.10746  1.0000
  C   C52       1.0  0.31820  0.02470  0.39254  1.0000
  C   C53       1.0  0.81820  0.47530  0.89254  1.0000
  C   C54       1.0  0.18180  0.47530  0.60746  1.0000
  C   C55       1.0  0.31820  0.97530  0.89254  1.0000
  C   C56       1.0  0.68180  0.97530  0.60746  1.0000
  H   H25       1.0  0.16730  0.47000  0.10920  1.0000
  H   H26       1.0  0.83270  0.47000  0.39080  1.0000
  H   H27       1.0  0.66730  0.97000  0.10920  1.0000
  H   H28       1.0  0.33270  0.97000  0.39080  1.0000
  H   H29       1.0  0.83270  0.53000  0.89080  1.0000
  H   H30       1.0  0.16730  0.53000  0.60920  1.0000
  H   H31       1.0  0.33270  0.03000  0.89080  1.0000
  H   H32       1.0  0.66730  0.03000  0.60920  1.0000
  C   C57       1.0  0.24189  0.35480  0.08358  1.0000
  C   C58       1.0  0.75811  0.35480  0.41642  1.0000
  C   C59       1.0  0.74189  0.85480  0.08358  1.0000
  C   C60       1.0  0.25811  0.85480  0.41642  1.0000
  C   C61       1.0  0.75811  0.64520  0.91642  1.0000
  C   C62       1.0  0.24189  0.64520  0.58358  1.0000
  C   C63       1.0  0.25811  0.14520  0.91642  1.0000
  C   C64       1.0  0.74189  0.14520  0.58358  1.0000
  C   C65       1.0  0.22640  0.33200  0.04047  1.0000
  C   C66       1.0  0.77360  0.33200  0.45953  1.0000
  C   C67       1.0  0.72640  0.83200  0.04047  1.0000
  C   C68       1.0  0.27360  0.83200  0.45953  1.0000
  C   C69       1.0  0.77360  0.66800  0.95953  1.0000
  C   C70       1.0  0.22640  0.66800  0.54047  1.0000
  C   C71       1.0  0.27360  0.16800  0.95953  1.0000
  C   C72       1.0  0.72640  0.16800  0.54047  1.0000
  H   H33       1.0  0.23520  0.36800  0.02040  1.0000
  H   H34       1.0  0.76480  0.36800  0.47960  1.0000
  H   H35       1.0  0.73520  0.86800  0.02040  1.0000
  H   H36       1.0  0.26480  0.86800  0.47960  1.0000
  H   H37       1.0  0.76480  0.63200  0.97960  1.0000
  H   H38       1.0  0.23520  0.63200  0.52040  1.0000
  H   H39       1.0  0.26480  0.13200  0.97960  1.0000
  H   H40       1.0  0.73520  0.13200  0.52040  1.0000
  C   C73       1.0  0.19814  0.25680  0.02683  1.0000
  C   C74       1.0  0.80186  0.25680  0.47317  1.0000
  C   C75       1.0  0.69814  0.75680  0.02683  1.0000
  C   C76       1.0  0.30186  0.75680  0.47317  1.0000
  C   C77       1.0  0.80186  0.74320  0.97317  1.0000
  C   C78       1.0  0.19814  0.74320  0.52683  1.0000
  C   C79       1.0  0.30186  0.24320  0.97317  1.0000
  C   C80       1.0  0.69814  0.24320  0.52683  1.0000
  H   H41       1.0  0.18700  0.24240  0.99730  1.0000
  H   H42       1.0  0.81300  0.24240  0.50270  1.0000
  H   H43       1.0  0.68700  0.74240  0.99730  1.0000
  H   H44       1.0  0.31300  0.74240  0.50270  1.0000
  H   H45       1.0  0.81300  0.75760  0.00270  1.0000
  H   H46       1.0  0.18700  0.75760  0.49730  1.0000
  H   H47       1.0  0.31300  0.25760  0.00270  1.0000
  H   H48       1.0  0.68700  0.25760  0.49730  1.0000
  C   C81       1.0  0.18594  0.20210  0.05580  1.0000
  C   C82       1.0  0.81406  0.20210  0.44420  1.0000
  C   C83       1.0  0.68594  0.70210  0.05580  1.0000
  C   C84       1.0  0.31406  0.70210  0.44420  1.0000
  C   C85       1.0  0.81406  0.79790  0.94420  1.0000
  C   C86       1.0  0.18594  0.79790  0.55580  1.0000
  C   C87       1.0  0.31406  0.29790  0.94420  1.0000
  C   C88       1.0  0.68594  0.29790  0.55580  1.0000
  C   C89       1.0  0.16308  0.11390  0.04170  1.0000
  C   C90       1.0  0.83692  0.11390  0.45830  1.0000
  C   C91       1.0  0.66308  0.61390  0.04170  1.0000
  C   C92       1.0  0.33692  0.61390  0.45830  1.0000
  C   C93       1.0  0.83692  0.88610  0.95830  1.0000
  C   C94       1.0  0.16308  0.88610  0.54170  1.0000
  C   C95       1.0  0.33692  0.38610  0.95830  1.0000
  C   C96       1.0  0.66308  0.38610  0.54170  1.0000
  C   C97       1.0  0.19940  0.22630  0.09882  1.0000
  C   C98       1.0  0.80060  0.22630  0.40118  1.0000
  C   C99       1.0  0.69940  0.72630  0.09882  1.0000
  C   C100      1.0  0.30060  0.72630  0.40118  1.0000
  C   C101      1.0  0.80060  0.77370  0.90118  1.0000
  C   C102      1.0  0.19940  0.77370  0.59882  1.0000
  C   C103      1.0  0.30060  0.27370  0.90118  1.0000
  C   C104      1.0  0.69940  0.27370  0.59882  1.0000
  H   H49       1.0  0.18960  0.19060  0.11850  1.0000
  H   H50       1.0  0.81040  0.19060  0.38150  1.0000
  H   H51       1.0  0.68960  0.69060  0.11850  1.0000
  H   H52       1.0  0.31040  0.69060  0.38150  1.0000
  H   H53       1.0  0.81040  0.80940  0.88150  1.0000
  H   H54       1.0  0.18960  0.80940  0.61850  1.0000
  H   H55       1.0  0.31040  0.30940  0.88150  1.0000
  H   H56       1.0  0.68960  0.30940  0.61850  1.0000
  C   C105      1.0  0.22680  0.30150  0.11283  1.0000
  C   C106      1.0  0.77320  0.30150  0.38717  1.0000
  C   C107      1.0  0.72680  0.80150  0.11283  1.0000
  C   C108      1.0  0.27320  0.80150  0.38717  1.0000
  C   C109      1.0  0.77320  0.69850  0.88717  1.0000
  C   C110      1.0  0.22680  0.69850  0.61283  1.0000
  C   C111      1.0  0.27320  0.19850  0.88717  1.0000
  C   C112      1.0  0.72680  0.19850  0.61283  1.0000
  H   H57       1.0  0.23540  0.31750  0.14200  1.0000
  H   H58       1.0  0.76460  0.31750  0.35800  1.0000
  H   H59       1.0  0.73540  0.81750  0.14200  1.0000
  H   H60       1.0  0.26460  0.81750  0.35800  1.0000
  H   H61       1.0  0.76460  0.68250  0.85800  1.0000
  H   H62       1.0  0.23540  0.68250  0.64200  1.0000
  H   H63       1.0  0.26460  0.18250  0.85800  1.0000
  H   H64       1.0  0.73540  0.18250  0.64200  1.0000
  C   C113      1.0  0.32188  0.43070  0.15844  1.0000
  C   C114      1.0  0.67812  0.43070  0.34156  1.0000
  C   C115      1.0  0.82188  0.93070  0.15844  1.0000
  C   C116      1.0  0.17812  0.93070  0.34156  1.0000
  C   C117      1.0  0.67812  0.56930  0.84156  1.0000
  C   C118      1.0  0.32188  0.56930  0.65844  1.0000
  C   C119      1.0  0.17812  0.06930  0.84156  1.0000
  C   C120      1.0  0.82188  0.06930  0.65844  1.0000
  C   C121      1.0  0.37240  0.38400  0.16938  1.0000
  C   C122      1.0  0.62760  0.38400  0.33062  1.0000
  C   C123      1.0  0.87240  0.88400  0.16938  1.0000
  C   C124      1.0  0.12760  0.88400  0.33062  1.0000
  C   C125      1.0  0.62760  0.61600  0.83062  1.0000
  C   C126      1.0  0.37240  0.61600  0.66938  1.0000
  C   C127      1.0  0.12760  0.11600  0.83062  1.0000
  C   C128      1.0  0.87240  0.11600  0.66938  1.0000
  H   H65       1.0  0.38660  0.36470  0.14730  1.0000
  H   H66       1.0  0.61340  0.36470  0.35270  1.0000
  H   H67       1.0  0.88660  0.86470  0.14730  1.0000
  H   H68       1.0  0.11340  0.86470  0.35270  1.0000
  H   H69       1.0  0.61340  0.63530  0.85270  1.0000
  H   H70       1.0  0.38660  0.63530  0.64730  1.0000
  H   H71       1.0  0.11340  0.13530  0.85270  1.0000
  H   H72       1.0  0.88660  0.13530  0.64730  1.0000
  C   C129      1.0  0.40290  0.36490  0.21215  1.0000
  C   C130      1.0  0.59710  0.36490  0.28785  1.0000
  C   C131      1.0  0.90290  0.86490  0.21215  1.0000
  C   C132      1.0  0.09710  0.86490  0.28785  1.0000
  C   C133      1.0  0.59710  0.63510  0.78785  1.0000
  C   C134      1.0  0.40290  0.63510  0.71215  1.0000
  C   C135      1.0  0.09710  0.13510  0.78785  1.0000
  C   C136      1.0  0.90290  0.13510  0.71215  1.0000
  H   H73       1.0  0.43700  0.33230  0.21890  1.0000
  H   H74       1.0  0.56300  0.33230  0.28110  1.0000
  H   H75       1.0  0.93700  0.83230  0.21890  1.0000
  H   H76       1.0  0.06300  0.83230  0.28110  1.0000
  H   H77       1.0  0.56300  0.66770  0.78110  1.0000
  H   H78       1.0  0.43700  0.66770  0.71890  1.0000
  H   H79       1.0  0.06300  0.16770  0.78110  1.0000
  H   H80       1.0  0.93700  0.16770  0.71890  1.0000
  C   C137      1.0  0.38300  0.39380  0.24447  1.0000
  C   C138      1.0  0.61700  0.39380  0.25553  1.0000
  C   C139      1.0  0.88300  0.89380  0.24447  1.0000
  C   C140      1.0  0.11700  0.89380  0.25553  1.0000
  C   C141      1.0  0.61700  0.60620  0.75553  1.0000
  C   C142      1.0  0.38300  0.60620  0.74447  1.0000
  C   C143      1.0  0.11700  0.10620  0.75553  1.0000
  C   C144      1.0  0.88300  0.10620  0.74447  1.0000
  C   C145      1.0  0.41470  0.37330  0.29051  1.0000
  C   C146      1.0  0.58530  0.37330  0.20949  1.0000
  C   C147      1.0  0.91470  0.87330  0.29051  1.0000
  C   C148      1.0  0.08530  0.87330  0.20949  1.0000
  C   C149      1.0  0.58530  0.62670  0.70949  1.0000
  C   C150      1.0  0.41470  0.62670  0.79051  1.0000
  C   C151      1.0  0.08530  0.12670  0.70949  1.0000
  C   C152      1.0  0.91470  0.12670  0.79051  1.0000
  C   C153      1.0  0.33220  0.43990  0.23393  1.0000
  C   C154      1.0  0.66780  0.43990  0.26607  1.0000
  C   C155      1.0  0.83220  0.93990  0.23393  1.0000
  C   C156      1.0  0.16780  0.93990  0.26607  1.0000
  C   C157      1.0  0.66780  0.56010  0.76607  1.0000
  C   C158      1.0  0.33220  0.56010  0.73393  1.0000
  C   C159      1.0  0.16780  0.06010  0.76607  1.0000
  C   C160      1.0  0.83220  0.06010  0.73393  1.0000
  H   H81       1.0  0.31770  0.45830  0.25600  1.0000
  H   H82       1.0  0.68230  0.45830  0.24400  1.0000
  H   H83       1.0  0.81770  0.95830  0.25600  1.0000
  H   H84       1.0  0.18230  0.95830  0.24400  1.0000
  H   H85       1.0  0.68230  0.54170  0.74400  1.0000
  H   H86       1.0  0.31770  0.54170  0.75600  1.0000
  H   H87       1.0  0.18230  0.04170  0.74400  1.0000
  H   H88       1.0  0.81770  0.04170  0.75600  1.0000
  C   C161      1.0  0.30240  0.45920  0.19158  1.0000
  C   C162      1.0  0.69760  0.45920  0.30842  1.0000
  C   C163      1.0  0.80240  0.95920  0.19158  1.0000
  C   C164      1.0  0.19760  0.95920  0.30842  1.0000
  C   C165      1.0  0.69760  0.54080  0.80842  1.0000
  C   C166      1.0  0.30240  0.54080  0.69158  1.0000
  C   C167      1.0  0.19760  0.04080  0.80842  1.0000
  C   C168      1.0  0.80240  0.04080  0.69158  1.0000
  H   H89       1.0  0.26850  0.49220  0.18510  1.0000
  H   H90       1.0  0.73150  0.49220  0.31490  1.0000
  H   H91       1.0  0.76850  0.99220  0.18510  1.0000
  H   H92       1.0  0.23150  0.99220  0.31490  1.0000
  H   H93       1.0  0.73150  0.50780  0.81490  1.0000
  H   H94       1.0  0.26850  0.50780  0.68510  1.0000
  H   H95       1.0  0.23150  0.00780  0.81490  1.0000
  H   H96       1.0  0.76850  0.00780  0.68510  1.0000
  C   C169      1.0  0.16264  0.66540  0.91227  1.0000
  C   C170      1.0  0.83736  0.66540  0.58773  1.0000
  C   C171      1.0  0.66264  0.16540  0.91227  1.0000
  C   C172      1.0  0.33736  0.16540  0.58773  1.0000
  C   C173      1.0  0.83736  0.33460  0.08773  1.0000
  C   C174      1.0  0.16264  0.33460  0.41227  1.0000
  C   C175      1.0  0.33736  0.83460  0.08773  1.0000
  C   C176      1.0  0.66264  0.83460  0.41227  1.0000
  C   C177      1.0  0.18630  0.66880  0.95709  1.0000
  C   C178      1.0  0.81370  0.66880  0.54291  1.0000
  C   C179      1.0  0.68630  0.16880  0.95709  1.0000
  C   C180      1.0  0.31370  0.16880  0.54291  1.0000
  C   C181      1.0  0.81370  0.33120  0.04291  1.0000
  C   C182      1.0  0.18630  0.33120  0.45709  1.0000
  C   C183      1.0  0.31370  0.83120  0.04291  1.0000
  C   C184      1.0  0.68630  0.83120  0.45709  1.0000
  H   H97       1.0  0.21160  0.62570  0.97180  1.0000
  H   H98       1.0  0.78840  0.62570  0.52820  1.0000
  H   H99       1.0  0.71160  0.12570  0.97180  1.0000
  H   H100      1.0  0.28840  0.12570  0.52820  1.0000
  H   H101      1.0  0.78840  0.37430  0.02820  1.0000
  H   H102      1.0  0.21160  0.37430  0.47180  1.0000
  H   H103      1.0  0.28840  0.87430  0.02820  1.0000
  H   H104      1.0  0.71160  0.87430  0.47180  1.0000
  C   C185      1.0  0.17320  0.73390  0.98008  1.0000
  C   C186      1.0  0.82680  0.73390  0.51992  1.0000
  C   C187      1.0  0.67320  0.23390  0.98008  1.0000
  C   C188      1.0  0.32680  0.23390  0.51992  1.0000
  C   C189      1.0  0.82680  0.26610  0.01992  1.0000
  C   C190      1.0  0.17320  0.26610  0.48008  1.0000
  C   C191      1.0  0.32680  0.76610  0.01992  1.0000
  C   C192      1.0  0.67320  0.76610  0.48008  1.0000
  H   H105      1.0  0.18920  0.73470  0.01040  1.0000
  H   H106      1.0  0.81080  0.73470  0.48960  1.0000
  H   H107      1.0  0.68920  0.23470  0.01040  1.0000
  H   H108      1.0  0.31080  0.23470  0.48960  1.0000
  H   H109      1.0  0.81080  0.26530  0.98960  1.0000
  H   H110      1.0  0.18920  0.26530  0.51040  1.0000
  H   H111      1.0  0.31080  0.76530  0.98960  1.0000
  H   H112      1.0  0.68920  0.76530  0.51040  1.0000
  C   C193      1.0  0.13671  0.79880  0.95925  1.0000
  C   C194      1.0  0.86329  0.79880  0.54075  1.0000
  C   C195      1.0  0.63671  0.29880  0.95925  1.0000
  C   C196      1.0  0.36329  0.29880  0.54075  1.0000
  C   C197      1.0  0.86329  0.20120  0.04075  1.0000
  C   C198      1.0  0.13671  0.20120  0.45925  1.0000
  C   C199      1.0  0.36329  0.70120  0.04075  1.0000
  C   C200      1.0  0.63671  0.70120  0.45925  1.0000
  C   C201      1.0  0.12550  0.87340  0.98454  1.0000
  C   C202      1.0  0.87450  0.87340  0.51546  1.0000
  C   C203      1.0  0.62550  0.37340  0.98454  1.0000
  C   C204      1.0  0.37450  0.37340  0.51546  1.0000
  C   C205      1.0  0.87450  0.12660  0.01546  1.0000
  C   C206      1.0  0.12550  0.12660  0.48454  1.0000
  C   C207      1.0  0.37450  0.62660  0.01546  1.0000
  C   C208      1.0  0.62550  0.62660  0.48454  1.0000
  C   C209      1.0  0.11320  0.79600  0.91513  1.0000
  C   C210      1.0  0.88680  0.79600  0.58487  1.0000
  C   C211      1.0  0.61320  0.29600  0.91513  1.0000
  C   C212      1.0  0.38680  0.29600  0.58487  1.0000
  C   C213      1.0  0.88680  0.20400  0.08487  1.0000
  C   C214      1.0  0.11320  0.20400  0.41513  1.0000
  C   C215      1.0  0.38680  0.70400  0.08487  1.0000
  C   C216      1.0  0.61320  0.70400  0.41513  1.0000
  H   H113      1.0  0.08850  0.84000  0.90060  1.0000
  H   H114      1.0  0.91150  0.84000  0.59940  1.0000
  H   H115      1.0  0.58850  0.34000  0.90060  1.0000
  H   H116      1.0  0.41150  0.34000  0.59940  1.0000
  H   H117      1.0  0.91150  0.16000  0.09940  1.0000
  H   H118      1.0  0.08850  0.16000  0.40060  1.0000
  H   H119      1.0  0.41150  0.66000  0.09940  1.0000
  H   H120      1.0  0.58850  0.66000  0.40060  1.0000
  C   C217      1.0  0.12520  0.72910  0.89150  1.0000
  C   C218      1.0  0.87480  0.72910  0.60850  1.0000
  C   C219      1.0  0.62520  0.22910  0.89150  1.0000
  C   C220      1.0  0.37480  0.22910  0.60850  1.0000
  C   C221      1.0  0.87480  0.27090  0.10850  1.0000
  C   C222      1.0  0.12520  0.27090  0.39150  1.0000
  C   C223      1.0  0.37480  0.77090  0.10850  1.0000
  C   C224      1.0  0.62520  0.77090  0.39150  1.0000
  H   H121      1.0  0.10780  0.72730  0.86130  1.0000
  H   H122      1.0  0.89220  0.72730  0.63870  1.0000
  H   H123      1.0  0.60780  0.22730  0.86130  1.0000
  H   H124      1.0  0.39220  0.22730  0.63870  1.0000
  H   H125      1.0  0.89220  0.27270  0.13870  1.0000
  H   H126      1.0  0.10780  0.27270  0.36130  1.0000
  H   H127      1.0  0.39220  0.77270  0.13870  1.0000
  H   H128      1.0  0.60780  0.77270  0.36130  1.0000
  C   C225      1.0  0.15210  0.48550  0.89481  1.0000
  C   C226      1.0  0.84790  0.48550  0.60519  1.0000
  C   C227      1.0  0.65210  0.98550  0.89481  1.0000
  C   C228      1.0  0.34790  0.98550  0.60519  1.0000
  C   C229      1.0  0.84790  0.51450  0.10519  1.0000
  C   C230      1.0  0.15210  0.51450  0.39481  1.0000
  C   C231      1.0  0.34790  0.01450  0.10519  1.0000
  C   C232      1.0  0.65210  0.01450  0.39481  1.0000
  C   C233      1.0  0.18530  0.41240  0.90217  1.0000
  C   C234      1.0  0.81470  0.41240  0.59783  1.0000
  C   C235      1.0  0.68530  0.91240  0.90217  1.0000
  C   C236      1.0  0.31470  0.91240  0.59783  1.0000
  C   C237      1.0  0.81470  0.58760  0.09783  1.0000
  C   C238      1.0  0.18530  0.58760  0.40217  1.0000
  C   C239      1.0  0.31470  0.08760  0.09783  1.0000
  C   C240      1.0  0.68530  0.08760  0.40217  1.0000
  H   H129      1.0  0.22430  0.41540  0.90320  1.0000
  H   H130      1.0  0.77570  0.41540  0.59680  1.0000
  H   H131      1.0  0.72430  0.91540  0.90320  1.0000
  H   H132      1.0  0.27570  0.91540  0.59680  1.0000
  H   H133      1.0  0.77570  0.58460  0.09680  1.0000
  H   H134      1.0  0.22430  0.58460  0.40320  1.0000
  H   H135      1.0  0.27570  0.08460  0.09680  1.0000
  H   H136      1.0  0.72430  0.08460  0.40320  1.0000
  C   C241      1.0  0.16240  0.33590  0.90800  1.0000
  C   C242      1.0  0.83760  0.33590  0.59200  1.0000
  C   C243      1.0  0.66240  0.83590  0.90800  1.0000
  C   C244      1.0  0.33760  0.83590  0.59200  1.0000
  C   C245      1.0  0.83760  0.66410  0.09200  1.0000
  C   C246      1.0  0.16240  0.66410  0.40800  1.0000
  C   C247      1.0  0.33760  0.16410  0.09200  1.0000
  C   C248      1.0  0.66240  0.16410  0.40800  1.0000
  H   H137      1.0  0.18590  0.28720  0.91360  1.0000
  H   H138      1.0  0.81410  0.28720  0.58640  1.0000
  H   H139      1.0  0.68590  0.78720  0.91360  1.0000
  H   H140      1.0  0.31410  0.78720  0.58640  1.0000
  H   H141      1.0  0.81410  0.71280  0.08640  1.0000
  H   H142      1.0  0.18590  0.71280  0.41360  1.0000
  H   H143      1.0  0.31410  0.21280  0.08640  1.0000
  H   H144      1.0  0.68590  0.21280  0.41360  1.0000
  C   C249      1.0  0.10462  0.33010  0.90568  1.0000
  C   C250      1.0  0.89538  0.33010  0.59432  1.0000
  C   C251      1.0  0.60462  0.83010  0.90568  1.0000
  C   C252      1.0  0.39538  0.83010  0.59432  1.0000
  C   C253      1.0  0.89538  0.66990  0.09432  1.0000
  C   C254      1.0  0.10462  0.66990  0.40568  1.0000
  C   C255      1.0  0.39538  0.16990  0.09432  1.0000
  C   C256      1.0  0.60462  0.16990  0.40568  1.0000
  C   C257      1.0  0.07980  0.24560  0.91021  1.0000
  C   C258      1.0  0.92020  0.24560  0.58979  1.0000
  C   C259      1.0  0.57980  0.74560  0.91021  1.0000
  C   C260      1.0  0.42020  0.74560  0.58979  1.0000
  C   C261      1.0  0.92020  0.75440  0.08979  1.0000
  C   C262      1.0  0.07980  0.75440  0.41021  1.0000
  C   C263      1.0  0.42020  0.25440  0.08979  1.0000
  C   C264      1.0  0.57980  0.25440  0.41021  1.0000
  C   C265      1.0  0.07160  0.40250  0.89907  1.0000
  C   C266      1.0  0.92840  0.40250  0.60093  1.0000
  C   C267      1.0  0.57160  0.90250  0.89907  1.0000
  C   C268      1.0  0.42840  0.90250  0.60093  1.0000
  C   C269      1.0  0.92840  0.59750  0.10093  1.0000
  C   C270      1.0  0.07160  0.59750  0.39907  1.0000
  C   C271      1.0  0.42840  0.09750  0.10093  1.0000
  C   C272      1.0  0.57160  0.09750  0.39907  1.0000
  H   H145      1.0  0.03260  0.39900  0.89800  1.0000
  H   H146      1.0  0.96740  0.39900  0.60200  1.0000
  H   H147      1.0  0.53260  0.89900  0.89800  1.0000
  H   H148      1.0  0.46740  0.89900  0.60200  1.0000
  H   H149      1.0  0.96740  0.60100  0.10200  1.0000
  H   H150      1.0  0.03260  0.60100  0.39800  1.0000
  H   H151      1.0  0.46740  0.10100  0.10200  1.0000
  H   H152      1.0  0.53260  0.10100  0.39800  1.0000
  C   C273      1.0  0.09450  0.48050  0.89401  1.0000
  C   C274      1.0  0.90550  0.48050  0.60599  1.0000
  C   C275      1.0  0.59450  0.98050  0.89401  1.0000
  C   C276      1.0  0.40550  0.98050  0.60599  1.0000
  C   C277      1.0  0.90550  0.51950  0.10599  1.0000
  C   C278      1.0  0.09450  0.51950  0.39401  1.0000
  C   C279      1.0  0.40550  0.01950  0.10599  1.0000
  C   C280      1.0  0.59450  0.01950  0.39401  1.0000
  H   H153      1.0  0.07160  0.52960  0.89010  1.0000
  H   H154      1.0  0.92840  0.52960  0.60990  1.0000
  H   H155      1.0  0.57160  0.02960  0.89010  1.0000
  H   H156      1.0  0.42840  0.02960  0.60990  1.0000
  H   H157      1.0  0.92840  0.47040  0.10990  1.0000
  H   H158      1.0  0.07160  0.47040  0.39010  1.0000
  H   H159      1.0  0.42840  0.97040  0.10990  1.0000
  H   H160      1.0  0.57160  0.97040  0.39010  1.0000
  C   C281      1.0  0.15970  0.59830  0.82797  1.0000
  C   C282      1.0  0.84030  0.59830  0.67203  1.0000
  C   C283      1.0  0.65970  0.09830  0.82797  1.0000
  C   C284      1.0  0.34030  0.09830  0.67203  1.0000
  C   C285      1.0  0.84030  0.40170  0.17203  1.0000
  C   C286      1.0  0.15970  0.40170  0.32797  1.0000
  C   C287      1.0  0.34030  0.90170  0.17203  1.0000
  C   C288      1.0  0.65970  0.90170  0.32797  1.0000
  C   C289      1.0  0.19880  0.61970  0.80620  1.0000
  C   C290      1.0  0.80120  0.61970  0.69380  1.0000
  C   C291      1.0  0.69880  0.11970  0.80620  1.0000
  C   C292      1.0  0.30120  0.11970  0.69380  1.0000
  C   C293      1.0  0.80120  0.38030  0.19380  1.0000
  C   C294      1.0  0.19880  0.38030  0.30620  1.0000
  C   C295      1.0  0.30120  0.88030  0.19380  1.0000
  C   C296      1.0  0.69880  0.88030  0.30620  1.0000
  H   H161      1.0  0.23780  0.63010  0.82210  1.0000
  H   H162      1.0  0.76220  0.63010  0.67790  1.0000
  H   H163      1.0  0.73780  0.13010  0.82210  1.0000
  H   H164      1.0  0.26220  0.13010  0.67790  1.0000
  H   H165      1.0  0.76220  0.36990  0.17790  1.0000
  H   H166      1.0  0.23780  0.36990  0.32210  1.0000
  H   H167      1.0  0.26220  0.86990  0.17790  1.0000
  H   H168      1.0  0.73780  0.86990  0.32210  1.0000
  C   C297      1.0  0.18150  0.62550  0.76310  1.0000
  C   C298      1.0  0.81850  0.62550  0.73690  1.0000
  C   C299      1.0  0.68150  0.12550  0.76310  1.0000
  C   C300      1.0  0.31850  0.12550  0.73690  1.0000
  C   C301      1.0  0.81850  0.37450  0.23690  1.0000
  C   C302      1.0  0.18150  0.37450  0.26310  1.0000
  C   C303      1.0  0.31850  0.87450  0.23690  1.0000
  C   C304      1.0  0.68150  0.87450  0.26310  1.0000
  H   H169      1.0  0.20870  0.64040  0.74930  1.0000
  H   H170      1.0  0.79130  0.64040  0.75070  1.0000
  H   H171      1.0  0.70870  0.14040  0.74930  1.0000
  H   H172      1.0  0.29130  0.14040  0.75070  1.0000
  H   H173      1.0  0.79130  0.35960  0.25070  1.0000
  H   H174      1.0  0.20870  0.35960  0.24930  1.0000
  H   H175      1.0  0.29130  0.85960  0.25070  1.0000
  H   H176      1.0  0.70870  0.85960  0.24930  1.0000
  C   C305      1.0  0.12530  0.61040  0.73847  1.0000
  C   C306      1.0  0.87470  0.61040  0.76153  1.0000
  C   C307      1.0  0.62530  0.11040  0.73847  1.0000
  C   C308      1.0  0.37470  0.11040  0.76153  1.0000
  C   C309      1.0  0.87470  0.38960  0.26153  1.0000
  C   C310      1.0  0.12530  0.38960  0.23847  1.0000
  C   C311      1.0  0.37470  0.88960  0.26153  1.0000
  C   C312      1.0  0.62530  0.88960  0.23847  1.0000
  C   C313      1.0  0.10820  0.61380  0.68980  1.0000
  C   C314      1.0  0.89180  0.61380  0.81020  1.0000
  C   C315      1.0  0.60820  0.11380  0.68980  1.0000
  C   C316      1.0  0.39180  0.11380  0.81020  1.0000
  C   C317      1.0  0.89180  0.38620  0.31020  1.0000
  C   C318      1.0  0.10820  0.38620  0.18980  1.0000
  C   C319      1.0  0.39180  0.88620  0.31020  1.0000
  C   C320      1.0  0.60820  0.88620  0.18980  1.0000
  C   C321      1.0  0.08540  0.59230  0.75873  1.0000
  C   C322      1.0  0.91460  0.59230  0.74127  1.0000
  C   C323      1.0  0.58540  0.09230  0.75873  1.0000
  C   C324      1.0  0.41460  0.09230  0.74127  1.0000
  C   C325      1.0  0.91460  0.40770  0.24127  1.0000
  C   C326      1.0  0.08540  0.40770  0.25873  1.0000
  C   C327      1.0  0.41460  0.90770  0.24127  1.0000
  C   C328      1.0  0.58540  0.90770  0.25873  1.0000
  H   H177      1.0  0.04650  0.58280  0.74230  1.0000
  H   H178      1.0  0.95350  0.58280  0.75770  1.0000
  H   H179      1.0  0.54650  0.08280  0.74230  1.0000
  H   H180      1.0  0.45350  0.08280  0.75770  1.0000
  H   H181      1.0  0.95350  0.41720  0.25770  1.0000
  H   H182      1.0  0.04650  0.41720  0.24230  1.0000
  H   H183      1.0  0.45350  0.91720  0.25770  1.0000
  H   H184      1.0  0.54650  0.91720  0.24230  1.0000
  C   C329      1.0  0.10210  0.58800  0.80297  1.0000
  C   C330      1.0  0.89790  0.58800  0.69703  1.0000
  C   C331      1.0  0.60210  0.08800  0.80297  1.0000
  C   C332      1.0  0.39790  0.08800  0.69703  1.0000
  C   C333      1.0  0.89790  0.41200  0.19703  1.0000
  C   C334      1.0  0.10210  0.41200  0.30297  1.0000
  C   C335      1.0  0.39790  0.91200  0.19703  1.0000
  C   C336      1.0  0.60210  0.91200  0.30297  1.0000
  H   H185      1.0  0.07400  0.57790  0.81670  1.0000
  H   H186      1.0  0.92600  0.57790  0.68330  1.0000
  H   H187      1.0  0.57400  0.07790  0.81670  1.0000
  H   H188      1.0  0.42600  0.07790  0.68330  1.0000
  H   H189      1.0  0.92600  0.42210  0.18330  1.0000
  H   H190      1.0  0.07400  0.42210  0.31670  1.0000
  H   H191      1.0  0.42600  0.92210  0.18330  1.0000
  H   H192      1.0  0.57400  0.92210  0.31670  1.0000
  C   C337      1.0  0.97620  0.07360  0.96003  1.0000
  C   C338      1.0  0.02380  0.07360  0.53997  1.0000
  C   C339      1.0  0.47620  0.57360  0.96003  1.0000
  C   C340      1.0  0.52380  0.57360  0.53997  1.0000
  C   C341      1.0  0.02380  0.92640  0.03997  1.0000
  C   C342      1.0  0.97620  0.92640  0.46003  1.0000
  C   C343      1.0  0.52380  0.42640  0.03997  1.0000
  C   C344      1.0  0.47620  0.42640  0.46003  1.0000
  H   H193      1.0  0.96430  0.05470  0.98330  1.0000
  H   H194      1.0  0.03570  0.05470  0.51670  1.0000
  H   H195      1.0  0.46430  0.55470  0.98330  1.0000
  H   H196      1.0  0.53570  0.55470  0.51670  1.0000
  H   H197      1.0  0.03570  0.94530  0.01670  1.0000
  H   H198      1.0  0.96430  0.94530  0.48330  1.0000
  H   H199      1.0  0.53570  0.44530  0.01670  1.0000
  H   H200      1.0  0.46430  0.44530  0.48330  1.0000
  Mn  Mn1       1.0  0.10294  0.05830  0.94466  1.0000
  Mn  Mn2       1.0  0.89706  0.05830  0.55534  1.0000
  Mn  Mn3       1.0  0.60294  0.55830  0.94466  1.0000
  Mn  Mn4       1.0  0.39706  0.55830  0.55534  1.0000
  Mn  Mn5       1.0  0.89706  0.94170  0.05534  1.0000
  Mn  Mn6       1.0  0.10294  0.94170  0.44466  1.0000
  Mn  Mn7       1.0  0.39706  0.44170  0.05534  1.0000
  Mn  Mn8       1.0  0.60294  0.44170  0.44466  1.0000
  Mn  Mn9       1.0  0.03786  0.84904  0.12555  1.0000
  Mn  Mn10      1.0  0.96214  0.84904  0.37445  1.0000
  Mn  Mn11      1.0  0.53786  0.34904  0.12555  1.0000
  Mn  Mn12      1.0  0.46214  0.34904  0.37445  1.0000
  Mn  Mn13      1.0  0.96214  0.15096  0.87445  1.0000
  Mn  Mn14      1.0  0.03786  0.15096  0.62555  1.0000
  Mn  Mn15      1.0  0.46214  0.65096  0.87445  1.0000
  Mn  Mn16      1.0  0.53786  0.65096  0.62555  1.0000
  Mn  Mn17      1.0  0.15815  0.93618  0.08309  1.0000
  Mn  Mn18      1.0  0.84185  0.93618  0.41691  1.0000
  Mn  Mn19      1.0  0.65815  0.43618  0.08309  1.0000
  Mn  Mn20      1.0  0.34185  0.43618  0.41691  1.0000
  Mn  Mn21      1.0  0.84185  0.06382  0.91691  1.0000
  Mn  Mn22      1.0  0.15815  0.06382  0.58309  1.0000
  Mn  Mn23      1.0  0.34185  0.56382  0.91691  1.0000
  Mn  Mn24      1.0  0.65815  0.56382  0.58309  1.0000
  O   O1        1.0  0.16561  0.82240  0.11937  1.0000
  O   O2        1.0  0.83439  0.82240  0.38063  1.0000
  O   O3        1.0  0.66561  0.32240  0.11937  1.0000
  O   O4        1.0  0.33439  0.32240  0.38063  1.0000
  O   O5        1.0  0.83439  0.17760  0.88063  1.0000
  O   O6        1.0  0.16561  0.17760  0.61937  1.0000
  O   O7        1.0  0.33439  0.67760  0.88063  1.0000
  O   O8        1.0  0.66561  0.67760  0.61937  1.0000
  O   O9        1.0  0.08967  0.74300  0.11870  1.0000
  O   O10       1.0  0.91033  0.74300  0.38130  1.0000
  O   O11       1.0  0.58967  0.24300  0.11870  1.0000
  O   O12       1.0  0.41033  0.24300  0.38130  1.0000
  O   O13       1.0  0.91033  0.25700  0.88130  1.0000
  O   O14       1.0  0.08967  0.25700  0.61870  1.0000
  O   O15       1.0  0.41033  0.75700  0.88130  1.0000
  O   O16       1.0  0.58967  0.75700  0.61870  1.0000
  O   O17       1.0  0.16332  0.09050  0.00535  1.0000
  O   O18       1.0  0.83668  0.09050  0.49465  1.0000
  O   O19       1.0  0.66332  0.59050  0.00535  1.0000
  O   O20       1.0  0.33668  0.59050  0.49465  1.0000
  O   O21       1.0  0.83668  0.90950  0.99465  1.0000
  O   O22       1.0  0.16332  0.90950  0.50535  1.0000
  O   O23       1.0  0.33668  0.40950  0.99465  1.0000
  O   O24       1.0  0.66332  0.40950  0.50535  1.0000
  O   O25       1.0  0.14792  0.06930  0.06818  1.0000
  O   O26       1.0  0.85208  0.06930  0.43182  1.0000
  O   O27       1.0  0.64792  0.56930  0.06818  1.0000
  O   O28       1.0  0.35208  0.56930  0.43182  1.0000
  O   O29       1.0  0.85208  0.93070  0.93182  1.0000
  O   O30       1.0  0.14792  0.93070  0.56818  1.0000
  O   O31       1.0  0.35208  0.43070  0.93182  1.0000
  O   O32       1.0  0.64792  0.43070  0.56818  1.0000
  O   O33       1.0  0.45717  0.32460  0.30063  1.0000
  O   O34       1.0  0.54283  0.32460  0.19937  1.0000
  O   O35       1.0  0.95717  0.82460  0.30063  1.0000
  O   O36       1.0  0.04283  0.82460  0.19937  1.0000
  O   O37       1.0  0.54283  0.67540  0.69937  1.0000
  O   O38       1.0  0.45717  0.67540  0.80063  1.0000
  O   O39       1.0  0.04283  0.17540  0.69937  1.0000
  O   O40       1.0  0.95717  0.17540  0.80063  1.0000
  O   O41       1.0  0.39751  0.40760  0.31977  1.0000
  O   O42       1.0  0.60249  0.40760  0.18023  1.0000
  O   O43       1.0  0.89751  0.90760  0.31977  1.0000
  O   O44       1.0  0.10249  0.90760  0.18023  1.0000
  O   O45       1.0  0.60249  0.59240  0.68023  1.0000
  O   O46       1.0  0.39751  0.59240  0.81977  1.0000
  O   O47       1.0  0.10249  0.09240  0.68023  1.0000
  O   O48       1.0  0.89751  0.09240  0.81977  1.0000
  O   O49       1.0  0.32362  0.47030  0.07728  1.0000
  O   O50       1.0  0.67638  0.47030  0.42272  1.0000
  O   O51       1.0  0.82362  0.97030  0.07728  1.0000
  O   O52       1.0  0.17638  0.97030  0.42272  1.0000
  O   O53       1.0  0.67638  0.52970  0.92272  1.0000
  O   O54       1.0  0.32362  0.52970  0.57728  1.0000
  O   O55       1.0  0.17638  0.02970  0.92272  1.0000
  O   O56       1.0  0.82362  0.02970  0.57728  1.0000
  O   O57       1.0  0.14630  0.86880  0.02477  1.0000
  O   O58       1.0  0.85370  0.86880  0.47523  1.0000
  O   O59       1.0  0.64630  0.36880  0.02477  1.0000
  O   O60       1.0  0.35370  0.36880  0.47523  1.0000
  O   O61       1.0  0.85370  0.13120  0.97523  1.0000
  O   O62       1.0  0.14630  0.13120  0.52477  1.0000
  O   O63       1.0  0.35370  0.63120  0.97523  1.0000
  O   O64       1.0  0.64630  0.63120  0.52477  1.0000
  O   O65       1.0  0.09344  0.93130  0.96345  1.0000
  O   O66       1.0  0.90656  0.93130  0.53655  1.0000
  O   O67       1.0  0.59344  0.43130  0.96345  1.0000
  O   O68       1.0  0.40656  0.43130  0.53655  1.0000
  O   O69       1.0  0.90656  0.06870  0.03655  1.0000
  O   O70       1.0  0.09344  0.06870  0.46345  1.0000
  O   O71       1.0  0.40656  0.56870  0.03655  1.0000
  O   O72       1.0  0.59344  0.56870  0.46345  1.0000
  O   O73       1.0  0.11334  0.18630  0.92588  1.0000
  O   O74       1.0  0.88666  0.18630  0.57412  1.0000
  O   O75       1.0  0.61334  0.68630  0.92588  1.0000
  O   O76       1.0  0.38666  0.68630  0.57412  1.0000
  O   O77       1.0  0.88666  0.81370  0.07412  1.0000
  O   O78       1.0  0.11334  0.81370  0.42588  1.0000
  O   O79       1.0  0.38666  0.31370  0.07412  1.0000
  O   O80       1.0  0.61334  0.31370  0.42588  1.0000
  O   O81       1.0  0.02540  0.24120  0.89626  1.0000
  O   O82       1.0  0.97460  0.24120  0.60374  1.0000
  O   O83       1.0  0.52540  0.74120  0.89626  1.0000
  O   O84       1.0  0.47460  0.74120  0.60374  1.0000
  O   O85       1.0  0.97460  0.75880  0.10374  1.0000
  O   O86       1.0  0.02540  0.75880  0.39626  1.0000
  O   O87       1.0  0.47460  0.25880  0.10374  1.0000
  O   O88       1.0  0.52540  0.25880  0.39626  1.0000
  O   O89       1.0  0.14030  0.63390  0.67076  1.0000
  O   O90       1.0  0.85970  0.63390  0.82924  1.0000
  O   O91       1.0  0.64030  0.13390  0.67076  1.0000
  O   O92       1.0  0.35970  0.13390  0.82924  1.0000
  O   O93       1.0  0.85970  0.36610  0.32924  1.0000
  O   O94       1.0  0.14030  0.36610  0.17076  1.0000
  O   O95       1.0  0.35970  0.86610  0.32924  1.0000
  O   O96       1.0  0.64030  0.86610  0.17076  1.0000
  O   O97       1.0  0.05330  0.59220  0.67028  1.0000
  O   O98       1.0  0.94670  0.59220  0.82972  1.0000
  O   O99       1.0  0.55330  0.09220  0.67028  1.0000
  O   O100      1.0  0.44670  0.09220  0.82972  1.0000
  O   O101      1.0  0.94670  0.40780  0.32972  1.0000
  O   O102      1.0  0.05330  0.40780  0.17028  1.0000
  O   O103      1.0  0.44670  0.90780  0.32972  1.0000
  O   O104      1.0  0.55330  0.90780  0.17028  1.0000
  H   H201      1.0  0.04620  0.59520  0.64360  1.0000
  H   H202      1.0  0.95380  0.59520  0.85640  1.0000
  H   H203      1.0  0.54620  0.09520  0.64360  1.0000
  H   H204      1.0  0.45380  0.09520  0.85640  1.0000
  H   H205      1.0  0.95380  0.40480  0.35640  1.0000
  H   H206      1.0  0.04620  0.40480  0.14360  1.0000
  H   H207      1.0  0.45380  0.90480  0.35640  1.0000
  H   H208      1.0  0.54620  0.90480  0.14360  1.0000
  O   O105      1.0  0.24989  0.56990  0.90127  1.0000
  O   O106      1.0  0.75011  0.56990  0.59873  1.0000
  O   O107      1.0  0.74989  0.06990  0.90127  1.0000
  O   O108      1.0  0.25011  0.06990  0.59873  1.0000
  O   O109      1.0  0.75011  0.43010  0.09873  1.0000
  O   O110      1.0  0.24989  0.43010  0.40127  1.0000
  O   O111      1.0  0.25011  0.93010  0.09873  1.0000
  O   O112      1.0  0.74989  0.93010  0.40127  1.0000
  O   O113      1.0  0.02796  0.09140  0.96828  1.0000
  O   O114      1.0  0.97204  0.09140  0.53172  1.0000
  O   O115      1.0  0.52796  0.59140  0.96828  1.0000
  O   O116      1.0  0.47204  0.59140  0.53172  1.0000
  O   O117      1.0  0.97204  0.90860  0.03172  1.0000
  O   O118      1.0  0.02796  0.90860  0.46828  1.0000
  O   O119      1.0  0.47204  0.40860  0.03172  1.0000
  O   O120      1.0  0.52796  0.40860  0.46828  1.0000
  O   O121      1.0  0.93720  0.07830  0.92322  1.0000
  O   O122      1.0  0.06280  0.07830  0.57678  1.0000
  O   O123      1.0  0.43720  0.57830  0.92322  1.0000
  O   O124      1.0  0.56280  0.57830  0.57678  1.0000
  O   O125      1.0  0.06280  0.92170  0.07678  1.0000
  O   O126      1.0  0.93720  0.92170  0.42322  1.0000
  O   O127      1.0  0.56280  0.42170  0.07678  1.0000
  O   O128      1.0  0.43720  0.42170  0.42322  1.0000
  O   O129      1.0  0.16809  0.99710  0.14697  1.0000
  O   O130      1.0  0.83191  0.99710  0.35303  1.0000
  O   O131      1.0  0.66809  0.49710  0.14697  1.0000
  O   O132      1.0  0.33191  0.49710  0.35303  1.0000
  O   O133      1.0  0.83191  0.00290  0.85303  1.0000
  O   O134      1.0  0.16809  0.00290  0.64697  1.0000
  O   O135      1.0  0.33191  0.50290  0.85303  1.0000
  O   O136      1.0  0.66809  0.50290  0.64697  1.0000
  P   P1        1.0  0.28433  0.44904  0.10246  1.0000
  P   P2        1.0  0.71567  0.44904  0.39754  1.0000
  P   P3        1.0  0.78433  0.94904  0.10246  1.0000
  P   P4        1.0  0.21567  0.94904  0.39754  1.0000
  P   P5        1.0  0.71567  0.55096  0.89754  1.0000
  P   P6        1.0  0.28433  0.55096  0.60246  1.0000
  P   P7        1.0  0.21567  0.05096  0.89754  1.0000
  P   P8        1.0  0.78433  0.05096  0.60246  1.0000
  P   P9        1.0  0.18601  0.58053  0.88526  1.0000
  P   P10       1.0  0.81399  0.58053  0.61474  1.0000
  P   P11       1.0  0.68601  0.08053  0.88526  1.0000
  P   P12       1.0  0.31399  0.08053  0.61474  1.0000
  P   P13       1.0  0.81399  0.41947  0.11474  1.0000
  P   P14       1.0  0.18601  0.41947  0.38526  1.0000
  P   P15       1.0  0.31399  0.91947  0.11474  1.0000
  P   P16       1.0  0.68601  0.91947  0.38526  1.0000
  Cl  Cl1       1.0  0.02790  0.02185  0.87175  1.0000
  Cl  Cl2       1.0  0.97210  0.02185  0.62825  1.0000
  Cl  Cl3       1.0  0.52790  0.52185  0.87175  1.0000
  Cl  Cl4       1.0  0.47210  0.52185  0.62825  1.0000
  Cl  Cl5       1.0  0.97210  0.97815  0.12825  1.0000
  Cl  Cl6       1.0  0.02790  0.97815  0.37175  1.0000
  Cl  Cl7       1.0  0.47210  0.47815  0.12825  1.0000
  Cl  Cl8       1.0  0.52790  0.47815  0.37175  1.0000
  H   H209      1.0  0.14900  0.96100  0.16050  1.0000
  H   H210      1.0  0.85100  0.96100  0.33950  1.0000
  H   H211      1.0  0.64900  0.46100  0.16050  1.0000
  H   H212      1.0  0.35100  0.46100  0.33950  1.0000
  H   H213      1.0  0.85100  0.03900  0.83950  1.0000
  H   H214      1.0  0.14900  0.03900  0.66050  1.0000
  H   H215      1.0  0.35100  0.53900  0.83950  1.0000
  H   H216      1.0  0.64900  0.53900  0.66050  1.0000
  H   H217      1.0  0.19800  0.03800  0.16780  1.0000
  H   H218      1.0  0.80200  0.03800  0.33220  1.0000
  H   H219      1.0  0.69800  0.53800  0.16780  1.0000
  H   H220      1.0  0.30200  0.53800  0.33220  1.0000
  H   H221      1.0  0.80200  0.96200  0.83220  1.0000
  H   H222      1.0  0.19800  0.96200  0.66780  1.0000
  H   H223      1.0  0.30200  0.46200  0.83220  1.0000
  H   H224      1.0  0.69800  0.46200  0.66780  1.0000
