data_image0
_chemical_formula_structural       Cd4O4C6H2C4H2C4H2O2C2H4C4H2C2H2C4H2C2H2C2O6C2H4C4H2C2H2C4H2C2H2C2O8C6H2C4H2C4H2O2C2H4C4H2C2H2C4H2C2H2C2O6C2H4C4H2C2H2C4H2C2H2C2O4N2C2H2C2H2C4H2C2H2C4H2C2H2N2C2H2C2H2
_chemical_formula_sum              "Cd4 O32 C112 H76 N4"
_cell_length_a       15.3997
_cell_length_b       15.4635
_cell_length_c       17.2247
_cell_angle_alpha    93.145
_cell_angle_beta     114.157
_cell_angle_gamma    100.775

_space_group_name_H-M_alt    "P 1"
_space_group_IT_number       1

loop_
  _space_group_symop_operation_xyz
  'x, y, z'

loop_
  _atom_site_type_symbol
  _atom_site_label
  _atom_site_symmetry_multiplicity
  _atom_site_fract_x
  _atom_site_fract_y
  _atom_site_fract_z
  _atom_site_occupancy
  Cd  Cd1       1.0  0.77738  0.06273  0.59840  1.0000
  Cd  Cd2       1.0  0.22262  0.93727  0.40160  1.0000
  Cd  Cd3       1.0  0.21511  0.25371  0.97571  1.0000
  Cd  Cd4       1.0  0.78489  0.74629  0.02429  1.0000
  O   O1        1.0  0.21590  0.09300  0.93130  1.0000
  O   O2        1.0  0.78410  0.90700  0.06870  1.0000
  O   O3        1.0  0.32820  0.20800  0.93570  1.0000
  O   O4        1.0  0.67180  0.79200  0.06430  1.0000
  C   C1        1.0  0.29450  0.12600  0.92620  1.0000
  C   C2        1.0  0.70550  0.87400  0.07380  1.0000
  C   C3        1.0  0.35140  0.06390  0.90770  1.0000
  C   C4        1.0  0.64860  0.93610  0.09230  1.0000
  C   C5        1.0  0.43640  0.10230  0.89930  1.0000
  C   C6        1.0  0.56360  0.89770  0.10070  1.0000
  H   H1        1.0  0.45670  0.16490  0.90330  1.0000
  H   H2        1.0  0.54330  0.83510  0.09670  1.0000
  C   C7        1.0  0.49000  0.04520  0.88470  1.0000
  C   C8        1.0  0.51000  0.95480  0.11530  1.0000
  C   C9        1.0  0.46020  0.95430  0.87740  1.0000
  C   C10       1.0  0.53980  0.04570  0.12260  1.0000
  H   H3        1.0  0.49630  0.91670  0.86480  1.0000
  H   H4        1.0  0.50370  0.08330  0.13520  1.0000
  C   C11       1.0  0.37740  0.91760  0.88850  1.0000
  C   C12       1.0  0.62260  0.08240  0.11150  1.0000
  C   C13       1.0  0.32220  0.97230  0.90370  1.0000
  C   C14       1.0  0.67780  0.02770  0.09630  1.0000
  H   H5        1.0  0.26530  0.94760  0.91120  1.0000
  H   H6        1.0  0.73470  0.05240  0.08880  1.0000
  O   O5        1.0  0.57630  0.07390  0.87700  1.0000
  O   O6        1.0  0.42370  0.92610  0.12300  1.0000
  C   C15       1.0  0.62400  0.16710  0.90530  1.0000
  C   C16       1.0  0.37600  0.83290  0.09470  1.0000
  H   H7        1.0  0.62100  0.18780  0.95930  1.0000
  H   H8        1.0  0.37900  0.81220  0.04070  1.0000
  H   H9        1.0  0.59150  0.20310  0.86100  1.0000
  H   H10       1.0  0.40850  0.79690  0.13900  1.0000
  C   C17       1.0  0.72900  0.17660  0.91960  1.0000
  C   C18       1.0  0.27100  0.82340  0.08040  1.0000
  C   C19       1.0  0.74910  0.14620  0.85360  1.0000
  C   C20       1.0  0.25090  0.85380  0.14640  1.0000
  H   H11       1.0  0.69730  0.11760  0.80020  1.0000
  H   H12       1.0  0.30270  0.88240  0.19980  1.0000
  C   C21       1.0  0.84630  0.15770  0.86560  1.0000
  C   C22       1.0  0.15370  0.84230  0.13440  1.0000
  H   H13       1.0  0.86000  0.13710  0.81980  1.0000
  H   H14       1.0  0.14000  0.86290  0.18020  1.0000
  C   C23       1.0  0.92270  0.19880  0.94330  1.0000
  C   C24       1.0  0.07730  0.80120  0.05670  1.0000
  C   C25       1.0  0.90120  0.22890  0.00970  1.0000
  C   C26       1.0  0.09880  0.77110  0.99030  1.0000
  H   H15       1.0  0.95270  0.25780  0.06320  1.0000
  H   H16       1.0  0.04730  0.74220  0.93680  1.0000
  C   C27       1.0  0.80510  0.21690  0.99770  1.0000
  C   C28       1.0  0.19490  0.78310  0.00230  1.0000
  H   H17       1.0  0.79110  0.23660  0.04360  1.0000
  H   H18       1.0  0.20890  0.76340  0.95640  1.0000
  C   C29       1.0  0.02610  0.21620  0.95420  1.0000
  C   C30       1.0  0.97390  0.78380  0.04580  1.0000
  O   O7        1.0  0.04380  0.19530  0.89060  1.0000
  O   O8        1.0  0.95620  0.80470  0.10940  1.0000
  O   O9        1.0  0.09380  0.25010  0.02600  1.0000
  O   O10       1.0  0.90620  0.74990  0.97400  1.0000
  O   O11       1.0  0.34430  0.82890  0.88690  1.0000
  O   O12       1.0  0.65570  0.17110  0.11310  1.0000
  C   C31       1.0  0.40190  0.76930  0.87620  1.0000
  C   C32       1.0  0.59810  0.23070  0.12380  1.0000
  H   H19       1.0  0.47170  0.79280  0.91610  1.0000
  H   H20       1.0  0.52830  0.20720  0.08390  1.0000
  H   H21       1.0  0.39610  0.76470  0.81660  1.0000
  H   H22       1.0  0.60390  0.23530  0.18340  1.0000
  C   C33       1.0  0.36670  0.68140  0.89410  1.0000
  C   C34       1.0  0.63330  0.31860  0.10590  1.0000
  C   C35       1.0  0.42830  0.64330  0.96120  1.0000
  C   C36       1.0  0.57170  0.35670  0.03880  1.0000
  H   H23       1.0  0.49390  0.67500  0.99520  1.0000
  H   H24       1.0  0.50610  0.32500  0.00480  1.0000
  C   C37       1.0  0.39550  0.56080  0.97860  1.0000
  C   C38       1.0  0.60450  0.43920  0.02140  1.0000
  H   H25       1.0  0.43850  0.53660  0.02460  1.0000
  H   H26       1.0  0.56150  0.46340  0.97540  1.0000
  C   C39       1.0  0.29810  0.51140  0.92870  1.0000
  C   C40       1.0  0.70190  0.48860  0.07130  1.0000
  C   C41       1.0  0.23660  0.54930  0.86220  1.0000
  C   C42       1.0  0.76340  0.45070  0.13780  1.0000
  H   H27       1.0  0.17110  0.51770  0.82770  1.0000
  H   H28       1.0  0.82890  0.48230  0.17230  1.0000
  C   C43       1.0  0.27040  0.63250  0.84620  1.0000
  C   C44       1.0  0.72960  0.36750  0.15380  1.0000
  H   H29       1.0  0.22680  0.65740  0.80120  1.0000
  H   H30       1.0  0.77320  0.34260  0.19880  1.0000
  C   C45       1.0  0.26610  0.42360  0.94660  1.0000
  C   C46       1.0  0.73390  0.57640  0.05340  1.0000
  O   O13       1.0  0.31460  0.39970  0.01830  1.0000
  O   O14       1.0  0.68540  0.60030  0.98170  1.0000
  O   O15       1.0  0.19010  0.36940  0.88960  1.0000
  O   O16       1.0  0.80990  0.63060  0.11040  1.0000
  O   O17       1.0  0.66780  0.10120  0.64750  1.0000
  O   O18       1.0  0.33220  0.89880  0.35250  1.0000
  O   O19       1.0  0.77380  0.21460  0.64090  1.0000
  O   O20       1.0  0.22620  0.78540  0.35910  1.0000
  C   C47       1.0  0.69560  0.18270  0.64930  1.0000
  C   C48       1.0  0.30440  0.81730  0.35070  1.0000
  C   C49       1.0  0.63750  0.24480  0.66010  1.0000
  C   C50       1.0  0.36250  0.75520  0.33990  1.0000
  C   C51       1.0  0.66400  0.33390  0.65640  1.0000
  C   C52       1.0  0.33600  0.66610  0.34360  1.0000
  H   H31       1.0  0.72160  0.35700  0.64940  1.0000
  H   H32       1.0  0.27840  0.64300  0.35060  1.0000
  C   C53       1.0  0.60510  0.39030  0.66330  1.0000
  C   C54       1.0  0.39490  0.60970  0.33670  1.0000
  C   C55       1.0  0.52260  0.35720  0.67460  1.0000
  C   C56       1.0  0.47740  0.64280  0.32540  1.0000
  H   H33       1.0  0.48320  0.39580  0.67940  1.0000
  H   H34       1.0  0.51680  0.60420  0.32060  1.0000
  C   C57       1.0  0.49720  0.26840  0.67900  1.0000
  C   C58       1.0  0.50280  0.73160  0.32100  1.0000
  C   C59       1.0  0.55240  0.21150  0.67090  1.0000
  C   C60       1.0  0.44760  0.78850  0.32910  1.0000
  H   H35       1.0  0.53320  0.14980  0.67250  1.0000
  H   H36       1.0  0.46680  0.85020  0.32750  1.0000
  O   O21       1.0  0.41160  0.24300  0.68730  1.0000
  O   O22       1.0  0.58840  0.75700  0.31270  1.0000
  C   C61       1.0  0.36520  0.14970  0.66560  1.0000
  C   C62       1.0  0.63480  0.85030  0.33440  1.0000
  H   H37       1.0  0.40050  0.11680  0.71170  1.0000
  H   H38       1.0  0.59950  0.88320  0.28830  1.0000
  H   H39       1.0  0.36500  0.12500  0.61130  1.0000
  H   H40       1.0  0.63500  0.87500  0.38870  1.0000
  C   C63       1.0  0.26250  0.14140  0.65570  1.0000
  C   C64       1.0  0.73750  0.85860  0.34430  1.0000
  C   C65       1.0  0.24490  0.17180  0.72520  1.0000
  C   C66       1.0  0.75510  0.82820  0.27480  1.0000
  H   H41       1.0  0.29770  0.19870  0.77870  1.0000
  H   H42       1.0  0.70230  0.80130  0.22130  1.0000
  C   C67       1.0  0.14870  0.16170  0.71400  1.0000
  C   C68       1.0  0.85130  0.83830  0.28600  1.0000
  H   H43       1.0  0.13610  0.17960  0.76130  1.0000
  H   H44       1.0  0.86390  0.82040  0.23870  1.0000
  C   C69       1.0  0.07150  0.12630  0.63590  1.0000
  C   C70       1.0  0.92850  0.87370  0.36410  1.0000
  C   C71       1.0  0.08880  0.10130  0.56590  1.0000
  C   C72       1.0  0.91120  0.89870  0.43410  1.0000
  H   H45       1.0  0.03560  0.08010  0.51110  1.0000
  H   H46       1.0  0.96440  0.91990  0.48890  1.0000
  C   C73       1.0  0.18510  0.10750  0.57650  1.0000
  C   C74       1.0  0.81490  0.89250  0.42350  1.0000
  H   H47       1.0  0.19720  0.08850  0.52920  1.0000
  H   H48       1.0  0.80280  0.91150  0.47080  1.0000
  C   C75       1.0  0.96770  0.11150  0.62640  1.0000
  C   C76       1.0  0.03230  0.88850  0.37360  1.0000
  O   O23       1.0  0.95170  0.11730  0.69210  1.0000
  O   O24       1.0  0.04830  0.88270  0.30790  1.0000
  O   O25       1.0  0.89850  0.09070  0.55100  1.0000
  O   O26       1.0  0.10150  0.90930  0.44900  1.0000
  O   O27       1.0  0.63540  0.47780  0.65510  1.0000
  O   O28       1.0  0.36460  0.52220  0.34490  1.0000
  C   C77       1.0  0.57300  0.53590  0.65630  1.0000
  C   C78       1.0  0.42700  0.46410  0.34370  1.0000
  H   H49       1.0  0.56950  0.54060  0.71240  1.0000
  H   H50       1.0  0.43050  0.45940  0.28760  1.0000
  H   H51       1.0  0.50610  0.51230  0.61040  1.0000
  H   H52       1.0  0.49390  0.48770  0.38960  1.0000
  C   C79       1.0  0.61610  0.62590  0.64160  1.0000
  C   C80       1.0  0.38390  0.37410  0.35840  1.0000
  C   C81       1.0  0.71050  0.67360  0.70270  1.0000
  C   C82       1.0  0.28950  0.32640  0.29730  1.0000
  H   H53       1.0  0.74790  0.64740  0.75010  1.0000
  H   H54       1.0  0.25210  0.35260  0.24990  1.0000
  C   C83       1.0  0.74690  0.75820  0.69230  1.0000
  C   C84       1.0  0.25310  0.24180  0.30770  1.0000
  H   H55       1.0  0.80930  0.79120  0.73320  1.0000
  H   H56       1.0  0.19070  0.20880  0.26680  1.0000
  C   C85       1.0  0.69210  0.79530  0.62170  1.0000
  C   C86       1.0  0.30790  0.20470  0.37830  1.0000
  C   C87       1.0  0.60200  0.74740  0.56090  1.0000
  C   C88       1.0  0.39800  0.25260  0.43910  1.0000
  H   H57       1.0  0.56690  0.77250  0.51170  1.0000
  H   H58       1.0  0.43310  0.22750  0.48830  1.0000
  C   C89       1.0  0.56250  0.66330  0.57110  1.0000
  C   C90       1.0  0.43750  0.33670  0.42890  1.0000
  H   H59       1.0  0.49950  0.63150  0.53040  1.0000
  H   H60       1.0  0.50050  0.36850  0.46960  1.0000
  C   C91       1.0  0.72970  0.89010  0.61290  1.0000
  C   C92       1.0  0.27030  0.10990  0.38710  1.0000
  O   O29       1.0  0.68320  0.91770  0.54500  1.0000
  O   O30       1.0  0.31680  0.08230  0.45500  1.0000
  O   O31       1.0  0.80390  0.93910  0.67490  1.0000
  O   O32       1.0  0.19610  0.06090  0.32510  1.0000
  N   N1        1.0  0.31080  0.22310  0.10980  1.0000
  N   N2        1.0  0.68920  0.77690  0.89020  1.0000
  C   C93       1.0  0.29510  0.14040  0.13060  1.0000
  C   C94       1.0  0.70490  0.85960  0.86940  1.0000
  H   H61       1.0  0.23670  0.09840  0.09370  1.0000
  H   H62       1.0  0.76330  0.90160  0.90630  1.0000
  C   C95       1.0  0.35990  0.11420  0.20270  1.0000
  C   C96       1.0  0.64010  0.88580  0.79730  1.0000
  H   H63       1.0  0.34630  0.05540  0.21500  1.0000
  H   H64       1.0  0.65370  0.94460  0.78500  1.0000
  C   C97       1.0  0.44520  0.17470  0.25720  1.0000
  C   C98       1.0  0.55480  0.82530  0.74280  1.0000
  C   C99       1.0  0.46140  0.26200  0.23760  1.0000
  C   C100      1.0  0.53860  0.73800  0.76240  1.0000
  H   H65       1.0  0.51840  0.30580  0.27400  1.0000
  H   H66       1.0  0.48160  0.69420  0.72600  1.0000
  C   C101      1.0  0.39200  0.28170  0.16420  1.0000
  C   C102      1.0  0.60800  0.71830  0.83580  1.0000
  H   H67       1.0  0.40240  0.34070  0.15140  1.0000
  H   H68       1.0  0.59760  0.65930  0.84860  1.0000
  C   C103      1.0  0.52130  0.14770  0.33100  1.0000
  C   C104      1.0  0.47870  0.85230  0.66900  1.0000
  C   C105      1.0  0.49930  0.07310  0.36640  1.0000
  C   C106      1.0  0.50070  0.92690  0.63360  1.0000
  H   H69       1.0  0.43370  0.03960  0.34500  1.0000
  H   H70       1.0  0.56630  0.96040  0.65500  1.0000
  C   C107      1.0  0.57270  0.04730  0.43280  1.0000
  C   C108      1.0  0.42730  0.95270  0.56720  1.0000
  H   H71       1.0  0.55610  0.99500  0.45510  1.0000
  H   H72       1.0  0.44390  0.00500  0.54490  1.0000
  N   N3        1.0  0.66560  0.09210  0.46710  1.0000
  N   N4        1.0  0.33440  0.90790  0.53290  1.0000
  C   C109      1.0  0.68770  0.16500  0.43540  1.0000
  C   C110      1.0  0.31230  0.83500  0.56460  1.0000
  H   H73       1.0  0.75360  0.19810  0.45970  1.0000
  H   H74       1.0  0.24640  0.80190  0.54030  1.0000
  C   C111      1.0  0.61890  0.19480  0.36860  1.0000
  C   C112      1.0  0.38110  0.80520  0.63140  1.0000
  H   H75       1.0  0.63800  0.24750  0.34810  1.0000
  H   H76       1.0  0.36200  0.75250  0.65190  1.0000
