data_image0
_chemical_formula_structural       Cd3O36N6C18H6C18H6C6H6C6
_chemical_formula_sum              "Cd3 O36 N6 C48 H18"
_cell_length_a       15.0465
_cell_length_b       15.0465
_cell_length_c       12.6619
_cell_angle_alpha    90
_cell_angle_beta     90
_cell_angle_gamma    120

_space_group_name_H-M_alt    "P 1"
_space_group_IT_number       1

loop_
  _space_group_symop_operation_xyz
  'x, y, z'

loop_
  _atom_site_type_symbol
  _atom_site_label
  _atom_site_symmetry_multiplicity
  _atom_site_fract_x
  _atom_site_fract_y
  _atom_site_fract_z
  _atom_site_occupancy
  Cd  Cd1       1.0  0.00000  0.49979  0.83333  1.0000
  Cd  Cd2       1.0  0.50021  0.50021  0.50000  1.0000
  Cd  Cd3       1.0  0.49979  0.00000  0.16666  1.0000
  O   O1        1.0  0.92860  0.57220  0.94570  1.0000
  O   O2        1.0  0.42780  0.35640  0.61237  1.0000
  O   O3        1.0  0.64360  0.07140  0.27903  1.0000
  O   O4        1.0  0.35640  0.42780  0.38763  1.0000
  O   O5        1.0  0.07140  0.64360  0.72097  1.0000
  O   O6        1.0  0.57220  0.92860  0.05430  1.0000
  O   O7        1.0  0.86280  0.40790  0.96410  1.0000
  O   O8        1.0  0.59210  0.45490  0.63077  1.0000
  O   O9        1.0  0.54510  0.13720  0.29743  1.0000
  O   O10       1.0  0.45490  0.59210  0.36923  1.0000
  O   O11       1.0  0.13720  0.54510  0.70257  1.0000
  O   O12       1.0  0.40790  0.86280  0.03590  1.0000
  O   O13       1.0  0.64770  0.57400  0.39040  1.0000
  O   O14       1.0  0.42600  0.07370  0.05707  1.0000
  O   O15       1.0  0.92630  0.35230  0.72373  1.0000
  O   O16       1.0  0.07370  0.42600  0.94293  1.0000
  O   O17       1.0  0.35230  0.92630  0.27627  1.0000
  O   O18       1.0  0.57400  0.64770  0.60960  1.0000
  O   O19       1.0  0.55950  0.40930  0.37860  1.0000
  O   O20       1.0  0.59070  0.15020  0.04527  1.0000
  O   O21       1.0  0.84980  0.44050  0.71193  1.0000
  O   O22       1.0  0.15020  0.59070  0.95473  1.0000
  O   O23       1.0  0.44050  0.84980  0.28807  1.0000
  O   O24       1.0  0.40930  0.55950  0.62140  1.0000
  O   O25       1.0  0.87680  0.70900  0.34300  1.0000
  O   O26       1.0  0.29100  0.16780  0.00967  1.0000
  O   O27       1.0  0.83220  0.12320  0.67633  1.0000
  O   O28       1.0  0.16780  0.29100  0.99033  1.0000
  O   O29       1.0  0.12320  0.83220  0.32367  1.0000
  O   O30       1.0  0.70900  0.87680  0.65700  1.0000
  O   O31       1.0  0.78600  0.73500  0.22700  1.0000
  O   O32       1.0  0.26500  0.05100  0.89367  1.0000
  O   O33       1.0  0.94900  0.21400  0.56033  1.0000
  O   O34       1.0  0.05100  0.26500  0.10633  1.0000
  O   O35       1.0  0.21400  0.94900  0.43967  1.0000
  O   O36       1.0  0.73500  0.78600  0.77300  1.0000
  N   N1        1.0  0.82160  0.68450  0.26540  1.0000
  N   N2        1.0  0.31550  0.13710  0.93207  1.0000
  N   N3        1.0  0.86290  0.17840  0.59873  1.0000
  N   N4        1.0  0.13710  0.31550  0.06793  1.0000
  N   N5        1.0  0.17840  0.86290  0.40127  1.0000
  N   N6        1.0  0.68450  0.82160  0.73460  1.0000
  C   C1        1.0  0.86240  0.48530  0.98400  1.0000
  C   C2        1.0  0.51470  0.37710  0.65067  1.0000
  C   C3        1.0  0.62290  0.13760  0.31733  1.0000
  C   C4        1.0  0.37710  0.51470  0.34933  1.0000
  C   C5        1.0  0.13760  0.62290  0.68267  1.0000
  C   C6        1.0  0.48530  0.86240  0.01600  1.0000
  C   C7        1.0  0.80620  0.49320  0.08260  1.0000
  C   C8        1.0  0.50680  0.31300  0.74927  1.0000
  C   C9        1.0  0.68700  0.19380  0.41593  1.0000
  C   C10       1.0  0.31300  0.50680  0.25073  1.0000
  C   C11       1.0  0.19380  0.68700  0.58407  1.0000
  C   C12       1.0  0.49320  0.80620  0.91740  1.0000
  C   C13       1.0  0.83190  0.58610  0.13050  1.0000
  C   C14       1.0  0.41390  0.24580  0.79717  1.0000
  C   C15       1.0  0.75420  0.16810  0.46383  1.0000
  C   C16       1.0  0.24580  0.41390  0.20283  1.0000
  C   C17       1.0  0.16810  0.75420  0.53617  1.0000
  C   C18       1.0  0.58610  0.83190  0.86950  1.0000
  H   H1        1.0  0.88726  0.64819  0.10384  1.0000
  H   H2        1.0  0.35181  0.23907  0.77051  1.0000
  H   H3        1.0  0.76093  0.11274  0.43717  1.0000
  H   H4        1.0  0.23907  0.35181  0.22949  1.0000
  H   H5        1.0  0.11274  0.76093  0.56283  1.0000
  H   H6        1.0  0.64819  0.88726  0.89616  1.0000
  C   C19       1.0  0.77660  0.58820  0.21750  1.0000
  C   C20       1.0  0.41180  0.18840  0.88417  1.0000
  C   C21       1.0  0.81160  0.22340  0.55083  1.0000
  C   C22       1.0  0.18840  0.41180  0.11583  1.0000
  C   C23       1.0  0.22340  0.81160  0.44917  1.0000
  C   C24       1.0  0.58820  0.77660  0.78250  1.0000
  C   C25       1.0  0.69560  0.49740  0.25650  1.0000
  C   C26       1.0  0.50260  0.19820  0.92317  1.0000
  C   C27       1.0  0.80180  0.30440  0.58983  1.0000
  C   C28       1.0  0.19820  0.50260  0.07683  1.0000
  C   C29       1.0  0.30440  0.80180  0.41017  1.0000
  C   C30       1.0  0.49740  0.69560  0.74350  1.0000
  C   C31       1.0  0.66990  0.40450  0.20870  1.0000
  C   C32       1.0  0.59550  0.26540  0.87537  1.0000
  C   C33       1.0  0.73460  0.33010  0.54203  1.0000
  C   C34       1.0  0.26540  0.59550  0.12463  1.0000
  C   C35       1.0  0.33010  0.73460  0.45797  1.0000
  C   C36       1.0  0.40450  0.66990  0.79130  1.0000
  H   H7        1.0  0.61450  0.34241  0.23535  1.0000
  H   H8        1.0  0.65759  0.27209  0.90202  1.0000
  H   H9        1.0  0.72791  0.38550  0.56868  1.0000
  H   H10       1.0  0.27209  0.65759  0.09798  1.0000
  H   H11       1.0  0.38550  0.72791  0.43132  1.0000
  H   H12       1.0  0.34241  0.61450  0.76465  1.0000
  C   C37       1.0  0.72520  0.40240  0.12170  1.0000
  C   C38       1.0  0.59760  0.32280  0.78837  1.0000
  C   C39       1.0  0.67720  0.27480  0.45503  1.0000
  C   C40       1.0  0.32280  0.59760  0.21163  1.0000
  C   C41       1.0  0.27480  0.67720  0.54497  1.0000
  C   C42       1.0  0.40240  0.72520  0.87830  1.0000
  H   H13       1.0  0.70760  0.33883  0.08898  1.0000
  H   H14       1.0  0.66117  0.36877  0.75565  1.0000
  H   H15       1.0  0.63123  0.29240  0.42231  1.0000
  H   H16       1.0  0.36877  0.66117  0.24435  1.0000
  H   H17       1.0  0.29240  0.63123  0.57769  1.0000
  H   H18       1.0  0.33883  0.70760  0.91102  1.0000
  C   C43       1.0  0.62710  0.49980  0.34230  1.0000
  C   C44       1.0  0.50020  0.12730  0.00897  1.0000
  C   C45       1.0  0.87270  0.37290  0.67563  1.0000
  C   C46       1.0  0.12730  0.50020  0.99103  1.0000
  C   C47       1.0  0.37290  0.87270  0.32437  1.0000
  C   C48       1.0  0.49980  0.62710  0.65770  1.0000
