data_image0
_chemical_formula_structural       U16O88C8H8C8H8C16H8C8H8C8H8C24O8C8H8C8H8C32H8C40H8C40H8C8H8C8H8C8H8C8H8C8H8C8H8C8H8C8H8C16O32C8
_chemical_formula_sum              "U16 O128 C288 H144"
_cell_length_a       19.196
_cell_length_b       27.013
_cell_length_c       21.601
_cell_angle_alpha    90
_cell_angle_beta     90
_cell_angle_gamma    90

_space_group_name_H-M_alt    "P 1"
_space_group_IT_number       1

loop_
  _space_group_symop_operation_xyz
  'x, y, z'

loop_
  _atom_site_type_symbol
  _atom_site_label
  _atom_site_symmetry_multiplicity
  _atom_site_fract_x
  _atom_site_fract_y
  _atom_site_fract_z
  _atom_site_occupancy
  U   U1        1.0  0.75147  0.83071  0.10266  1.0000
  U   U2        1.0  0.24853  0.16929  0.10266  1.0000
  U   U3        1.0  0.75147  0.16929  0.89734  1.0000
  U   U4        1.0  0.24853  0.83071  0.89734  1.0000
  U   U5        1.0  0.25147  0.33071  0.60266  1.0000
  U   U6        1.0  0.74853  0.66929  0.60266  1.0000
  U   U7        1.0  0.25147  0.66929  0.39734  1.0000
  U   U8        1.0  0.74853  0.33071  0.39734  1.0000
  U   U9        1.0  0.74791  0.47565  0.81756  1.0000
  U   U10       1.0  0.25209  0.52435  0.81756  1.0000
  U   U11       1.0  0.74791  0.52435  0.18244  1.0000
  U   U12       1.0  0.25209  0.47565  0.18244  1.0000
  U   U13       1.0  0.24791  0.97565  0.31756  1.0000
  U   U14       1.0  0.75209  0.02435  0.31756  1.0000
  U   U15       1.0  0.24791  0.02435  0.68244  1.0000
  U   U16       1.0  0.75209  0.97565  0.68244  1.0000
  O   O1        1.0  0.69320  0.54250  0.87600  1.0000
  O   O2        1.0  0.30680  0.45750  0.87600  1.0000
  O   O3        1.0  0.69320  0.45750  0.12400  1.0000
  O   O4        1.0  0.30680  0.54250  0.12400  1.0000
  O   O5        1.0  0.19320  0.04250  0.37600  1.0000
  O   O6        1.0  0.80680  0.95750  0.37600  1.0000
  O   O7        1.0  0.19320  0.95750  0.62400  1.0000
  O   O8        1.0  0.80680  0.04250  0.62400  1.0000
  O   O9        1.0  0.73620  0.50320  0.74740  1.0000
  O   O10       1.0  0.26380  0.49680  0.74740  1.0000
  O   O11       1.0  0.73620  0.49680  0.25260  1.0000
  O   O12       1.0  0.26380  0.50320  0.25260  1.0000
  O   O13       1.0  0.23620  0.00320  0.24740  1.0000
  O   O14       1.0  0.76380  0.99680  0.24740  1.0000
  O   O15       1.0  0.23620  0.99680  0.75260  1.0000
  O   O16       1.0  0.76380  0.00320  0.75260  1.0000
  O   O17       1.0  0.82000  0.89500  0.15250  1.0000
  O   O18       1.0  0.18000  0.10500  0.15250  1.0000
  O   O19       1.0  0.82000  0.10500  0.84750  1.0000
  O   O20       1.0  0.18000  0.89500  0.84750  1.0000
  O   O21       1.0  0.32000  0.39500  0.65250  1.0000
  O   O22       1.0  0.68000  0.60500  0.65250  1.0000
  O   O23       1.0  0.32000  0.60500  0.34750  1.0000
  O   O24       1.0  0.68000  0.39500  0.34750  1.0000
  O   O25       1.0  0.67630  0.88210  0.16860  1.0000
  O   O26       1.0  0.32370  0.11790  0.16860  1.0000
  O   O27       1.0  0.67630  0.11790  0.83140  1.0000
  O   O28       1.0  0.32370  0.88210  0.83140  1.0000
  O   O29       1.0  0.17630  0.38210  0.66860  1.0000
  O   O30       1.0  0.82370  0.61790  0.66860  1.0000
  O   O31       1.0  0.17630  0.61790  0.33140  1.0000
  O   O32       1.0  0.82370  0.38210  0.33140  1.0000
  O   O33       1.0  0.69700  0.76680  0.04110  1.0000
  O   O34       1.0  0.30300  0.23320  0.04110  1.0000
  O   O35       1.0  0.69700  0.23320  0.95890  1.0000
  O   O36       1.0  0.30300  0.76680  0.95890  1.0000
  O   O37       1.0  0.19700  0.26680  0.54110  1.0000
  O   O38       1.0  0.80300  0.73320  0.54110  1.0000
  O   O39       1.0  0.19700  0.73320  0.45890  1.0000
  O   O40       1.0  0.80300  0.26680  0.45890  1.0000
  O   O41       1.0  0.81010  0.76820  0.03510  1.0000
  O   O42       1.0  0.18990  0.23180  0.03510  1.0000
  O   O43       1.0  0.81010  0.23180  0.96490  1.0000
  O   O44       1.0  0.18990  0.76820  0.96490  1.0000
  O   O45       1.0  0.31010  0.26820  0.53510  1.0000
  O   O46       1.0  0.68990  0.73180  0.53510  1.0000
  O   O47       1.0  0.31010  0.73180  0.46490  1.0000
  O   O48       1.0  0.68990  0.26820  0.46490  1.0000
  O   O49       1.0  0.11670  0.97130  0.31940  1.0000
  O   O50       1.0  0.88330  0.02870  0.31940  1.0000
  O   O51       1.0  0.11670  0.02870  0.68060  1.0000
  O   O52       1.0  0.88330  0.97130  0.68060  1.0000
  O   O53       1.0  0.61670  0.47130  0.81940  1.0000
  O   O54       1.0  0.38330  0.52870  0.81940  1.0000
  O   O55       1.0  0.61670  0.52870  0.18060  1.0000
  O   O56       1.0  0.38330  0.47130  0.18060  1.0000
  O   O57       1.0  0.74710  0.87100  0.03840  1.0000
  O   O58       1.0  0.25290  0.12900  0.03840  1.0000
  O   O59       1.0  0.74710  0.12900  0.96160  1.0000
  O   O60       1.0  0.25290  0.87100  0.96160  1.0000
  O   O61       1.0  0.24710  0.37100  0.53840  1.0000
  O   O62       1.0  0.75290  0.62900  0.53840  1.0000
  O   O63       1.0  0.24710  0.62900  0.46160  1.0000
  O   O64       1.0  0.75290  0.37100  0.46160  1.0000
  O   O65       1.0  0.62330  0.82770  0.11320  1.0000
  O   O66       1.0  0.37670  0.17230  0.11320  1.0000
  O   O67       1.0  0.62330  0.17230  0.88680  1.0000
  O   O68       1.0  0.37670  0.82770  0.88680  1.0000
  O   O69       1.0  0.12330  0.32770  0.61320  1.0000
  O   O70       1.0  0.87670  0.67230  0.61320  1.0000
  O   O71       1.0  0.12330  0.67230  0.38680  1.0000
  O   O72       1.0  0.87670  0.32770  0.38680  1.0000
  O   O73       1.0  0.87680  0.83790  0.10620  1.0000
  O   O74       1.0  0.12320  0.16210  0.10620  1.0000
  O   O75       1.0  0.87680  0.16210  0.89380  1.0000
  O   O76       1.0  0.12320  0.83790  0.89380  1.0000
  O   O77       1.0  0.37680  0.33790  0.60620  1.0000
  O   O78       1.0  0.62320  0.66210  0.60620  1.0000
  O   O79       1.0  0.37680  0.66210  0.39380  1.0000
  O   O80       1.0  0.62320  0.33790  0.39380  1.0000
  O   O81       1.0  0.37540  0.97570  0.29680  1.0000
  O   O82       1.0  0.62460  0.02430  0.29680  1.0000
  O   O83       1.0  0.37540  0.02430  0.70320  1.0000
  O   O84       1.0  0.62460  0.97570  0.70320  1.0000
  O   O85       1.0  0.87540  0.47570  0.79680  1.0000
  O   O86       1.0  0.12460  0.52430  0.79680  1.0000
  O   O87       1.0  0.87540  0.52430  0.20320  1.0000
  O   O88       1.0  0.12460  0.47570  0.20320  1.0000
  C   C1        1.0  0.14440  0.87680  0.09510  1.0000
  C   C2        1.0  0.85560  0.12320  0.09510  1.0000
  C   C3        1.0  0.14440  0.12320  0.90490  1.0000
  C   C4        1.0  0.85560  0.87680  0.90490  1.0000
  C   C5        1.0  0.64440  0.37680  0.59510  1.0000
  C   C6        1.0  0.35560  0.62320  0.59510  1.0000
  C   C7        1.0  0.64440  0.62320  0.40490  1.0000
  C   C8        1.0  0.35560  0.37680  0.40490  1.0000
  H   H1        1.0  0.18898  0.87073  0.08002  1.0000
  H   H2        1.0  0.81102  0.12927  0.08002  1.0000
  H   H3        1.0  0.18898  0.12927  0.91998  1.0000
  H   H4        1.0  0.81102  0.87073  0.91998  1.0000
  H   H5        1.0  0.68898  0.37073  0.58002  1.0000
  H   H6        1.0  0.31102  0.62927  0.58002  1.0000
  H   H7        1.0  0.68898  0.62927  0.41998  1.0000
  H   H8        1.0  0.31102  0.37073  0.41998  1.0000
  C   C9        1.0  0.35360  0.83870  0.09940  1.0000
  C   C10       1.0  0.64640  0.16130  0.09940  1.0000
  C   C11       1.0  0.35360  0.16130  0.90060  1.0000
  C   C12       1.0  0.64640  0.83870  0.90060  1.0000
  C   C13       1.0  0.85360  0.33870  0.59940  1.0000
  C   C14       1.0  0.14640  0.66130  0.59940  1.0000
  C   C15       1.0  0.85360  0.66130  0.40060  1.0000
  C   C16       1.0  0.14640  0.33870  0.40060  1.0000
  H   H9        1.0  0.31141  0.82335  0.09041  1.0000
  H   H10       1.0  0.68859  0.17665  0.09041  1.0000
  H   H11       1.0  0.31141  0.17665  0.90959  1.0000
  H   H12       1.0  0.68859  0.82335  0.90959  1.0000
  H   H13       1.0  0.81141  0.32335  0.59041  1.0000
  H   H14       1.0  0.18859  0.67665  0.59041  1.0000
  H   H15       1.0  0.81141  0.67665  0.40959  1.0000
  H   H16       1.0  0.18859  0.32335  0.40959  1.0000
  C   C17       1.0  0.78390  0.70450  0.92090  1.0000
  C   C18       1.0  0.21610  0.29550  0.92090  1.0000
  C   C19       1.0  0.78390  0.29550  0.07910  1.0000
  C   C20       1.0  0.21610  0.70450  0.07910  1.0000
  C   C21       1.0  0.28390  0.20450  0.42090  1.0000
  C   C22       1.0  0.71610  0.79550  0.42090  1.0000
  C   C23       1.0  0.28390  0.79550  0.57910  1.0000
  C   C24       1.0  0.71610  0.20450  0.57910  1.0000
  C   C25       1.0  0.36210  0.87430  0.15090  1.0000
  C   C26       1.0  0.63790  0.12570  0.15090  1.0000
  C   C27       1.0  0.36210  0.12570  0.84910  1.0000
  C   C28       1.0  0.63790  0.87430  0.84910  1.0000
  C   C29       1.0  0.86210  0.37430  0.65090  1.0000
  C   C30       1.0  0.13790  0.62570  0.65090  1.0000
  C   C31       1.0  0.86210  0.62570  0.34910  1.0000
  C   C32       1.0  0.13790  0.37430  0.34910  1.0000
  H   H17       1.0  0.32241  0.88856  0.16791  1.0000
  H   H18       1.0  0.67759  0.11144  0.16791  1.0000
  H   H19       1.0  0.32241  0.11144  0.83209  1.0000
  H   H20       1.0  0.67759  0.88856  0.83209  1.0000
  H   H21       1.0  0.82241  0.38856  0.66791  1.0000
  H   H22       1.0  0.17759  0.61144  0.66791  1.0000
  H   H23       1.0  0.82241  0.61144  0.33209  1.0000
  H   H24       1.0  0.17759  0.38856  0.33209  1.0000
  C   C33       1.0  0.13680  0.89890  0.15040  1.0000
  C   C34       1.0  0.86320  0.10110  0.15040  1.0000
  C   C35       1.0  0.13680  0.10110  0.84960  1.0000
  C   C36       1.0  0.86320  0.89890  0.84960  1.0000
  C   C37       1.0  0.63680  0.39890  0.65040  1.0000
  C   C38       1.0  0.36320  0.60110  0.65040  1.0000
  C   C39       1.0  0.63680  0.60110  0.34960  1.0000
  C   C40       1.0  0.36320  0.39890  0.34960  1.0000
  H   H25       1.0  0.17582  0.91302  0.16874  1.0000
  H   H26       1.0  0.82418  0.08698  0.16874  1.0000
  H   H27       1.0  0.17582  0.08698  0.83126  1.0000
  H   H28       1.0  0.82418  0.91302  0.83126  1.0000
  H   H29       1.0  0.67582  0.41302  0.66874  1.0000
  H   H30       1.0  0.32418  0.58698  0.66874  1.0000
  H   H31       1.0  0.67582  0.58698  0.33126  1.0000
  H   H32       1.0  0.32418  0.41302  0.33126  1.0000
  C   C41       1.0  0.02050  0.86730  0.08180  1.0000
  C   C42       1.0  0.97950  0.13270  0.08180  1.0000
  C   C43       1.0  0.02050  0.13270  0.91820  1.0000
  C   C44       1.0  0.97950  0.86730  0.91820  1.0000
  C   C45       1.0  0.52050  0.36730  0.58180  1.0000
  C   C46       1.0  0.47950  0.63270  0.58180  1.0000
  C   C47       1.0  0.52050  0.63270  0.41820  1.0000
  C   C48       1.0  0.47950  0.36730  0.41820  1.0000
  H   H33       1.0  0.98259  0.85941  0.05687  1.0000
  H   H34       1.0  0.01741  0.14059  0.05687  1.0000
  H   H35       1.0  0.98259  0.14059  0.94313  1.0000
  H   H36       1.0  0.01741  0.85941  0.94313  1.0000
  H   H37       1.0  0.48259  0.35941  0.55687  1.0000
  H   H38       1.0  0.51741  0.64059  0.55687  1.0000
  H   H39       1.0  0.48259  0.64059  0.44313  1.0000
  H   H40       1.0  0.51741  0.35941  0.44313  1.0000
  C   C49       1.0  0.75020  0.57090  0.87530  1.0000
  C   C50       1.0  0.24980  0.42910  0.87530  1.0000
  C   C51       1.0  0.75020  0.42910  0.12470  1.0000
  C   C52       1.0  0.24980  0.57090  0.12470  1.0000
  C   C53       1.0  0.25020  0.07090  0.37530  1.0000
  C   C54       1.0  0.74980  0.92910  0.37530  1.0000
  C   C55       1.0  0.25020  0.92910  0.62470  1.0000
  C   C56       1.0  0.74980  0.07090  0.62470  1.0000
  C   C57       1.0  0.48720  0.86760  0.15130  1.0000
  C   C58       1.0  0.51280  0.13240  0.15130  1.0000
  C   C59       1.0  0.48720  0.13240  0.84870  1.0000
  C   C60       1.0  0.51280  0.86760  0.84870  1.0000
  C   C61       1.0  0.98720  0.36760  0.65130  1.0000
  C   C62       1.0  0.01280  0.63240  0.65130  1.0000
  C   C63       1.0  0.98720  0.63240  0.34870  1.0000
  C   C64       1.0  0.01280  0.36760  0.34870  1.0000
  C   C65       1.0  0.01020  0.88490  0.14560  1.0000
  C   C66       1.0  0.98980  0.11510  0.14560  1.0000
  C   C67       1.0  0.01020  0.11510  0.85440  1.0000
  C   C68       1.0  0.98980  0.88490  0.85440  1.0000
  C   C69       1.0  0.51020  0.38490  0.64560  1.0000
  C   C70       1.0  0.48980  0.61510  0.64560  1.0000
  C   C71       1.0  0.51020  0.61510  0.35440  1.0000
  C   C72       1.0  0.48980  0.38490  0.35440  1.0000
  O   O89       1.0  0.31970  0.90800  0.27000  1.0000
  O   O90       1.0  0.68030  0.09200  0.27000  1.0000
  O   O91       1.0  0.31970  0.09200  0.73000  1.0000
  O   O92       1.0  0.68030  0.90800  0.73000  1.0000
  O   O93       1.0  0.81970  0.40800  0.77000  1.0000
  O   O94       1.0  0.18030  0.59200  0.77000  1.0000
  O   O95       1.0  0.81970  0.59200  0.23000  1.0000
  O   O96       1.0  0.18030  0.40800  0.23000  1.0000
  C   C73       1.0  0.49600  0.92840  0.25150  1.0000
  C   C74       1.0  0.50400  0.07160  0.25150  1.0000
  C   C75       1.0  0.49600  0.07160  0.74850  1.0000
  C   C76       1.0  0.50400  0.92840  0.74850  1.0000
  C   C77       1.0  0.99600  0.42840  0.75150  1.0000
  C   C78       1.0  0.00400  0.57160  0.75150  1.0000
  C   C79       1.0  0.99600  0.57160  0.24850  1.0000
  C   C80       1.0  0.00400  0.42840  0.24850  1.0000
  H   H41       1.0  0.49816  0.95264  0.28200  1.0000
  H   H42       1.0  0.50184  0.04736  0.28200  1.0000
  H   H43       1.0  0.49816  0.04736  0.71800  1.0000
  H   H44       1.0  0.50184  0.95264  0.71800  1.0000
  H   H45       1.0  0.99816  0.45264  0.78200  1.0000
  H   H46       1.0  0.00184  0.54736  0.78200  1.0000
  H   H47       1.0  0.99816  0.54736  0.21800  1.0000
  H   H48       1.0  0.00184  0.45264  0.21800  1.0000
  C   C81       1.0  0.99310  0.93120  0.26490  1.0000
  C   C82       1.0  0.00690  0.06880  0.26490  1.0000
  C   C83       1.0  0.99310  0.06880  0.73510  1.0000
  C   C84       1.0  0.00690  0.93120  0.73510  1.0000
  C   C85       1.0  0.49310  0.43120  0.76490  1.0000
  C   C86       1.0  0.50690  0.56880  0.76490  1.0000
  C   C87       1.0  0.49310  0.56880  0.23510  1.0000
  C   C88       1.0  0.50690  0.43120  0.23510  1.0000
  H   H49       1.0  0.98600  0.94198  0.30536  1.0000
  H   H50       1.0  0.01400  0.05802  0.30536  1.0000
  H   H51       1.0  0.98600  0.05802  0.69464  1.0000
  H   H52       1.0  0.01400  0.94198  0.69464  1.0000
  H   H53       1.0  0.48600  0.44198  0.80536  1.0000
  H   H54       1.0  0.51400  0.55802  0.80536  1.0000
  H   H55       1.0  0.48600  0.55802  0.19464  1.0000
  H   H56       1.0  0.51400  0.44198  0.19464  1.0000
  C   C89       1.0  0.42540  0.88720  0.17460  1.0000
  C   C90       1.0  0.57460  0.11280  0.17460  1.0000
  C   C91       1.0  0.42540  0.11280  0.82540  1.0000
  C   C92       1.0  0.57460  0.88720  0.82540  1.0000
  C   C93       1.0  0.92540  0.38720  0.67460  1.0000
  C   C94       1.0  0.07460  0.61280  0.67460  1.0000
  C   C95       1.0  0.92540  0.61280  0.32540  1.0000
  C   C96       1.0  0.07460  0.38720  0.32540  1.0000
  C   C97       1.0  0.07030  0.90170  0.18310  1.0000
  C   C98       1.0  0.92970  0.09830  0.18310  1.0000
  C   C99       1.0  0.07030  0.09830  0.81690  1.0000
  C   C100      1.0  0.92970  0.90170  0.81690  1.0000
  C   C101      1.0  0.57030  0.40170  0.68310  1.0000
  C   C102      1.0  0.42970  0.59830  0.68310  1.0000
  C   C103      1.0  0.57030  0.59830  0.31690  1.0000
  C   C104      1.0  0.42970  0.40170  0.31690  1.0000
  C   C105      1.0  0.61930  0.86240  0.14540  1.0000
  C   C106      1.0  0.38070  0.13760  0.14540  1.0000
  C   C107      1.0  0.61930  0.13760  0.85460  1.0000
  C   C108      1.0  0.38070  0.86240  0.85460  1.0000
  C   C109      1.0  0.11930  0.36240  0.64540  1.0000
  C   C110      1.0  0.88070  0.63760  0.64540  1.0000
  C   C111      1.0  0.11930  0.63760  0.35460  1.0000
  C   C112      1.0  0.88070  0.36240  0.35460  1.0000
  C   C113      1.0  0.55780  0.90740  0.23000  1.0000
  C   C114      1.0  0.44220  0.09260  0.23000  1.0000
  C   C115      1.0  0.55780  0.09260  0.77000  1.0000
  C   C116      1.0  0.44220  0.90740  0.77000  1.0000
  C   C117      1.0  0.05780  0.40740  0.73000  1.0000
  C   C118      1.0  0.94220  0.59260  0.73000  1.0000
  C   C119      1.0  0.05780  0.59260  0.27000  1.0000
  C   C120      1.0  0.94220  0.40740  0.27000  1.0000
  H   H57       1.0  0.59959  0.91023  0.25154  1.0000
  H   H58       1.0  0.40041  0.08977  0.25154  1.0000
  H   H59       1.0  0.59959  0.08977  0.74846  1.0000
  H   H60       1.0  0.40041  0.91023  0.74846  1.0000
  H   H61       1.0  0.09959  0.41023  0.75154  1.0000
  H   H62       1.0  0.90041  0.58977  0.75154  1.0000
  H   H63       1.0  0.09959  0.58977  0.24846  1.0000
  H   H64       1.0  0.90041  0.41023  0.24846  1.0000
  C   C121      1.0  0.43210  0.91420  0.22910  1.0000
  C   C122      1.0  0.56790  0.08580  0.22910  1.0000
  C   C123      1.0  0.43210  0.08580  0.77090  1.0000
  C   C124      1.0  0.56790  0.91420  0.77090  1.0000
  C   C125      1.0  0.93210  0.41420  0.72910  1.0000
  C   C126      1.0  0.06790  0.58580  0.72910  1.0000
  C   C127      1.0  0.93210  0.58580  0.27090  1.0000
  C   C128      1.0  0.06790  0.41420  0.27090  1.0000
  C   C129      1.0  0.87680  0.87320  0.14820  1.0000
  C   C130      1.0  0.12320  0.12680  0.14820  1.0000
  C   C131      1.0  0.87680  0.12680  0.85180  1.0000
  C   C132      1.0  0.12320  0.87320  0.85180  1.0000
  C   C133      1.0  0.37680  0.37320  0.64820  1.0000
  C   C134      1.0  0.62320  0.62680  0.64820  1.0000
  C   C135      1.0  0.37680  0.62680  0.35180  1.0000
  C   C136      1.0  0.62320  0.37320  0.35180  1.0000
  C   C137      1.0  0.55280  0.88140  0.17290  1.0000
  C   C138      1.0  0.44720  0.11860  0.17290  1.0000
  C   C139      1.0  0.55280  0.11860  0.82710  1.0000
  C   C140      1.0  0.44720  0.88140  0.82710  1.0000
  C   C141      1.0  0.05280  0.38140  0.67290  1.0000
  C   C142      1.0  0.94720  0.61860  0.67290  1.0000
  C   C143      1.0  0.05280  0.61860  0.32710  1.0000
  C   C144      1.0  0.94720  0.38140  0.32710  1.0000
  C   C145      1.0  0.06190  0.92400  0.23950  1.0000
  C   C146      1.0  0.93810  0.07600  0.23950  1.0000
  C   C147      1.0  0.06190  0.07600  0.76050  1.0000
  C   C148      1.0  0.93810  0.92400  0.76050  1.0000
  C   C149      1.0  0.56190  0.42400  0.73950  1.0000
  C   C150      1.0  0.43810  0.57600  0.73950  1.0000
  C   C151      1.0  0.56190  0.57600  0.26050  1.0000
  C   C152      1.0  0.43810  0.42400  0.26050  1.0000
  C   C153      1.0  0.93620  0.92060  0.22340  1.0000
  C   C154      1.0  0.06380  0.07940  0.22340  1.0000
  C   C155      1.0  0.93620  0.07940  0.77660  1.0000
  C   C156      1.0  0.06380  0.92060  0.77660  1.0000
  C   C157      1.0  0.43620  0.42060  0.72340  1.0000
  C   C158      1.0  0.56380  0.57940  0.72340  1.0000
  C   C159      1.0  0.43620  0.57940  0.27660  1.0000
  C   C160      1.0  0.56380  0.42060  0.27660  1.0000
  H   H65       1.0  0.89277  0.93426  0.23203  1.0000
  H   H66       1.0  0.10723  0.06574  0.23203  1.0000
  H   H67       1.0  0.89277  0.06574  0.76797  1.0000
  H   H68       1.0  0.10723  0.93426  0.76797  1.0000
  H   H69       1.0  0.39277  0.43426  0.73203  1.0000
  H   H70       1.0  0.60723  0.56574  0.73203  1.0000
  H   H71       1.0  0.39277  0.56574  0.26797  1.0000
  H   H72       1.0  0.60723  0.43426  0.26797  1.0000
  C   C161      1.0  0.94250  0.89260  0.17390  1.0000
  C   C162      1.0  0.05750  0.10740  0.17390  1.0000
  C   C163      1.0  0.94250  0.10740  0.82610  1.0000
  C   C164      1.0  0.05750  0.89260  0.82610  1.0000
  C   C165      1.0  0.44250  0.39260  0.67390  1.0000
  C   C166      1.0  0.55750  0.60740  0.67390  1.0000
  C   C167      1.0  0.44250  0.60740  0.32610  1.0000
  C   C168      1.0  0.55750  0.39260  0.32610  1.0000
  C   C169      1.0  0.75090  0.61580  0.91300  1.0000
  C   C170      1.0  0.24910  0.38420  0.91300  1.0000
  C   C171      1.0  0.75090  0.38420  0.08700  1.0000
  C   C172      1.0  0.24910  0.61580  0.08700  1.0000
  C   C173      1.0  0.25090  0.11580  0.41300  1.0000
  C   C174      1.0  0.74910  0.88420  0.41300  1.0000
  C   C175      1.0  0.25090  0.88420  0.58700  1.0000
  C   C176      1.0  0.74910  0.11580  0.58700  1.0000
  C   C177      1.0  0.75680  0.70160  0.98420  1.0000
  C   C178      1.0  0.24320  0.29840  0.98420  1.0000
  C   C179      1.0  0.75680  0.29840  0.01580  1.0000
  C   C180      1.0  0.24320  0.70160  0.01580  1.0000
  C   C181      1.0  0.25680  0.20160  0.48420  1.0000
  C   C182      1.0  0.74320  0.79840  0.48420  1.0000
  C   C183      1.0  0.25680  0.79840  0.51580  1.0000
  C   C184      1.0  0.74320  0.20160  0.51580  1.0000
  C   C185      1.0  0.75350  0.74730  0.02150  1.0000
  C   C186      1.0  0.24650  0.25270  0.02150  1.0000
  C   C187      1.0  0.75350  0.25270  0.97850  1.0000
  C   C188      1.0  0.24650  0.74730  0.97850  1.0000
  C   C189      1.0  0.25350  0.24730  0.52150  1.0000
  C   C190      1.0  0.74650  0.75270  0.52150  1.0000
  C   C191      1.0  0.25350  0.75270  0.47850  1.0000
  C   C192      1.0  0.74650  0.24730  0.47850  1.0000
  C   C193      1.0  0.08690  0.86290  0.05980  1.0000
  C   C194      1.0  0.91310  0.13710  0.05980  1.0000
  C   C195      1.0  0.08690  0.13710  0.94020  1.0000
  C   C196      1.0  0.91310  0.86290  0.94020  1.0000
  C   C197      1.0  0.58690  0.36290  0.55980  1.0000
  C   C198      1.0  0.41310  0.63710  0.55980  1.0000
  C   C199      1.0  0.58690  0.63710  0.44020  1.0000
  C   C200      1.0  0.41310  0.36290  0.44020  1.0000
  H   H73       1.0  0.09393  0.85019  0.02029  1.0000
  H   H74       1.0  0.90607  0.14981  0.02029  1.0000
  H   H75       1.0  0.09393  0.14981  0.97971  1.0000
  H   H76       1.0  0.90607  0.85019  0.97971  1.0000
  H   H77       1.0  0.59393  0.35019  0.52029  1.0000
  H   H78       1.0  0.40607  0.64981  0.52029  1.0000
  H   H79       1.0  0.59393  0.64981  0.47971  1.0000
  H   H80       1.0  0.40607  0.35019  0.47971  1.0000
  C   C201      1.0  0.48100  0.83990  0.09320  1.0000
  C   C202      1.0  0.51900  0.16010  0.09320  1.0000
  C   C203      1.0  0.48100  0.16010  0.90680  1.0000
  C   C204      1.0  0.51900  0.83990  0.90680  1.0000
  C   C205      1.0  0.98100  0.33990  0.59320  1.0000
  C   C206      1.0  0.01900  0.66010  0.59320  1.0000
  C   C207      1.0  0.98100  0.66010  0.40680  1.0000
  C   C208      1.0  0.01900  0.33990  0.40680  1.0000
  H   H81       1.0  0.52104  0.82841  0.07376  1.0000
  H   H82       1.0  0.47896  0.17159  0.07376  1.0000
  H   H83       1.0  0.52104  0.17159  0.92624  1.0000
  H   H84       1.0  0.47896  0.82841  0.92624  1.0000
  H   H85       1.0  0.02104  0.32841  0.57376  1.0000
  H   H86       1.0  0.97896  0.67159  0.57376  1.0000
  H   H87       1.0  0.02104  0.67159  0.42624  1.0000
  H   H88       1.0  0.97896  0.32841  0.42624  1.0000
  C   C209      1.0  0.79890  0.66330  0.82170  1.0000
  C   C210      1.0  0.20110  0.33670  0.82170  1.0000
  C   C211      1.0  0.79890  0.33670  0.17830  1.0000
  C   C212      1.0  0.20110  0.66330  0.17830  1.0000
  C   C213      1.0  0.29890  0.16330  0.32170  1.0000
  C   C214      1.0  0.70110  0.83670  0.32170  1.0000
  C   C215      1.0  0.29890  0.83670  0.67830  1.0000
  C   C216      1.0  0.70110  0.16330  0.67830  1.0000
  H   H89       1.0  0.79233  0.63651  0.79521  1.0000
  H   H90       1.0  0.20767  0.36349  0.79521  1.0000
  H   H91       1.0  0.79233  0.36349  0.20479  1.0000
  H   H92       1.0  0.20767  0.63651  0.20479  1.0000
  H   H93       1.0  0.29233  0.13651  0.29521  1.0000
  H   H94       1.0  0.70767  0.86349  0.29521  1.0000
  H   H95       1.0  0.29233  0.86349  0.70479  1.0000
  H   H96       1.0  0.70767  0.13651  0.70479  1.0000
  C   C217      1.0  0.80600  0.74920  0.88920  1.0000
  C   C218      1.0  0.19400  0.25080  0.88920  1.0000
  C   C219      1.0  0.80600  0.25080  0.11080  1.0000
  C   C220      1.0  0.19400  0.74920  0.11080  1.0000
  C   C221      1.0  0.30600  0.24920  0.38920  1.0000
  C   C222      1.0  0.69400  0.75080  0.38920  1.0000
  C   C223      1.0  0.30600  0.75080  0.61080  1.0000
  C   C224      1.0  0.69400  0.24920  0.61080  1.0000
  H   H97       1.0  0.80318  0.77912  0.91039  1.0000
  H   H98       1.0  0.19682  0.22088  0.91039  1.0000
  H   H99       1.0  0.80318  0.22088  0.08961  1.0000
  H   H100      1.0  0.19682  0.77912  0.08961  1.0000
  H   H101      1.0  0.30318  0.27912  0.41039  1.0000
  H   H102      1.0  0.69682  0.72088  0.41039  1.0000
  H   H103      1.0  0.30318  0.72088  0.58961  1.0000
  H   H104      1.0  0.69682  0.27912  0.58961  1.0000
  C   C225      1.0  0.82600  0.70760  0.79850  1.0000
  C   C226      1.0  0.17400  0.29240  0.79850  1.0000
  C   C227      1.0  0.82600  0.29240  0.20150  1.0000
  C   C228      1.0  0.17400  0.70760  0.20150  1.0000
  C   C229      1.0  0.32600  0.20760  0.29850  1.0000
  C   C230      1.0  0.67400  0.79240  0.29850  1.0000
  C   C231      1.0  0.32600  0.79240  0.70150  1.0000
  C   C232      1.0  0.67400  0.20760  0.70150  1.0000
  H   H105      1.0  0.84185  0.70758  0.75781  1.0000
  H   H106      1.0  0.15815  0.29242  0.75781  1.0000
  H   H107      1.0  0.84185  0.29242  0.24219  1.0000
  H   H108      1.0  0.15815  0.70758  0.24219  1.0000
  H   H109      1.0  0.34185  0.20758  0.25781  1.0000
  H   H110      1.0  0.65815  0.79242  0.25781  1.0000
  H   H111      1.0  0.34185  0.79242  0.74219  1.0000
  H   H112      1.0  0.65815  0.20758  0.74219  1.0000
  C   C233      1.0  0.83090  0.74960  0.82990  1.0000
  C   C234      1.0  0.16910  0.25040  0.82990  1.0000
  C   C235      1.0  0.83090  0.25040  0.17010  1.0000
  C   C236      1.0  0.16910  0.74960  0.17010  1.0000
  C   C237      1.0  0.33090  0.24960  0.32990  1.0000
  C   C238      1.0  0.66910  0.75040  0.32990  1.0000
  C   C239      1.0  0.33090  0.75040  0.67010  1.0000
  C   C240      1.0  0.66910  0.24960  0.67010  1.0000
  H   H113      1.0  0.85028  0.77796  0.81241  1.0000
  H   H114      1.0  0.14972  0.22204  0.81241  1.0000
  H   H115      1.0  0.85028  0.22204  0.18759  1.0000
  H   H116      1.0  0.14972  0.77796  0.18759  1.0000
  H   H117      1.0  0.35028  0.27796  0.31241  1.0000
  H   H118      1.0  0.64972  0.72204  0.31241  1.0000
  H   H119      1.0  0.35028  0.72204  0.68759  1.0000
  H   H120      1.0  0.64972  0.27796  0.68759  1.0000
  C   C241      1.0  0.41380  0.83020  0.06600  1.0000
  C   C242      1.0  0.58620  0.16980  0.06600  1.0000
  C   C243      1.0  0.41380  0.16980  0.93400  1.0000
  C   C244      1.0  0.58620  0.83020  0.93400  1.0000
  C   C245      1.0  0.91380  0.33020  0.56600  1.0000
  C   C246      1.0  0.08620  0.66980  0.56600  1.0000
  C   C247      1.0  0.91380  0.66980  0.43400  1.0000
  C   C248      1.0  0.08620  0.33020  0.43400  1.0000
  H   H121      1.0  0.41094  0.81831  0.02525  1.0000
  H   H122      1.0  0.58906  0.18169  0.02525  1.0000
  H   H123      1.0  0.41094  0.18169  0.97475  1.0000
  H   H124      1.0  0.58906  0.81831  0.97475  1.0000
  H   H125      1.0  0.91094  0.31831  0.52525  1.0000
  H   H126      1.0  0.08906  0.68169  0.52525  1.0000
  H   H127      1.0  0.91094  0.68169  0.47475  1.0000
  H   H128      1.0  0.08906  0.31831  0.47475  1.0000
  C   C249      1.0  0.72880  0.66060  0.00660  1.0000
  C   C250      1.0  0.27120  0.33940  0.00660  1.0000
  C   C251      1.0  0.72880  0.33940  0.99340  1.0000
  C   C252      1.0  0.27120  0.66060  0.99340  1.0000
  C   C253      1.0  0.22880  0.16060  0.50660  1.0000
  C   C254      1.0  0.77120  0.83940  0.50660  1.0000
  C   C255      1.0  0.22880  0.83940  0.49340  1.0000
  C   C256      1.0  0.77120  0.16060  0.49340  1.0000
  H   H129      1.0  0.70979  0.66073  0.04616  1.0000
  H   H130      1.0  0.29021  0.33927  0.04616  1.0000
  H   H131      1.0  0.70979  0.33927  0.95384  1.0000
  H   H132      1.0  0.29021  0.66073  0.95384  1.0000
  H   H133      1.0  0.20979  0.16073  0.54616  1.0000
  H   H134      1.0  0.79021  0.83927  0.54616  1.0000
  H   H135      1.0  0.20979  0.83927  0.45384  1.0000
  H   H136      1.0  0.79021  0.16073  0.45384  1.0000
  C   C257      1.0  0.72760  0.61630  0.97080  1.0000
  C   C258      1.0  0.27240  0.38370  0.97080  1.0000
  C   C259      1.0  0.72760  0.38370  0.02920  1.0000
  C   C260      1.0  0.27240  0.61630  0.02920  1.0000
  C   C261      1.0  0.22760  0.11630  0.47080  1.0000
  C   C262      1.0  0.77240  0.88370  0.47080  1.0000
  C   C263      1.0  0.22760  0.88370  0.52920  1.0000
  C   C264      1.0  0.77240  0.11630  0.52920  1.0000
  H   H137      1.0  0.71012  0.58736  0.98824  1.0000
  H   H138      1.0  0.28988  0.41264  0.98824  1.0000
  H   H139      1.0  0.71012  0.41264  0.01176  1.0000
  H   H140      1.0  0.28988  0.58736  0.01176  1.0000
  H   H141      1.0  0.21012  0.08736  0.48824  1.0000
  H   H142      1.0  0.78988  0.91264  0.48824  1.0000
  H   H143      1.0  0.21012  0.91264  0.51176  1.0000
  H   H144      1.0  0.78988  0.08736  0.51176  1.0000
  C   C265      1.0  0.78120  0.65880  0.88610  1.0000
  C   C266      1.0  0.21880  0.34120  0.88610  1.0000
  C   C267      1.0  0.78120  0.34120  0.11390  1.0000
  C   C268      1.0  0.21880  0.65880  0.11390  1.0000
  C   C269      1.0  0.28120  0.15880  0.38610  1.0000
  C   C270      1.0  0.71880  0.84120  0.38610  1.0000
  C   C271      1.0  0.28120  0.84120  0.61390  1.0000
  C   C272      1.0  0.71880  0.15880  0.61390  1.0000
  C   C273      1.0  0.11980  0.93850  0.28260  1.0000
  C   C274      1.0  0.88020  0.06150  0.28260  1.0000
  C   C275      1.0  0.11980  0.06150  0.71740  1.0000
  C   C276      1.0  0.88020  0.93850  0.71740  1.0000
  C   C277      1.0  0.61980  0.43850  0.78260  1.0000
  C   C278      1.0  0.38020  0.56150  0.78260  1.0000
  C   C279      1.0  0.61980  0.56150  0.21740  1.0000
  C   C280      1.0  0.38020  0.43850  0.21740  1.0000
  O   O97       1.0  0.76210  0.79050  0.16430  1.0000
  O   O98       1.0  0.23790  0.20950  0.16430  1.0000
  O   O99       1.0  0.76210  0.20950  0.83570  1.0000
  O   O100      1.0  0.23790  0.79050  0.83570  1.0000
  O   O101      1.0  0.26210  0.29050  0.66430  1.0000
  O   O102      1.0  0.73790  0.70950  0.66430  1.0000
  O   O103      1.0  0.26210  0.70950  0.33570  1.0000
  O   O104      1.0  0.73790  0.29050  0.33570  1.0000
  O   O105      1.0  0.75690  0.44780  0.88880  1.0000
  O   O106      1.0  0.24310  0.55220  0.88880  1.0000
  O   O107      1.0  0.75690  0.55220  0.11120  1.0000
  O   O108      1.0  0.24310  0.44780  0.11120  1.0000
  O   O109      1.0  0.25690  0.94780  0.38880  1.0000
  O   O110      1.0  0.74310  0.05220  0.38880  1.0000
  O   O111      1.0  0.25690  0.05220  0.61120  1.0000
  O   O112      1.0  0.74310  0.94780  0.61120  1.0000
  O   O113      1.0  0.80450  0.55400  0.84980  1.0000
  O   O114      1.0  0.19550  0.44600  0.84980  1.0000
  O   O115      1.0  0.80450  0.44600  0.15020  1.0000
  O   O116      1.0  0.19550  0.55400  0.15020  1.0000
  O   O117      1.0  0.30450  0.05400  0.34980  1.0000
  O   O118      1.0  0.69550  0.94600  0.34980  1.0000
  O   O119      1.0  0.30450  0.94600  0.65020  1.0000
  O   O120      1.0  0.69550  0.05400  0.65020  1.0000
  O   O121      1.0  0.17140  0.91000  0.28220  1.0000
  O   O122      1.0  0.82860  0.09000  0.28220  1.0000
  O   O123      1.0  0.17140  0.09000  0.71780  1.0000
  O   O124      1.0  0.82860  0.91000  0.71780  1.0000
  O   O125      1.0  0.67140  0.41000  0.78220  1.0000
  O   O126      1.0  0.32860  0.59000  0.78220  1.0000
  O   O127      1.0  0.67140  0.59000  0.21780  1.0000
  O   O128      1.0  0.32860  0.41000  0.21780  1.0000
  C   C281      1.0  0.37520  0.93280  0.26840  1.0000
  C   C282      1.0  0.62480  0.06720  0.26840  1.0000
  C   C283      1.0  0.37520  0.06720  0.73160  1.0000
  C   C284      1.0  0.62480  0.93280  0.73160  1.0000
  C   C285      1.0  0.87520  0.43280  0.76840  1.0000
  C   C286      1.0  0.12480  0.56720  0.76840  1.0000
  C   C287      1.0  0.87520  0.56720  0.23160  1.0000
  C   C288      1.0  0.12480  0.43280  0.23160  1.0000
