data_image0
_chemical_formula_structural       U8O16C8H4C4H4C8H4C4H4C4H4C4H4C12O16C8H4C4H4C8H4C4H4C4H4C4H4C16O16C8H4C4H4C8H4C4H4C4H4C4H4C16O16C4
_chemical_formula_sum              "U8 O64 C144 H72"
_cell_length_a       16.7566
_cell_length_b       22.7781
_cell_length_c       13.8044
_cell_angle_alpha    90
_cell_angle_beta     92.711
_cell_angle_gamma    90

_space_group_name_H-M_alt    "P 1"
_space_group_IT_number       1

loop_
  _space_group_symop_operation_xyz
  'x, y, z'

loop_
  _atom_site_type_symbol
  _atom_site_label
  _atom_site_symmetry_multiplicity
  _atom_site_fract_x
  _atom_site_fract_y
  _atom_site_fract_z
  _atom_site_occupancy
  U   U1        1.0  0.00228  0.60785  0.44970  1.0000
  U   U2        1.0  0.99772  0.10785  0.05030  1.0000
  U   U3        1.0  0.99772  0.39215  0.55030  1.0000
  U   U4        1.0  0.00228  0.89215  0.94970  1.0000
  U   U5        1.0  0.60880  0.00715  0.27317  1.0000
  U   U6        1.0  0.39120  0.50715  0.22683  1.0000
  U   U7        1.0  0.39120  0.99285  0.72683  1.0000
  U   U8        1.0  0.60880  0.49285  0.77317  1.0000
  O   O1        1.0  0.95740  0.70940  0.43640  1.0000
  O   O2        1.0  0.04260  0.20940  0.06360  1.0000
  O   O3        1.0  0.04260  0.29060  0.56360  1.0000
  O   O4        1.0  0.95740  0.79060  0.93640  1.0000
  O   O5        1.0  0.88730  0.64730  0.35150  1.0000
  O   O6        1.0  0.11270  0.14730  0.14850  1.0000
  O   O7        1.0  0.11270  0.35270  0.64850  1.0000
  O   O8        1.0  0.88730  0.85270  0.85150  1.0000
  O   O9        1.0  0.72260  0.94830  0.33160  1.0000
  O   O10       1.0  0.27740  0.44830  0.16840  1.0000
  O   O11       1.0  0.27740  0.05170  0.66840  1.0000
  O   O12       1.0  0.72260  0.55170  0.83160  1.0000
  O   O13       1.0  0.62000  0.90030  0.27260  1.0000
  O   O14       1.0  0.38000  0.40030  0.22740  1.0000
  O   O15       1.0  0.38000  0.09970  0.72740  1.0000
  O   O16       1.0  0.62000  0.59970  0.77260  1.0000
  C   C1        1.0  0.83620  0.74750  0.36110  1.0000
  C   C2        1.0  0.16380  0.24750  0.13890  1.0000
  C   C3        1.0  0.16380  0.25250  0.63890  1.0000
  C   C4        1.0  0.83620  0.75250  0.86110  1.0000
  C   C5        1.0  0.86510  0.80270  0.37340  1.0000
  C   C6        1.0  0.13490  0.30270  0.12660  1.0000
  C   C7        1.0  0.13490  0.19730  0.62660  1.0000
  C   C8        1.0  0.86510  0.69730  0.87340  1.0000
  H   H1        1.0  0.91872  0.80839  0.39149  1.0000
  H   H2        1.0  0.08128  0.30839  0.10851  1.0000
  H   H3        1.0  0.08128  0.19161  0.60851  1.0000
  H   H4        1.0  0.91872  0.69161  0.89149  1.0000
  C   C9        1.0  0.81530  0.85070  0.35900  1.0000
  C   C10       1.0  0.18470  0.35070  0.14100  1.0000
  C   C11       1.0  0.18470  0.14930  0.64100  1.0000
  C   C12       1.0  0.81530  0.64930  0.85900  1.0000
  H   H5        1.0  0.83554  0.88834  0.36904  1.0000
  H   H6        1.0  0.16446  0.38834  0.13096  1.0000
  H   H7        1.0  0.16446  0.11166  0.63096  1.0000
  H   H8        1.0  0.83554  0.61166  0.86904  1.0000
  C   C13       1.0  0.73650  0.84360  0.33020  1.0000
  C   C14       1.0  0.26350  0.34360  0.16980  1.0000
  C   C15       1.0  0.26350  0.15640  0.66980  1.0000
  C   C16       1.0  0.73650  0.65640  0.83020  1.0000
  C   C17       1.0  0.62040  0.77430  0.29300  1.0000
  C   C18       1.0  0.37960  0.27430  0.20700  1.0000
  C   C19       1.0  0.37960  0.22570  0.70700  1.0000
  C   C20       1.0  0.62040  0.72570  0.79300  1.0000
  H   H9        1.0  0.58511  0.80548  0.28364  1.0000
  H   H10       1.0  0.41489  0.30548  0.21636  1.0000
  H   H11       1.0  0.41489  0.19452  0.71636  1.0000
  H   H12       1.0  0.58511  0.69452  0.78364  1.0000
  C   C21       1.0  0.59290  0.71900  0.28200  1.0000
  C   C22       1.0  0.40710  0.21900  0.21800  1.0000
  C   C23       1.0  0.40710  0.28100  0.71800  1.0000
  C   C24       1.0  0.59290  0.78100  0.78200  1.0000
  H   H13       1.0  0.53918  0.71277  0.26515  1.0000
  H   H14       1.0  0.46082  0.21277  0.23485  1.0000
  H   H15       1.0  0.46082  0.28723  0.73485  1.0000
  H   H16       1.0  0.53918  0.78723  0.76515  1.0000
  C   C25       1.0  0.64330  0.67140  0.29540  1.0000
  C   C26       1.0  0.35670  0.17140  0.20460  1.0000
  C   C27       1.0  0.35670  0.32860  0.70460  1.0000
  C   C28       1.0  0.64330  0.82860  0.79540  1.0000
  H   H17       1.0  0.62362  0.63342  0.28838  1.0000
  H   H18       1.0  0.37638  0.13342  0.21162  1.0000
  H   H19       1.0  0.37638  0.36658  0.71162  1.0000
  H   H20       1.0  0.62362  0.86658  0.78838  1.0000
  C   C29       1.0  0.72200  0.68080  0.31900  1.0000
  C   C30       1.0  0.27800  0.18080  0.18100  1.0000
  C   C31       1.0  0.27800  0.31920  0.68100  1.0000
  C   C32       1.0  0.72200  0.81920  0.81900  1.0000
  H   H21       1.0  0.75496  0.64813  0.32752  1.0000
  H   H22       1.0  0.24504  0.14813  0.17248  1.0000
  H   H23       1.0  0.24504  0.35187  0.67248  1.0000
  H   H24       1.0  0.75496  0.85187  0.82752  1.0000
  C   C33       1.0  0.75670  0.73640  0.33130  1.0000
  C   C34       1.0  0.24330  0.23640  0.16870  1.0000
  C   C35       1.0  0.24330  0.26360  0.66870  1.0000
  C   C36       1.0  0.75670  0.76360  0.83130  1.0000
  C   C37       1.0  0.89690  0.69850  0.38310  1.0000
  C   C38       1.0  0.10310  0.19850  0.11690  1.0000
  C   C39       1.0  0.10310  0.30150  0.61690  1.0000
  C   C40       1.0  0.89690  0.80150  0.88310  1.0000
  C   C41       1.0  0.69070  0.89860  0.30970  1.0000
  C   C42       1.0  0.30930  0.39860  0.19030  1.0000
  C   C43       1.0  0.30930  0.10140  0.69030  1.0000
  C   C44       1.0  0.69070  0.60140  0.80970  1.0000
  O   O17       1.0  0.94050  0.52550  0.38300  1.0000
  O   O18       1.0  0.05950  0.02550  0.11700  1.0000
  O   O19       1.0  0.05950  0.47450  0.61700  1.0000
  O   O20       1.0  0.94050  0.97450  0.88300  1.0000
  O   O21       1.0  0.90170  0.45790  0.48740  1.0000
  O   O22       1.0  0.09830  0.95790  0.01260  1.0000
  O   O23       1.0  0.09830  0.54210  0.51260  1.0000
  O   O24       1.0  0.90170  0.04210  0.98740  1.0000
  O   O25       1.0  0.51580  0.46100  0.29390  1.0000
  O   O26       1.0  0.48420  0.96100  0.20610  1.0000
  O   O27       1.0  0.48420  0.53900  0.70610  1.0000
  O   O28       1.0  0.51580  0.03900  0.79390  1.0000
  O   O29       1.0  0.51660  0.55710  0.28260  1.0000
  O   O30       1.0  0.48340  0.05710  0.21740  1.0000
  O   O31       1.0  0.48340  0.44290  0.71740  1.0000
  O   O32       1.0  0.51660  0.94290  0.78260  1.0000
  C   C45       1.0  0.80160  0.50070  0.38290  1.0000
  C   C46       1.0  0.19840  0.00070  0.11710  1.0000
  C   C47       1.0  0.19840  0.49930  0.61710  1.0000
  C   C48       1.0  0.80160  0.99930  0.88290  1.0000
  C   C49       1.0  0.74770  0.49520  0.44800  1.0000
  C   C50       1.0  0.25230  0.99520  0.05200  1.0000
  C   C51       1.0  0.25230  0.50480  0.55200  1.0000
  C   C52       1.0  0.74770  0.00480  0.94800  1.0000
  H   H25       1.0  0.76368  0.48847  0.51248  1.0000
  H   H26       1.0  0.23632  0.98847  0.98752  1.0000
  H   H27       1.0  0.23632  0.51153  0.48752  1.0000
  H   H28       1.0  0.76368  0.01153  0.01248  1.0000
  C   C53       1.0  0.66530  0.49950  0.42110  1.0000
  C   C54       1.0  0.33470  0.99950  0.07890  1.0000
  C   C55       1.0  0.33470  0.50050  0.57890  1.0000
  C   C56       1.0  0.66530  0.00050  0.92110  1.0000
  H   H29       1.0  0.62795  0.49634  0.46857  1.0000
  H   H30       1.0  0.37205  0.99634  0.03143  1.0000
  H   H31       1.0  0.37205  0.50366  0.53143  1.0000
  H   H32       1.0  0.62795  0.00366  0.96857  1.0000
  C   C57       1.0  0.64020  0.50810  0.32920  1.0000
  C   C58       1.0  0.35980  0.00810  0.17080  1.0000
  C   C59       1.0  0.35980  0.49190  0.67080  1.0000
  C   C60       1.0  0.64020  0.99190  0.82920  1.0000
  C   C61       1.0  0.67200  0.52320  0.15660  1.0000
  C   C62       1.0  0.32800  0.02320  0.34340  1.0000
  C   C63       1.0  0.32800  0.47680  0.84340  1.0000
  C   C64       1.0  0.67200  0.97680  0.65660  1.0000
  H   H33       1.0  0.61784  0.52590  0.13923  1.0000
  H   H34       1.0  0.38216  0.02590  0.36077  1.0000
  H   H35       1.0  0.38216  0.47410  0.86077  1.0000
  H   H36       1.0  0.61784  0.97410  0.63923  1.0000
  C   C65       1.0  0.72620  0.52770  0.08680  1.0000
  C   C66       1.0  0.27380  0.02770  0.41320  1.0000
  C   C67       1.0  0.27380  0.47230  0.91320  1.0000
  C   C68       1.0  0.72620  0.97230  0.58680  1.0000
  H   H37       1.0  0.70917  0.53305  0.02228  1.0000
  H   H38       1.0  0.29083  0.03305  0.47772  1.0000
  H   H39       1.0  0.29083  0.46695  0.97772  1.0000
  H   H40       1.0  0.70917  0.96695  0.52228  1.0000
  C   C69       1.0  0.80770  0.52410  0.11270  1.0000
  C   C70       1.0  0.19230  0.02410  0.38730  1.0000
  C   C71       1.0  0.19230  0.47590  0.88730  1.0000
  C   C72       1.0  0.80770  0.97590  0.61270  1.0000
  H   H41       1.0  0.84436  0.52830  0.06458  1.0000
  H   H42       1.0  0.15564  0.02830  0.43542  1.0000
  H   H43       1.0  0.15564  0.47170  0.93542  1.0000
  H   H44       1.0  0.84436  0.97170  0.56458  1.0000
  C   C73       1.0  0.83610  0.51460  0.20780  1.0000
  C   C74       1.0  0.16390  0.01460  0.29220  1.0000
  C   C75       1.0  0.16390  0.48540  0.79220  1.0000
  C   C76       1.0  0.83610  0.98540  0.70780  1.0000
  H   H45       1.0  0.89057  0.51134  0.22276  1.0000
  H   H46       1.0  0.10943  0.01134  0.27724  1.0000
  H   H47       1.0  0.10943  0.48866  0.77724  1.0000
  H   H48       1.0  0.89057  0.98866  0.72276  1.0000
  C   C77       1.0  0.69650  0.51430  0.25600  1.0000
  C   C78       1.0  0.30350  0.01430  0.24400  1.0000
  C   C79       1.0  0.30350  0.48570  0.74400  1.0000
  C   C80       1.0  0.69650  0.98570  0.75600  1.0000
  C   C81       1.0  0.77900  0.51000  0.28290  1.0000
  C   C82       1.0  0.22100  0.01000  0.21710  1.0000
  C   C83       1.0  0.22100  0.49000  0.71710  1.0000
  C   C84       1.0  0.77900  0.99000  0.78290  1.0000
  C   C85       1.0  0.88680  0.49370  0.41780  1.0000
  C   C86       1.0  0.11320  0.99370  0.08220  1.0000
  C   C87       1.0  0.11320  0.50630  0.58220  1.0000
  C   C88       1.0  0.88680  0.00630  0.91780  1.0000
  C   C89       1.0  0.55440  0.50900  0.30080  1.0000
  C   C90       1.0  0.44560  0.00900  0.19920  1.0000
  C   C91       1.0  0.44560  0.49100  0.69920  1.0000
  C   C92       1.0  0.55440  0.99100  0.80080  1.0000
  O   O33       1.0  0.09030  0.66720  0.53960  1.0000
  O   O34       1.0  0.90970  0.16720  0.96040  1.0000
  O   O35       1.0  0.90970  0.33280  0.46040  1.0000
  O   O36       1.0  0.09030  0.83280  0.03960  1.0000
  O   O37       1.0  0.05030  0.67620  0.68950  1.0000
  O   O38       1.0  0.94970  0.17620  0.81050  1.0000
  O   O39       1.0  0.94970  0.32380  0.31050  1.0000
  O   O40       1.0  0.05030  0.82380  0.18950  1.0000
  O   O41       1.0  0.38250  0.88540  0.71300  1.0000
  O   O42       1.0  0.61750  0.38540  0.78700  1.0000
  O   O43       1.0  0.61750  0.11460  0.28700  1.0000
  O   O44       1.0  0.38250  0.61460  0.21300  1.0000
  O   O45       1.0  0.06160  0.61620  0.34710  1.0000
  O   O46       1.0  0.93840  0.11620  0.15290  1.0000
  O   O47       1.0  0.93840  0.38380  0.65290  1.0000
  O   O48       1.0  0.06160  0.88380  0.84710  1.0000
  C   C93       1.0  0.15290  0.73880  0.64000  1.0000
  C   C94       1.0  0.84710  0.23880  0.86000  1.0000
  C   C95       1.0  0.84710  0.26120  0.36000  1.0000
  C   C96       1.0  0.15290  0.76120  0.14000  1.0000
  C   C97       1.0  0.12850  0.79480  0.62610  1.0000
  C   C98       1.0  0.87150  0.29480  0.87390  1.0000
  C   C99       1.0  0.87150  0.20520  0.37390  1.0000
  C   C100      1.0  0.12850  0.70520  0.12610  1.0000
  H   H49       1.0  0.07577  0.80268  0.60629  1.0000
  H   H50       1.0  0.92423  0.30268  0.89371  1.0000
  H   H51       1.0  0.92423  0.19732  0.39371  1.0000
  H   H52       1.0  0.07577  0.69732  0.10629  1.0000
  C   C101      1.0  0.18220  0.84040  0.64150  1.0000
  C   C102      1.0  0.81780  0.34040  0.85850  1.0000
  C   C103      1.0  0.81780  0.15960  0.35850  1.0000
  C   C104      1.0  0.18220  0.65960  0.14150  1.0000
  H   H53       1.0  0.16497  0.87877  0.63042  1.0000
  H   H54       1.0  0.83503  0.37877  0.86958  1.0000
  H   H55       1.0  0.83503  0.12123  0.36958  1.0000
  H   H56       1.0  0.16497  0.62123  0.13042  1.0000
  C   C105      1.0  0.25970  0.83090  0.67250  1.0000
  C   C106      1.0  0.74030  0.33090  0.82750  1.0000
  C   C107      1.0  0.74030  0.16910  0.32750  1.0000
  C   C108      1.0  0.25970  0.66910  0.17250  1.0000
  C   C109      1.0  0.36550  0.75890  0.71760  1.0000
  C   C110      1.0  0.63450  0.25890  0.78240  1.0000
  C   C111      1.0  0.63450  0.24110  0.28240  1.0000
  C   C112      1.0  0.36550  0.74110  0.21760  1.0000
  H   H57       1.0  0.40158  0.78943  0.72922  1.0000
  H   H58       1.0  0.59842  0.28943  0.77078  1.0000
  H   H59       1.0  0.59842  0.21057  0.27078  1.0000
  H   H60       1.0  0.40158  0.71057  0.22922  1.0000
  C   C113      1.0  0.39060  0.70160  0.73060  1.0000
  C   C114      1.0  0.60940  0.20160  0.76940  1.0000
  C   C115      1.0  0.60940  0.29840  0.26940  1.0000
  C   C116      1.0  0.39060  0.79840  0.23060  1.0000
  H   H61       1.0  0.44338  0.69384  0.75034  1.0000
  H   H62       1.0  0.55662  0.19384  0.74966  1.0000
  H   H63       1.0  0.55662  0.30616  0.24966  1.0000
  H   H64       1.0  0.44338  0.80616  0.25034  1.0000
  C   C117      1.0  0.33640  0.65480  0.71390  1.0000
  C   C118      1.0  0.66360  0.15480  0.78610  1.0000
  C   C119      1.0  0.66360  0.34520  0.28610  1.0000
  C   C120      1.0  0.33640  0.84520  0.21390  1.0000
  H   H65       1.0  0.35319  0.61614  0.72186  1.0000
  H   H66       1.0  0.64681  0.11614  0.77814  1.0000
  H   H67       1.0  0.64681  0.38386  0.27814  1.0000
  H   H68       1.0  0.35319  0.88386  0.22186  1.0000
  C   C121      1.0  0.25920  0.66710  0.68620  1.0000
  C   C122      1.0  0.74080  0.16710  0.81380  1.0000
  C   C123      1.0  0.74080  0.33290  0.31380  1.0000
  C   C124      1.0  0.25920  0.83290  0.18620  1.0000
  H   H69       1.0  0.22292  0.63646  0.67711  1.0000
  H   H70       1.0  0.77708  0.13646  0.82289  1.0000
  H   H71       1.0  0.77708  0.36354  0.32289  1.0000
  H   H72       1.0  0.22292  0.86354  0.17711  1.0000
  C   C125      1.0  0.28700  0.77180  0.68720  1.0000
  C   C126      1.0  0.71300  0.27180  0.81280  1.0000
  C   C127      1.0  0.71300  0.22820  0.31280  1.0000
  C   C128      1.0  0.28700  0.72820  0.18720  1.0000
  C   C129      1.0  0.23280  0.72650  0.67070  1.0000
  C   C130      1.0  0.76720  0.22650  0.82930  1.0000
  C   C131      1.0  0.76720  0.27350  0.32930  1.0000
  C   C132      1.0  0.23280  0.77350  0.17070  1.0000
  C   C133      1.0  0.09310  0.68950  0.62280  1.0000
  C   C134      1.0  0.90690  0.18950  0.87720  1.0000
  C   C135      1.0  0.90690  0.31050  0.37720  1.0000
  C   C136      1.0  0.09310  0.81050  0.12280  1.0000
  C   C137      1.0  0.30800  0.88500  0.68420  1.0000
  C   C138      1.0  0.69200  0.38500  0.81580  1.0000
  C   C139      1.0  0.69200  0.11500  0.31580  1.0000
  C   C140      1.0  0.30800  0.61500  0.18420  1.0000
  O   O49       1.0  0.94380  0.59990  0.54600  1.0000
  O   O50       1.0  0.05620  0.09990  0.95400  1.0000
  O   O51       1.0  0.05620  0.40010  0.45400  1.0000
  O   O52       1.0  0.94380  0.90010  0.04600  1.0000
  O   O53       1.0  0.27630  0.93400  0.67140  1.0000
  O   O54       1.0  0.72370  0.43400  0.82860  1.0000
  O   O55       1.0  0.72370  0.06600  0.32860  1.0000
  O   O56       1.0  0.27630  0.56600  0.17140  1.0000
  O   O57       1.0  0.57220  0.00590  0.38750  1.0000
  O   O58       1.0  0.42780  0.50590  0.11250  1.0000
  O   O59       1.0  0.42780  0.99410  0.61250  1.0000
  O   O60       1.0  0.57220  0.49410  0.88750  1.0000
  O   O61       1.0  0.64640  0.00970  0.15740  1.0000
  O   O62       1.0  0.35360  0.50970  0.34260  1.0000
  O   O63       1.0  0.35360  0.99030  0.84260  1.0000
  O   O64       1.0  0.64640  0.49030  0.65740  1.0000
  C   C141      1.0  0.70300  0.78620  0.31880  1.0000
  C   C142      1.0  0.29700  0.28620  0.18120  1.0000
  C   C143      1.0  0.29700  0.21380  0.68120  1.0000
  C   C144      1.0  0.70300  0.71380  0.81880  1.0000
