data_image0
_chemical_formula_structural       U4S4O36C8H2C4H2C4H2C8H2C4H2C4H2
_chemical_formula_sum              "U4 S4 O36 C32 H12"
_cell_length_a       9.2111
_cell_length_b       13.1733
_cell_length_c       16.0964
_cell_angle_alpha    84.739
_cell_angle_beta     83.029
_cell_angle_gamma    87.457

_space_group_name_H-M_alt    "P 1"
_space_group_IT_number       1

loop_
  _space_group_symop_operation_xyz
  'x, y, z'

loop_
  _atom_site_type_symbol
  _atom_site_label
  _atom_site_symmetry_multiplicity
  _atom_site_fract_x
  _atom_site_fract_y
  _atom_site_fract_z
  _atom_site_occupancy
  U   U1        1.0  0.21976  0.55980  0.25612  1.0000
  U   U2        1.0  0.78024  0.44020  0.74388  1.0000
  U   U3        1.0  0.21970  0.95180  0.22795  1.0000
  U   U4        1.0  0.78030  0.04820  0.77205  1.0000
  S   S1        1.0  0.44060  0.51877  0.86549  1.0000
  S   S2        1.0  0.55940  0.48123  0.13451  1.0000
  S   S3        1.0  0.75890  0.99686  0.55961  1.0000
  S   S4        1.0  0.24110  0.00314  0.44039  1.0000
  O   O1        1.0  0.08210  0.50230  0.21130  1.0000
  O   O2        1.0  0.91790  0.49770  0.78870  1.0000
  O   O3        1.0  0.35800  0.61710  0.30130  1.0000
  O   O4        1.0  0.64200  0.38290  0.69870  1.0000
  O   O5        1.0  0.08100  0.03360  0.18930  1.0000
  O   O6        1.0  0.91900  0.96640  0.81070  1.0000
  O   O7        1.0  0.35640  0.86810  0.26330  1.0000
  O   O8        1.0  0.64360  0.13190  0.73670  1.0000
  O   O9        1.0  0.21840  0.68790  0.14470  1.0000
  O   O10       1.0  0.78160  0.31210  0.85530  1.0000
  O   O11       1.0  0.21320  0.85450  0.11210  1.0000
  O   O12       1.0  0.78680  0.14550  0.88790  1.0000
  O   O13       1.0  0.59880  0.97640  0.88400  1.0000
  O   O14       1.0  0.40120  0.02360  0.11600  1.0000
  O   O15       1.0  0.63780  0.89350  0.77020  1.0000
  O   O16       1.0  0.36220  0.10650  0.22980  1.0000
  O   O17       1.0  0.60220  0.50390  0.84570  1.0000
  O   O18       1.0  0.39780  0.49610  0.15430  1.0000
  O   O19       1.0  0.38180  0.44700  0.93220  1.0000
  O   O20       1.0  0.61820  0.55300  0.06780  1.0000
  O   O21       1.0  0.36720  0.52450  0.79100  1.0000
  O   O22       1.0  0.63280  0.47550  0.20900  1.0000
  O   O23       1.0  0.04350  0.67220  0.31670  1.0000
  O   O24       1.0  0.95650  0.32780  0.68330  1.0000
  O   O25       1.0  0.03670  0.83940  0.28860  1.0000
  O   O26       1.0  0.96330  0.16060  0.71140  1.0000
  O   O27       1.0  0.86710  0.52030  0.60410  1.0000
  O   O28       1.0  0.13290  0.47970  0.39590  1.0000
  O   O29       1.0  0.70960  0.61060  0.68400  1.0000
  O   O30       1.0  0.29040  0.38940  0.31600  1.0000
  O   O31       1.0  0.83550  0.99630  0.63520  1.0000
  O   O32       1.0  0.16450  0.00370  0.36480  1.0000
  O   O33       1.0  0.81920  0.07080  0.49420  1.0000
  O   O34       1.0  0.18080  0.92920  0.50580  1.0000
  O   O35       1.0  0.60230  0.00120  0.58090  1.0000
  O   O36       1.0  0.39770  0.99880  0.41910  1.0000
  C   C1        1.0  0.24680  0.76320  0.09690  1.0000
  C   C2        1.0  0.75320  0.23680  0.90310  1.0000
  C   C3        1.0  0.57710  0.90050  0.84520  1.0000
  C   C4        1.0  0.42290  0.09950  0.15480  1.0000
  C   C5        1.0  0.33370  0.74730  0.01230  1.0000
  C   C6        1.0  0.66630  0.25270  0.98770  1.0000
  C   C7        1.0  0.40580  0.83150  0.96740  1.0000
  C   C8        1.0  0.59420  0.16850  0.03260  1.0000
  H   H1        1.0  0.39780  0.89550  0.98810  1.0000
  H   H2        1.0  0.60220  0.10450  0.01190  1.0000
  C   C9        1.0  0.49060  0.81530  0.88990  1.0000
  C   C10       1.0  0.50940  0.18470  0.11010  1.0000
  C   C11       1.0  0.49760  0.72080  0.85870  1.0000
  C   C12       1.0  0.50240  0.27920  0.14130  1.0000
  H   H3        1.0  0.55010  0.71140  0.80670  1.0000
  H   H4        1.0  0.44990  0.28860  0.19330  1.0000
  C   C13       1.0  0.42540  0.63940  0.90560  1.0000
  C   C14       1.0  0.57460  0.36060  0.09440  1.0000
  C   C15       1.0  0.34510  0.65350  0.98200  1.0000
  C   C16       1.0  0.65490  0.34650  0.01800  1.0000
  H   H5        1.0  0.29850  0.59870  0.01310  1.0000
  H   H6        1.0  0.70150  0.40130  0.98690  1.0000
  C   C17       1.0  0.00800  0.75980  0.33530  1.0000
  C   C18       1.0  0.99200  0.24020  0.66470  1.0000
  C   C19       1.0  0.79740  0.60260  0.61670  1.0000
  C   C20       1.0  0.20260  0.39740  0.38330  1.0000
  C   C21       1.0  0.92380  0.77050  0.42060  1.0000
  C   C22       1.0  0.07620  0.22950  0.57940  1.0000
  C   C23       1.0  0.89650  0.68580  0.47600  1.0000
  C   C24       1.0  0.10350  0.31420  0.52400  1.0000
  H   H7        1.0  0.92890  0.62180  0.46000  1.0000
  H   H8        1.0  0.07110  0.37820  0.54000  1.0000
  C   C25       1.0  0.82130  0.69420  0.55550  1.0000
  C   C26       1.0  0.17870  0.30580  0.44450  1.0000
  C   C27       1.0  0.77810  0.78990  0.57930  1.0000
  C   C28       1.0  0.22190  0.21010  0.42070  1.0000
  H   H9        1.0  0.72820  0.79700  0.63230  1.0000
  H   H10       1.0  0.27180  0.20300  0.36770  1.0000
  C   C29       1.0  0.80890  0.87560  0.52430  1.0000
  C   C30       1.0  0.19110  0.12440  0.47570  1.0000
  C   C31       1.0  0.87910  0.86560  0.44680  1.0000
  C   C32       1.0  0.12090  0.13440  0.55320  1.0000
  H   H11       1.0  0.89800  0.92360  0.41020  1.0000
  H   H12       1.0  0.10200  0.07640  0.58980  1.0000
