data_image0
_chemical_formula_structural       U2S2O18C10H2C2H2C2H2C2
_chemical_formula_sum              "U2 S2 O18 C16 H6"
_cell_length_a       9.0811
_cell_length_b       9.5438
_cell_length_c       12.3439
_cell_angle_alpha    78.643
_cell_angle_beta     71.021
_cell_angle_gamma    67.775

_space_group_name_H-M_alt    "P 1"
_space_group_IT_number       1

loop_
  _space_group_symop_operation_xyz
  'x, y, z'

loop_
  _atom_site_type_symbol
  _atom_site_label
  _atom_site_symmetry_multiplicity
  _atom_site_fract_x
  _atom_site_fract_y
  _atom_site_fract_z
  _atom_site_occupancy
  U   U1        1.0  0.74068  0.57959  0.54797  1.0000
  U   U2        1.0  0.25932  0.42041  0.45203  1.0000
  S   S1        1.0  0.66198  0.89029  0.71853  1.0000
  S   S2        1.0  0.33802  0.10971  0.28147  1.0000
  O   O1        1.0  0.73560  0.42270  0.65190  1.0000
  O   O2        1.0  0.26440  0.57730  0.34810  1.0000
  O   O3        1.0  0.74290  0.73480  0.44310  1.0000
  O   O4        1.0  0.25710  0.26520  0.55690  1.0000
  O   O5        1.0  0.99860  0.56590  0.57900  1.0000
  O   O6        1.0  0.00140  0.43410  0.42100  1.0000
  O   O7        1.0  0.98760  0.54230  0.76630  1.0000
  O   O8        1.0  0.01240  0.45770  0.23370  1.0000
  O   O9        1.0  0.31740  0.53590  0.57690  1.0000
  O   O10       1.0  0.68260  0.46410  0.42310  1.0000
  O   O11       1.0  0.44880  0.67520  0.60240  1.0000
  O   O12       1.0  0.55120  0.32480  0.39760  1.0000
  O   O13       1.0  0.67960  0.73650  0.69480  1.0000
  O   O14       1.0  0.32040  0.26350  0.30520  1.0000
  O   O15       1.0  0.61350  0.90220  0.84100  1.0000
  O   O16       1.0  0.38650  0.09780  0.15900  1.0000
  O   O17       1.0  0.56270  0.00930  0.65500  1.0000
  O   O18       1.0  0.43730  0.99070  0.34500  1.0000
  C   C1        1.0  0.99730  0.61610  0.67260  1.0000
  C   C2        1.0  0.00270  0.38390  0.32740  1.0000
  C   C3        1.0  0.32020  0.65870  0.59830  1.0000
  C   C4        1.0  0.67980  0.34130  0.40170  1.0000
  C   C5        1.0  0.00820  0.77190  0.65410  1.0000
  C   C6        1.0  0.99180  0.22810  0.34590  1.0000
  C   C7        1.0  0.16280  0.79240  0.62190  1.0000
  C   C8        1.0  0.83720  0.20760  0.37810  1.0000
  C   C9        1.0  0.17260  0.93700  0.60710  1.0000
  C   C10       1.0  0.82740  0.06300  0.39290  1.0000
  H   H1        1.0  0.27520  0.94910  0.58820  1.0000
  H   H2        1.0  0.72480  0.05090  0.41180  1.0000
  C   C11       1.0  0.02860  0.06410  0.62040  1.0000
  C   C12       1.0  0.97140  0.93590  0.37960  1.0000
  H   H3        1.0  0.03460  0.16130  0.60910  1.0000
  H   H4        1.0  0.96540  0.83870  0.39090  1.0000
  C   C13       1.0  0.87620  0.04410  0.65070  1.0000
  C   C14       1.0  0.12380  0.95590  0.34930  1.0000
  H   H5        1.0  0.78020  0.12870  0.65900  1.0000
  H   H6        1.0  0.21980  0.87130  0.34100  1.0000
  C   C15       1.0  0.86450  0.89970  0.66900  1.0000
  C   C16       1.0  0.13550  0.10030  0.33100  1.0000
