data_image0
_chemical_formula_structural       In18N18O144C108H36C36H36C72H36C36H36C36H72C54H36C54H18C36
_chemical_formula_sum              "In18 N18 O144 C432 H270"
_cell_length_a       38.2369
_cell_length_b       38.2369
_cell_length_c       22.7356
_cell_angle_alpha    90
_cell_angle_beta     90
_cell_angle_gamma    120

_space_group_name_H-M_alt    "P 1"
_space_group_IT_number       1

loop_
  _space_group_symop_operation_xyz
  'x, y, z'

loop_
  _atom_site_type_symbol
  _atom_site_label
  _atom_site_symmetry_multiplicity
  _atom_site_fract_x
  _atom_site_fract_y
  _atom_site_fract_z
  _atom_site_occupancy
  In  In1       1.0  0.41138  0.07805  0.08330  1.0000
  In  In2       1.0  0.92195  0.33333  0.08330  1.0000
  In  In3       1.0  0.66667  0.58862  0.08330  1.0000
  In  In4       1.0  0.07805  0.41138  0.41670  1.0000
  In  In5       1.0  0.33333  0.92195  0.41670  1.0000
  In  In6       1.0  0.58862  0.66667  0.41670  1.0000
  In  In7       1.0  0.74472  0.74472  0.75003  1.0000
  In  In8       1.0  1.00000  0.25528  0.75003  1.0000
  In  In9       1.0  0.25528  0.00000  0.75003  1.0000
  In  In10      1.0  0.58862  0.92195  0.91670  1.0000
  In  In11      1.0  0.07805  0.66667  0.91670  1.0000
  In  In12      1.0  0.33333  0.41138  0.91670  1.0000
  In  In13      1.0  0.92195  0.58862  0.58330  1.0000
  In  In14      1.0  0.66667  0.07805  0.58330  1.0000
  In  In15      1.0  0.41138  0.33333  0.58330  1.0000
  In  In16      1.0  0.25528  0.25528  0.24997  1.0000
  In  In17      1.0  0.00000  0.74472  0.24997  1.0000
  In  In18      1.0  0.74472  1.00000  0.24997  1.0000
  N   N1        1.0  0.66670  0.11489  0.08330  1.0000
  N   N2        1.0  0.88511  0.55181  0.08330  1.0000
  N   N3        1.0  0.44819  0.33330  0.08330  1.0000
  N   N4        1.0  0.11489  0.66670  0.41670  1.0000
  N   N5        1.0  0.55181  0.88511  0.41670  1.0000
  N   N6        1.0  0.33330  0.44819  0.41670  1.0000
  N   N7        1.0  0.78156  0.00003  0.75003  1.0000
  N   N8        1.0  0.21848  0.21844  0.75003  1.0000
  N   N9        1.0  0.99997  0.78152  0.75003  1.0000
  N   N10       1.0  0.33330  0.88511  0.91670  1.0000
  N   N11       1.0  0.11489  0.44819  0.91670  1.0000
  N   N12       1.0  0.55181  0.66670  0.91670  1.0000
  N   N13       1.0  0.88511  0.33330  0.58330  1.0000
  N   N14       1.0  0.44819  0.11489  0.58330  1.0000
  N   N15       1.0  0.66670  0.55181  0.58330  1.0000
  N   N16       1.0  0.21844  0.99997  0.24997  1.0000
  N   N17       1.0  0.78152  0.78156  0.24997  1.0000
  N   N18       1.0  0.00003  0.21848  0.24997  1.0000
  O   O1        1.0  0.46590  0.07451  0.11442  1.0000
  O   O2        1.0  0.92549  0.39139  0.11442  1.0000
  O   O3        1.0  0.60861  0.53410  0.11442  1.0000
  O   O4        1.0  0.07451  0.46590  0.38558  1.0000
  O   O5        1.0  0.39139  0.92549  0.38558  1.0000
  O   O6        1.0  0.53410  0.60861  0.38558  1.0000
  O   O7        1.0  0.13257  0.40784  0.44775  1.0000
  O   O8        1.0  0.59216  0.72472  0.44775  1.0000
  O   O9        1.0  0.27528  0.86743  0.44775  1.0000
  O   O10       1.0  0.74118  0.79923  0.71891  1.0000
  O   O11       1.0  0.05806  0.25882  0.71891  1.0000
  O   O12       1.0  0.20077  0.94194  0.71891  1.0000
  O   O13       1.0  0.79923  0.74118  0.78109  1.0000
  O   O14       1.0  0.25882  0.05806  0.78109  1.0000
  O   O15       1.0  0.94194  0.20077  0.78109  1.0000
  O   O16       1.0  0.40784  0.13257  0.05225  1.0000
  O   O17       1.0  0.72472  0.59216  0.05225  1.0000
  O   O18       1.0  0.86743  0.27528  0.05225  1.0000
  O   O19       1.0  0.53410  0.92549  0.88558  1.0000
  O   O20       1.0  0.07451  0.60861  0.88558  1.0000
  O   O21       1.0  0.39139  0.46590  0.88558  1.0000
  O   O22       1.0  0.92549  0.53410  0.61442  1.0000
  O   O23       1.0  0.60861  0.07451  0.61442  1.0000
  O   O24       1.0  0.46590  0.39139  0.61442  1.0000
  O   O25       1.0  0.86743  0.59216  0.55225  1.0000
  O   O26       1.0  0.40784  0.27528  0.55225  1.0000
  O   O27       1.0  0.72472  0.13257  0.55225  1.0000
  O   O28       1.0  0.25882  0.20077  0.28109  1.0000
  O   O29       1.0  0.94194  0.74118  0.28109  1.0000
  O   O30       1.0  0.79923  0.05806  0.28109  1.0000
  O   O31       1.0  0.20077  0.25882  0.21891  1.0000
  O   O32       1.0  0.74118  0.94194  0.21891  1.0000
  O   O33       1.0  0.05806  0.79923  0.21891  1.0000
  O   O34       1.0  0.59216  0.86743  0.94775  1.0000
  O   O35       1.0  0.27528  0.40784  0.94775  1.0000
  O   O36       1.0  0.13257  0.72472  0.94775  1.0000
  O   O37       1.0  0.46951  0.10389  0.03052  1.0000
  O   O38       1.0  0.89611  0.36562  0.03052  1.0000
  O   O39       1.0  0.63438  0.53049  0.03052  1.0000
  O   O40       1.0  0.10389  0.46951  0.46948  1.0000
  O   O41       1.0  0.36562  0.89611  0.46948  1.0000
  O   O42       1.0  0.53049  0.63438  0.46948  1.0000
  O   O43       1.0  0.13618  0.43722  0.36385  1.0000
  O   O44       1.0  0.56278  0.69895  0.36385  1.0000
  O   O45       1.0  0.30105  0.86382  0.36385  1.0000
  O   O46       1.0  0.77056  0.80284  0.80281  1.0000
  O   O47       1.0  0.03229  0.22944  0.80281  1.0000
  O   O48       1.0  0.19716  0.96771  0.80281  1.0000
  O   O49       1.0  0.80284  0.77056  0.69719  1.0000
  O   O50       1.0  0.22944  0.03229  0.69719  1.0000
  O   O51       1.0  0.96771  0.19716  0.69719  1.0000
  O   O52       1.0  0.43722  0.13618  0.13615  1.0000
  O   O53       1.0  0.69895  0.56278  0.13615  1.0000
  O   O54       1.0  0.86382  0.30105  0.13615  1.0000
  O   O55       1.0  0.53049  0.89611  0.96948  1.0000
  O   O56       1.0  0.10389  0.63438  0.96948  1.0000
  O   O57       1.0  0.36562  0.46951  0.96948  1.0000
  O   O58       1.0  0.89611  0.53049  0.53052  1.0000
  O   O59       1.0  0.63438  0.10389  0.53052  1.0000
  O   O60       1.0  0.46951  0.36562  0.53052  1.0000
  O   O61       1.0  0.86382  0.56278  0.63615  1.0000
  O   O62       1.0  0.43722  0.30105  0.63615  1.0000
  O   O63       1.0  0.69895  0.13618  0.63615  1.0000
  O   O64       1.0  0.22944  0.19716  0.19719  1.0000
  O   O65       1.0  0.96771  0.77056  0.19719  1.0000
  O   O66       1.0  0.80284  0.03229  0.19719  1.0000
  O   O67       1.0  0.19716  0.22944  0.30281  1.0000
  O   O68       1.0  0.77056  0.96771  0.30281  1.0000
  O   O69       1.0  0.03229  0.80284  0.30281  1.0000
  O   O70       1.0  0.56278  0.86382  0.86385  1.0000
  O   O71       1.0  0.30105  0.43722  0.86385  1.0000
  O   O72       1.0  0.13618  0.69895  0.86385  1.0000
  O   O73       1.0  0.62293  0.94960  0.99694  1.0000
  O   O74       1.0  0.05040  0.67333  0.99694  1.0000
  O   O75       1.0  0.32667  0.37707  0.99694  1.0000
  O   O76       1.0  0.94960  0.62293  0.50306  1.0000
  O   O77       1.0  0.67333  0.05040  0.50306  1.0000
  O   O78       1.0  0.37707  0.32667  0.50306  1.0000
  O   O79       1.0  0.28960  0.28293  0.33027  1.0000
  O   O80       1.0  0.71707  0.00666  0.33027  1.0000
  O   O81       1.0  0.99334  0.71040  0.33027  1.0000
  O   O82       1.0  0.61627  0.95626  0.83639  1.0000
  O   O83       1.0  0.34000  0.38373  0.83639  1.0000
  O   O84       1.0  0.04374  0.66000  0.83639  1.0000
  O   O85       1.0  0.95626  0.61627  0.66361  1.0000
  O   O86       1.0  0.38373  0.34000  0.66361  1.0000
  O   O87       1.0  0.66000  0.04374  0.66361  1.0000
  O   O88       1.0  0.28293  0.28960  0.16973  1.0000
  O   O89       1.0  0.00666  0.71707  0.16973  1.0000
  O   O90       1.0  0.71040  0.99334  0.16973  1.0000
  O   O91       1.0  0.37707  0.05040  0.00306  1.0000
  O   O92       1.0  0.94960  0.32667  0.00306  1.0000
  O   O93       1.0  0.67333  0.62293  0.00306  1.0000
  O   O94       1.0  0.05040  0.37707  0.49694  1.0000
  O   O95       1.0  0.32667  0.94960  0.49694  1.0000
  O   O96       1.0  0.62293  0.67333  0.49694  1.0000
  O   O97       1.0  0.71040  0.71707  0.66973  1.0000
  O   O98       1.0  0.28293  0.99334  0.66973  1.0000
  O   O99       1.0  0.00666  0.28960  0.66973  1.0000
  O   O100      1.0  0.38373  0.04374  0.16361  1.0000
  O   O101      1.0  0.66000  0.61627  0.16361  1.0000
  O   O102      1.0  0.95626  0.34000  0.16361  1.0000
  O   O103      1.0  0.04374  0.38373  0.33639  1.0000
  O   O104      1.0  0.61627  0.66000  0.33639  1.0000
  O   O105      1.0  0.34000  0.95626  0.33639  1.0000
  O   O106      1.0  0.71707  0.71040  0.83027  1.0000
  O   O107      1.0  0.99334  0.28293  0.83027  1.0000
  O   O108      1.0  0.28960  0.00666  0.83027  1.0000
  O   O109      1.0  0.60590  0.98940  0.95434  1.0000
  O   O110      1.0  0.01060  0.61650  0.95434  1.0000
  O   O111      1.0  0.38350  0.39410  0.95434  1.0000
  O   O112      1.0  0.98940  0.60590  0.54566  1.0000
  O   O113      1.0  0.61650  0.01060  0.54566  1.0000
  O   O114      1.0  0.39410  0.38350  0.54566  1.0000
  O   O115      1.0  0.27257  0.32273  0.28767  1.0000
  O   O116      1.0  0.67727  0.94983  0.28767  1.0000
  O   O117      1.0  0.05017  0.72743  0.28767  1.0000
  O   O118      1.0  0.65607  0.93923  0.87899  1.0000
  O   O119      1.0  0.28317  0.34393  0.87899  1.0000
  O   O120      1.0  0.06077  0.71683  0.87899  1.0000
  O   O121      1.0  0.93923  0.65607  0.62101  1.0000
  O   O122      1.0  0.34393  0.28317  0.62101  1.0000
  O   O123      1.0  0.71683  0.06077  0.62101  1.0000
  O   O124      1.0  0.32273  0.27257  0.21233  1.0000
  O   O125      1.0  0.94983  0.67727  0.21233  1.0000
  O   O126      1.0  0.72743  0.05017  0.21233  1.0000
  O   O127      1.0  0.39410  0.01060  0.04566  1.0000
  O   O128      1.0  0.98940  0.38350  0.04566  1.0000
  O   O129      1.0  0.61650  0.60590  0.04566  1.0000
  O   O130      1.0  0.01060  0.39410  0.45434  1.0000
  O   O131      1.0  0.38350  0.98940  0.45434  1.0000
  O   O132      1.0  0.60590  0.61650  0.45434  1.0000
  O   O133      1.0  0.72743  0.67727  0.71233  1.0000
  O   O134      1.0  0.32273  0.05017  0.71233  1.0000
  O   O135      1.0  0.94983  0.27257  0.71233  1.0000
  O   O136      1.0  0.34393  0.06077  0.12101  1.0000
  O   O137      1.0  0.71683  0.65607  0.12101  1.0000
  O   O138      1.0  0.93923  0.28317  0.12101  1.0000
  O   O139      1.0  0.06077  0.34393  0.37899  1.0000
  O   O140      1.0  0.65607  0.71683  0.37899  1.0000
  O   O141      1.0  0.28317  0.93923  0.37899  1.0000
  O   O142      1.0  0.67727  0.72743  0.78767  1.0000
  O   O143      1.0  0.05017  0.32273  0.78767  1.0000
  O   O144      1.0  0.27257  0.94983  0.78767  1.0000
  C   C1        1.0  0.48486  0.09212  0.07065  1.0000
  C   C2        1.0  0.90788  0.39274  0.07065  1.0000
  C   C3        1.0  0.60726  0.51514  0.07065  1.0000
  C   C4        1.0  0.09212  0.48486  0.42935  1.0000
  C   C5        1.0  0.39274  0.90788  0.42935  1.0000
  C   C6        1.0  0.51514  0.60726  0.42935  1.0000
  C   C7        1.0  0.15153  0.42545  0.40398  1.0000
  C   C8        1.0  0.57455  0.72607  0.40398  1.0000
  C   C9        1.0  0.27393  0.84847  0.40398  1.0000
  C   C10       1.0  0.75879  0.81819  0.76268  1.0000
  C   C11       1.0  0.05941  0.24121  0.76268  1.0000
  C   C12       1.0  0.18181  0.94059  0.76268  1.0000
  C   C13       1.0  0.81819  0.75879  0.73732  1.0000
  C   C14       1.0  0.24121  0.05941  0.73732  1.0000
  C   C15       1.0  0.94059  0.18181  0.73732  1.0000
  C   C16       1.0  0.42545  0.15153  0.09602  1.0000
  C   C17       1.0  0.72607  0.57455  0.09602  1.0000
  C   C18       1.0  0.84847  0.27393  0.09602  1.0000
  C   C19       1.0  0.51514  0.90788  0.92935  1.0000
  C   C20       1.0  0.09212  0.60726  0.92935  1.0000
  C   C21       1.0  0.39274  0.48486  0.92935  1.0000
  C   C22       1.0  0.90788  0.51514  0.57065  1.0000
  C   C23       1.0  0.60726  0.09212  0.57065  1.0000
  C   C24       1.0  0.48486  0.39274  0.57065  1.0000
  C   C25       1.0  0.84847  0.57455  0.59602  1.0000
  C   C26       1.0  0.42545  0.27393  0.59602  1.0000
  C   C27       1.0  0.72607  0.15153  0.59602  1.0000
  C   C28       1.0  0.24121  0.18181  0.23732  1.0000
  C   C29       1.0  0.94059  0.75879  0.23732  1.0000
  C   C30       1.0  0.81819  0.05941  0.23732  1.0000
  C   C31       1.0  0.18181  0.24121  0.26268  1.0000
  C   C32       1.0  0.75879  0.94059  0.26268  1.0000
  C   C33       1.0  0.05941  0.81819  0.26268  1.0000
  C   C34       1.0  0.57455  0.84847  0.90398  1.0000
  C   C35       1.0  0.27393  0.42545  0.90398  1.0000
  C   C36       1.0  0.15153  0.72607  0.90398  1.0000
  C   C37       1.0  0.52770  0.10145  0.06055  1.0000
  C   C38       1.0  0.89855  0.42625  0.06055  1.0000
  C   C39       1.0  0.57375  0.47230  0.06055  1.0000
  C   C40       1.0  0.10145  0.52770  0.43945  1.0000
  C   C41       1.0  0.42625  0.89855  0.43945  1.0000
  C   C42       1.0  0.47230  0.57375  0.43945  1.0000
  C   C43       1.0  0.19437  0.43478  0.39388  1.0000
  C   C44       1.0  0.56522  0.75958  0.39388  1.0000
  C   C45       1.0  0.24042  0.80563  0.39388  1.0000
  C   C46       1.0  0.76812  0.86103  0.77278  1.0000
  C   C47       1.0  0.09292  0.23188  0.77278  1.0000
  C   C48       1.0  0.13897  0.90708  0.77278  1.0000
  C   C49       1.0  0.86103  0.76812  0.72722  1.0000
  C   C50       1.0  0.23188  0.09292  0.72722  1.0000
  C   C51       1.0  0.90708  0.13897  0.72722  1.0000
  C   C52       1.0  0.43478  0.19437  0.10612  1.0000
  C   C53       1.0  0.75958  0.56522  0.10612  1.0000
  C   C54       1.0  0.80563  0.24042  0.10612  1.0000
  C   C55       1.0  0.47230  0.89855  0.93945  1.0000
  C   C56       1.0  0.10145  0.57375  0.93945  1.0000
  C   C57       1.0  0.42625  0.52770  0.93945  1.0000
  C   C58       1.0  0.89855  0.47230  0.56055  1.0000
  C   C59       1.0  0.57375  0.10145  0.56055  1.0000
  C   C60       1.0  0.52770  0.42625  0.56055  1.0000
  C   C61       1.0  0.80563  0.56522  0.60612  1.0000
  C   C62       1.0  0.43478  0.24042  0.60612  1.0000
  C   C63       1.0  0.75958  0.19437  0.60612  1.0000
  C   C64       1.0  0.23188  0.13897  0.22722  1.0000
  C   C65       1.0  0.90708  0.76812  0.22722  1.0000
  C   C66       1.0  0.86103  0.09292  0.22722  1.0000
  C   C67       1.0  0.13897  0.23188  0.27278  1.0000
  C   C68       1.0  0.76812  0.90708  0.27278  1.0000
  C   C69       1.0  0.09292  0.86103  0.27278  1.0000
  C   C70       1.0  0.56522  0.80563  0.89388  1.0000
  C   C71       1.0  0.24042  0.43478  0.89388  1.0000
  C   C72       1.0  0.19437  0.75958  0.89388  1.0000
  C   C73       1.0  0.54957  0.12221  0.01211  1.0000
  C   C74       1.0  0.87779  0.42736  0.01211  1.0000
  C   C75       1.0  0.57264  0.45043  0.01211  1.0000
  C   C76       1.0  0.12221  0.54957  0.48789  1.0000
  C   C77       1.0  0.42736  0.87779  0.48789  1.0000
  C   C78       1.0  0.45043  0.57264  0.48789  1.0000
  C   C79       1.0  0.21624  0.45554  0.34544  1.0000
  C   C80       1.0  0.54446  0.76069  0.34544  1.0000
  C   C81       1.0  0.23931  0.78376  0.34544  1.0000
  C   C82       1.0  0.78888  0.88290  0.82122  1.0000
  C   C83       1.0  0.09403  0.21112  0.82122  1.0000
  C   C84       1.0  0.11710  0.90597  0.82122  1.0000
  C   C85       1.0  0.88290  0.78888  0.67878  1.0000
  C   C86       1.0  0.21112  0.09403  0.67878  1.0000
  C   C87       1.0  0.90597  0.11710  0.67878  1.0000
  C   C88       1.0  0.45554  0.21624  0.15456  1.0000
  C   C89       1.0  0.76069  0.54446  0.15456  1.0000
  C   C90       1.0  0.78376  0.23931  0.15456  1.0000
  C   C91       1.0  0.45043  0.87779  0.98789  1.0000
  C   C92       1.0  0.12221  0.57264  0.98789  1.0000
  C   C93       1.0  0.42736  0.54957  0.98789  1.0000
  C   C94       1.0  0.87779  0.45043  0.51211  1.0000
  C   C95       1.0  0.57264  0.12221  0.51211  1.0000
  C   C96       1.0  0.54957  0.42736  0.51211  1.0000
  C   C97       1.0  0.78376  0.54446  0.65456  1.0000
  C   C98       1.0  0.45554  0.23931  0.65456  1.0000
  C   C99       1.0  0.76069  0.21624  0.65456  1.0000
  C   C100      1.0  0.21112  0.11710  0.17878  1.0000
  C   C101      1.0  0.90597  0.78888  0.17878  1.0000
  C   C102      1.0  0.88290  0.09403  0.17878  1.0000
  C   C103      1.0  0.11710  0.21112  0.32122  1.0000
  C   C104      1.0  0.78888  0.90597  0.32122  1.0000
  C   C105      1.0  0.09403  0.88290  0.32122  1.0000
  C   C106      1.0  0.54446  0.78376  0.84544  1.0000
  C   C107      1.0  0.23931  0.45554  0.84544  1.0000
  C   C108      1.0  0.21624  0.76069  0.84544  1.0000
  H   H1        1.0  0.53790  0.13080  0.98380  1.0000
  H   H2        1.0  0.86920  0.40710  0.98380  1.0000
  H   H3        1.0  0.59290  0.46210  0.98380  1.0000
  H   H4        1.0  0.13080  0.53790  0.51620  1.0000
  H   H5        1.0  0.40710  0.86920  0.51620  1.0000
  H   H6        1.0  0.46210  0.59290  0.51620  1.0000
  H   H7        1.0  0.20457  0.46413  0.31713  1.0000
  H   H8        1.0  0.53587  0.74043  0.31713  1.0000
  H   H9        1.0  0.25957  0.79543  0.31713  1.0000
  H   H10       1.0  0.79747  0.87123  0.84953  1.0000
  H   H11       1.0  0.07377  0.20253  0.84953  1.0000
  H   H12       1.0  0.12877  0.92623  0.84953  1.0000
  H   H13       1.0  0.87123  0.79747  0.65047  1.0000
  H   H14       1.0  0.20253  0.07377  0.65047  1.0000
  H   H15       1.0  0.92623  0.12877  0.65047  1.0000
  H   H16       1.0  0.46413  0.20457  0.18287  1.0000
  H   H17       1.0  0.74043  0.53587  0.18287  1.0000
  H   H18       1.0  0.79543  0.25957  0.18287  1.0000
  H   H19       1.0  0.46210  0.86920  0.01620  1.0000
  H   H20       1.0  0.13080  0.59290  0.01620  1.0000
  H   H21       1.0  0.40710  0.53790  0.01620  1.0000
  H   H22       1.0  0.86920  0.46210  0.48380  1.0000
  H   H23       1.0  0.59290  0.13080  0.48380  1.0000
  H   H24       1.0  0.53790  0.40710  0.48380  1.0000
  H   H25       1.0  0.79543  0.53587  0.68287  1.0000
  H   H26       1.0  0.46413  0.25957  0.68287  1.0000
  H   H27       1.0  0.74043  0.20457  0.68287  1.0000
  H   H28       1.0  0.20253  0.12877  0.15047  1.0000
  H   H29       1.0  0.92623  0.79747  0.15047  1.0000
  H   H30       1.0  0.87123  0.07377  0.15047  1.0000
  H   H31       1.0  0.12877  0.20253  0.34953  1.0000
  H   H32       1.0  0.79747  0.92623  0.34953  1.0000
  H   H33       1.0  0.07377  0.87123  0.34953  1.0000
  H   H34       1.0  0.53587  0.79543  0.81713  1.0000
  H   H35       1.0  0.25957  0.46413  0.81713  1.0000
  H   H36       1.0  0.20457  0.74043  0.81713  1.0000
  C   C109      1.0  0.58938  0.13056  0.00518  1.0000
  C   C110      1.0  0.86944  0.45882  0.00518  1.0000
  C   C111      1.0  0.54118  0.41062  0.00518  1.0000
  C   C112      1.0  0.13056  0.58938  0.49482  1.0000
  C   C113      1.0  0.45882  0.86944  0.49482  1.0000
  C   C114      1.0  0.41062  0.54118  0.49482  1.0000
  C   C115      1.0  0.25605  0.46389  0.33851  1.0000
  C   C116      1.0  0.53611  0.79215  0.33851  1.0000
  C   C117      1.0  0.20785  0.74395  0.33851  1.0000
  C   C118      1.0  0.79723  0.92271  0.82815  1.0000
  C   C119      1.0  0.12549  0.20277  0.82815  1.0000
  C   C120      1.0  0.07729  0.87451  0.82815  1.0000
  C   C121      1.0  0.92271  0.79723  0.67185  1.0000
  C   C122      1.0  0.20277  0.12549  0.67185  1.0000
  C   C123      1.0  0.87451  0.07729  0.67185  1.0000
  C   C124      1.0  0.46389  0.25605  0.16149  1.0000
  C   C125      1.0  0.79215  0.53611  0.16149  1.0000
  C   C126      1.0  0.74395  0.20785  0.16149  1.0000
  C   C127      1.0  0.41062  0.86944  0.99482  1.0000
  C   C128      1.0  0.13056  0.54118  0.99482  1.0000
  C   C129      1.0  0.45882  0.58938  0.99482  1.0000
  C   C130      1.0  0.86944  0.41062  0.50518  1.0000
  C   C131      1.0  0.54118  0.13056  0.50518  1.0000
  C   C132      1.0  0.58938  0.45882  0.50518  1.0000
  C   C133      1.0  0.74395  0.53611  0.66149  1.0000
  C   C134      1.0  0.46389  0.20785  0.66149  1.0000
  C   C135      1.0  0.79215  0.25605  0.66149  1.0000
  C   C136      1.0  0.20277  0.07729  0.17185  1.0000
  C   C137      1.0  0.87451  0.79723  0.17185  1.0000
  C   C138      1.0  0.92271  0.12549  0.17185  1.0000
  C   C139      1.0  0.07729  0.20277  0.32815  1.0000
  C   C140      1.0  0.79723  0.87451  0.32815  1.0000
  C   C141      1.0  0.12549  0.92271  0.32815  1.0000
  C   C142      1.0  0.53611  0.74395  0.83851  1.0000
  C   C143      1.0  0.20785  0.46389  0.83851  1.0000
  C   C144      1.0  0.25605  0.79215  0.83851  1.0000
  H   H37       1.0  0.60430  0.14560  0.97290  1.0000
  H   H38       1.0  0.85440  0.45870  0.97290  1.0000
  H   H39       1.0  0.54130  0.39570  0.97290  1.0000
  H   H40       1.0  0.14560  0.60430  0.52710  1.0000
  H   H41       1.0  0.45870  0.85440  0.52710  1.0000
  H   H42       1.0  0.39570  0.54130  0.52710  1.0000
  H   H43       1.0  0.27097  0.47893  0.30623  1.0000
  H   H44       1.0  0.52107  0.79203  0.30623  1.0000
  H   H45       1.0  0.20797  0.72903  0.30623  1.0000
  H   H46       1.0  0.81227  0.93763  0.86043  1.0000
  H   H47       1.0  0.12537  0.18773  0.86043  1.0000
  H   H48       1.0  0.06237  0.87463  0.86043  1.0000
  H   H49       1.0  0.93763  0.81227  0.63957  1.0000
  H   H50       1.0  0.18773  0.12537  0.63957  1.0000
  H   H51       1.0  0.87463  0.06237  0.63957  1.0000
  H   H52       1.0  0.47893  0.27097  0.19377  1.0000
  H   H53       1.0  0.79203  0.52107  0.19377  1.0000
  H   H54       1.0  0.72903  0.20797  0.19377  1.0000
  H   H55       1.0  0.39570  0.85440  0.02710  1.0000
  H   H56       1.0  0.14560  0.54130  0.02710  1.0000
  H   H57       1.0  0.45870  0.60430  0.02710  1.0000
  H   H58       1.0  0.85440  0.39570  0.47290  1.0000
  H   H59       1.0  0.54130  0.14560  0.47290  1.0000
  H   H60       1.0  0.60430  0.45870  0.47290  1.0000
  H   H61       1.0  0.72903  0.52107  0.69377  1.0000
  H   H62       1.0  0.47893  0.20797  0.69377  1.0000
  H   H63       1.0  0.79203  0.27097  0.69377  1.0000
  H   H64       1.0  0.18773  0.06237  0.13957  1.0000
  H   H65       1.0  0.87463  0.81227  0.13957  1.0000
  H   H66       1.0  0.93763  0.12537  0.13957  1.0000
  H   H67       1.0  0.06237  0.18773  0.36043  1.0000
  H   H68       1.0  0.81227  0.87463  0.36043  1.0000
  H   H69       1.0  0.12537  0.93763  0.36043  1.0000
  H   H70       1.0  0.52107  0.72903  0.80623  1.0000
  H   H71       1.0  0.20797  0.47893  0.80623  1.0000
  H   H72       1.0  0.27097  0.79203  0.80623  1.0000
  C   C145      1.0  0.60677  0.11705  0.04489  1.0000
  C   C146      1.0  0.88295  0.48972  0.04489  1.0000
  C   C147      1.0  0.51028  0.39323  0.04489  1.0000
  C   C148      1.0  0.11705  0.60677  0.45511  1.0000
  C   C149      1.0  0.48972  0.88295  0.45511  1.0000
  C   C150      1.0  0.39323  0.51028  0.45511  1.0000
  C   C151      1.0  0.27344  0.45038  0.37822  1.0000
  C   C152      1.0  0.54962  0.82305  0.37822  1.0000
  C   C153      1.0  0.17695  0.72656  0.37822  1.0000
  C   C154      1.0  0.78372  0.94010  0.78844  1.0000
  C   C155      1.0  0.15639  0.21628  0.78844  1.0000
  C   C156      1.0  0.05990  0.84361  0.78844  1.0000
  C   C157      1.0  0.94010  0.78372  0.71156  1.0000
  C   C158      1.0  0.21628  0.15639  0.71156  1.0000
  C   C159      1.0  0.84361  0.05990  0.71156  1.0000
  C   C160      1.0  0.45038  0.27344  0.12178  1.0000
  C   C161      1.0  0.82305  0.54962  0.12178  1.0000
  C   C162      1.0  0.72656  0.17695  0.12178  1.0000
  C   C163      1.0  0.39323  0.88295  0.95511  1.0000
  C   C164      1.0  0.11705  0.51028  0.95511  1.0000
  C   C165      1.0  0.48972  0.60677  0.95511  1.0000
  C   C166      1.0  0.88295  0.39323  0.54489  1.0000
  C   C167      1.0  0.51028  0.11705  0.54489  1.0000
  C   C168      1.0  0.60677  0.48972  0.54489  1.0000
  C   C169      1.0  0.72656  0.54962  0.62178  1.0000
  C   C170      1.0  0.45038  0.17695  0.62178  1.0000
  C   C171      1.0  0.82305  0.27344  0.62178  1.0000
  C   C172      1.0  0.21628  0.05990  0.21156  1.0000
  C   C173      1.0  0.84361  0.78372  0.21156  1.0000
  C   C174      1.0  0.94010  0.15639  0.21156  1.0000
  C   C175      1.0  0.05990  0.21628  0.28844  1.0000
  C   C176      1.0  0.78372  0.84361  0.28844  1.0000
  C   C177      1.0  0.15639  0.94010  0.28844  1.0000
  C   C178      1.0  0.54962  0.72656  0.87822  1.0000
  C   C179      1.0  0.17695  0.45038  0.87822  1.0000
  C   C180      1.0  0.27344  0.82305  0.87822  1.0000
  C   C181      1.0  0.58417  0.09582  0.09221  1.0000
  C   C182      1.0  0.90418  0.48835  0.09221  1.0000
  C   C183      1.0  0.51165  0.41583  0.09221  1.0000
  C   C184      1.0  0.09582  0.58417  0.40779  1.0000
  C   C185      1.0  0.48835  0.90418  0.40779  1.0000
  C   C186      1.0  0.41583  0.51165  0.40779  1.0000
  C   C187      1.0  0.25084  0.42915  0.42554  1.0000
  C   C188      1.0  0.57085  0.82168  0.42554  1.0000
  C   C189      1.0  0.17832  0.74916  0.42554  1.0000
  C   C190      1.0  0.76249  0.91750  0.74112  1.0000
  C   C191      1.0  0.15502  0.23751  0.74112  1.0000
  C   C192      1.0  0.08250  0.84498  0.74112  1.0000
  C   C193      1.0  0.91750  0.76249  0.75888  1.0000
  C   C194      1.0  0.23751  0.15502  0.75888  1.0000
  C   C195      1.0  0.84498  0.08250  0.75888  1.0000
  C   C196      1.0  0.42915  0.25084  0.07446  1.0000
  C   C197      1.0  0.82168  0.57085  0.07446  1.0000
  C   C198      1.0  0.74916  0.17832  0.07446  1.0000
  C   C199      1.0  0.41583  0.90418  0.90779  1.0000
  C   C200      1.0  0.09582  0.51165  0.90779  1.0000
  C   C201      1.0  0.48835  0.58417  0.90779  1.0000
  C   C202      1.0  0.90418  0.41583  0.59221  1.0000
  C   C203      1.0  0.51165  0.09582  0.59221  1.0000
  C   C204      1.0  0.58417  0.48835  0.59221  1.0000
  C   C205      1.0  0.74916  0.57085  0.57446  1.0000
  C   C206      1.0  0.42915  0.17832  0.57446  1.0000
  C   C207      1.0  0.82168  0.25084  0.57446  1.0000
  C   C208      1.0  0.23751  0.08250  0.25888  1.0000
  C   C209      1.0  0.84498  0.76249  0.25888  1.0000
  C   C210      1.0  0.91750  0.15502  0.25888  1.0000
  C   C211      1.0  0.08250  0.23751  0.24112  1.0000
  C   C212      1.0  0.76249  0.84498  0.24112  1.0000
  C   C213      1.0  0.15502  0.91750  0.24112  1.0000
  C   C214      1.0  0.57085  0.74916  0.92554  1.0000
  C   C215      1.0  0.17832  0.42915  0.92554  1.0000
  C   C216      1.0  0.25084  0.82168  0.92554  1.0000
  H   H73       1.0  0.59530  0.08620  0.11970  1.0000
  H   H74       1.0  0.91380  0.50910  0.11970  1.0000
  H   H75       1.0  0.49090  0.40470  0.11970  1.0000
  H   H76       1.0  0.08620  0.59530  0.38030  1.0000
  H   H77       1.0  0.50910  0.91380  0.38030  1.0000
  H   H78       1.0  0.40470  0.49090  0.38030  1.0000
  H   H79       1.0  0.26197  0.41953  0.45303  1.0000
  H   H80       1.0  0.58047  0.84243  0.45303  1.0000
  H   H81       1.0  0.15757  0.73803  0.45303  1.0000
  H   H82       1.0  0.75287  0.92863  0.71363  1.0000
  H   H83       1.0  0.17577  0.24713  0.71363  1.0000
  H   H84       1.0  0.07137  0.82423  0.71363  1.0000
  H   H85       1.0  0.92863  0.75287  0.78637  1.0000
  H   H86       1.0  0.24713  0.17577  0.78637  1.0000
  H   H87       1.0  0.82423  0.07137  0.78637  1.0000
  H   H88       1.0  0.41953  0.26197  0.04697  1.0000
  H   H89       1.0  0.84243  0.58047  0.04697  1.0000
  H   H90       1.0  0.73803  0.15757  0.04697  1.0000
  H   H91       1.0  0.40470  0.91380  0.88030  1.0000
  H   H92       1.0  0.08620  0.49090  0.88030  1.0000
  H   H93       1.0  0.50910  0.59530  0.88030  1.0000
  H   H94       1.0  0.91380  0.40470  0.61970  1.0000
  H   H95       1.0  0.49090  0.08620  0.61970  1.0000
  H   H96       1.0  0.59530  0.50910  0.61970  1.0000
  H   H97       1.0  0.73803  0.58047  0.54697  1.0000
  H   H98       1.0  0.41953  0.15757  0.54697  1.0000
  H   H99       1.0  0.84243  0.26197  0.54697  1.0000
  H   H100      1.0  0.24713  0.07137  0.28637  1.0000
  H   H101      1.0  0.82423  0.75287  0.28637  1.0000
  H   H102      1.0  0.92863  0.17577  0.28637  1.0000
  H   H103      1.0  0.07137  0.24713  0.21363  1.0000
  H   H104      1.0  0.75287  0.82423  0.21363  1.0000
  H   H105      1.0  0.17577  0.92863  0.21363  1.0000
  H   H106      1.0  0.58047  0.73803  0.95303  1.0000
  H   H107      1.0  0.15757  0.41953  0.95303  1.0000
  H   H108      1.0  0.26197  0.84243  0.95303  1.0000
  C   C217      1.0  0.54528  0.08821  0.10053  1.0000
  C   C218      1.0  0.91179  0.45707  0.10053  1.0000
  C   C219      1.0  0.54293  0.45472  0.10053  1.0000
  C   C220      1.0  0.08821  0.54528  0.39947  1.0000
  C   C221      1.0  0.45707  0.91179  0.39947  1.0000
  C   C222      1.0  0.45472  0.54293  0.39947  1.0000
  C   C223      1.0  0.21195  0.42154  0.43386  1.0000
  C   C224      1.0  0.57846  0.79040  0.43386  1.0000
  C   C225      1.0  0.20960  0.78805  0.43386  1.0000
  C   C226      1.0  0.75488  0.87861  0.73280  1.0000
  C   C227      1.0  0.12374  0.24512  0.73280  1.0000
  C   C228      1.0  0.12139  0.87626  0.73280  1.0000
  C   C229      1.0  0.87861  0.75488  0.76720  1.0000
  C   C230      1.0  0.24512  0.12374  0.76720  1.0000
  C   C231      1.0  0.87626  0.12139  0.76720  1.0000
  C   C232      1.0  0.42154  0.21195  0.06614  1.0000
  C   C233      1.0  0.79040  0.57846  0.06614  1.0000
  C   C234      1.0  0.78805  0.20960  0.06614  1.0000
  C   C235      1.0  0.45472  0.91179  0.89947  1.0000
  C   C236      1.0  0.08821  0.54293  0.89947  1.0000
  C   C237      1.0  0.45707  0.54528  0.89947  1.0000
  C   C238      1.0  0.91179  0.45472  0.60053  1.0000
  C   C239      1.0  0.54293  0.08821  0.60053  1.0000
  C   C240      1.0  0.54528  0.45707  0.60053  1.0000
  C   C241      1.0  0.78805  0.57846  0.56614  1.0000
  C   C242      1.0  0.42154  0.20960  0.56614  1.0000
  C   C243      1.0  0.79040  0.21195  0.56614  1.0000
  C   C244      1.0  0.24512  0.12139  0.26720  1.0000
  C   C245      1.0  0.87626  0.75488  0.26720  1.0000
  C   C246      1.0  0.87861  0.12374  0.26720  1.0000
  C   C247      1.0  0.12139  0.24512  0.23280  1.0000
  C   C248      1.0  0.75488  0.87626  0.23280  1.0000
  C   C249      1.0  0.12374  0.87861  0.23280  1.0000
  C   C250      1.0  0.57846  0.78805  0.93386  1.0000
  C   C251      1.0  0.20960  0.42154  0.93386  1.0000
  C   C252      1.0  0.21195  0.79040  0.93386  1.0000
  H   H109      1.0  0.53090  0.07400  0.13360  1.0000
  H   H110      1.0  0.92600  0.45690  0.13360  1.0000
  H   H111      1.0  0.54310  0.46910  0.13360  1.0000
  H   H112      1.0  0.07400  0.53090  0.36640  1.0000
  H   H113      1.0  0.45690  0.92600  0.36640  1.0000
  H   H114      1.0  0.46910  0.54310  0.36640  1.0000
  H   H115      1.0  0.19757  0.40733  0.46693  1.0000
  H   H116      1.0  0.59267  0.79023  0.46693  1.0000
  H   H117      1.0  0.20977  0.80243  0.46693  1.0000
  H   H118      1.0  0.74067  0.86423  0.69973  1.0000
  H   H119      1.0  0.12357  0.25933  0.69973  1.0000
  H   H120      1.0  0.13577  0.87643  0.69973  1.0000
  H   H121      1.0  0.86423  0.74067  0.80027  1.0000
  H   H122      1.0  0.25933  0.12357  0.80027  1.0000
  H   H123      1.0  0.87643  0.13577  0.80027  1.0000
  H   H124      1.0  0.40733  0.19757  0.03307  1.0000
  H   H125      1.0  0.79023  0.59267  0.03307  1.0000
  H   H126      1.0  0.80243  0.20977  0.03307  1.0000
  H   H127      1.0  0.46910  0.92600  0.86640  1.0000
  H   H128      1.0  0.07400  0.54310  0.86640  1.0000
  H   H129      1.0  0.45690  0.53090  0.86640  1.0000
  H   H130      1.0  0.92600  0.46910  0.63360  1.0000
  H   H131      1.0  0.54310  0.07400  0.63360  1.0000
  H   H132      1.0  0.53090  0.45690  0.63360  1.0000
  H   H133      1.0  0.80243  0.59267  0.53307  1.0000
  H   H134      1.0  0.40733  0.20977  0.53307  1.0000
  H   H135      1.0  0.79023  0.19757  0.53307  1.0000
  H   H136      1.0  0.25933  0.13577  0.30027  1.0000
  H   H137      1.0  0.87643  0.74067  0.30027  1.0000
  H   H138      1.0  0.86423  0.12357  0.30027  1.0000
  H   H139      1.0  0.13577  0.25933  0.19973  1.0000
  H   H140      1.0  0.74067  0.87643  0.19973  1.0000
  H   H141      1.0  0.12357  0.86423  0.19973  1.0000
  H   H142      1.0  0.59267  0.80243  0.96693  1.0000
  H   H143      1.0  0.20977  0.40733  0.96693  1.0000
  H   H144      1.0  0.19757  0.79023  0.96693  1.0000
  C   C253      1.0  0.64917  0.12698  0.03513  1.0000
  C   C254      1.0  0.87302  0.52219  0.03513  1.0000
  C   C255      1.0  0.47781  0.35083  0.03513  1.0000
  C   C256      1.0  0.12698  0.64917  0.46487  1.0000
  C   C257      1.0  0.52219  0.87302  0.46487  1.0000
  C   C258      1.0  0.35083  0.47781  0.46487  1.0000
  C   C259      1.0  0.31584  0.46031  0.36846  1.0000
  C   C260      1.0  0.53969  0.85552  0.36846  1.0000
  C   C261      1.0  0.14448  0.68416  0.36846  1.0000
  C   C262      1.0  0.79365  0.98250  0.79820  1.0000
  C   C263      1.0  0.18886  0.20635  0.79820  1.0000
  C   C264      1.0  0.01750  0.81114  0.79820  1.0000
  C   C265      1.0  0.98250  0.79365  0.70180  1.0000
  C   C266      1.0  0.20635  0.18886  0.70180  1.0000
  C   C267      1.0  0.81114  0.01750  0.70180  1.0000
  C   C268      1.0  0.46031  0.31584  0.13154  1.0000
  C   C269      1.0  0.85552  0.53969  0.13154  1.0000
  C   C270      1.0  0.68416  0.14448  0.13154  1.0000
  C   C271      1.0  0.35083  0.87302  0.96487  1.0000
  C   C272      1.0  0.12698  0.47781  0.96487  1.0000
  C   C273      1.0  0.52219  0.64917  0.96487  1.0000
  C   C274      1.0  0.87302  0.35083  0.53513  1.0000
  C   C275      1.0  0.47781  0.12698  0.53513  1.0000
  C   C276      1.0  0.64917  0.52219  0.53513  1.0000
  C   C277      1.0  0.68416  0.53969  0.63154  1.0000
  C   C278      1.0  0.46031  0.14448  0.63154  1.0000
  C   C279      1.0  0.85552  0.31584  0.63154  1.0000
  C   C280      1.0  0.20635  0.01750  0.20180  1.0000
  C   C281      1.0  0.81114  0.79365  0.20180  1.0000
  C   C282      1.0  0.98250  0.18886  0.20180  1.0000
  C   C283      1.0  0.01750  0.20635  0.29820  1.0000
  C   C284      1.0  0.79365  0.81114  0.29820  1.0000
  C   C285      1.0  0.18886  0.98250  0.29820  1.0000
  C   C286      1.0  0.53969  0.68416  0.86846  1.0000
  C   C287      1.0  0.14448  0.46031  0.86846  1.0000
  C   C288      1.0  0.31584  0.85552  0.86846  1.0000
  H   H145      1.0  0.65030  0.11390  0.99920  1.0000
  H   H146      1.0  0.88610  0.53640  0.99920  1.0000
  H   H147      1.0  0.46360  0.34970  0.99920  1.0000
  H   H148      1.0  0.11390  0.65030  0.50080  1.0000
  H   H149      1.0  0.53640  0.88610  0.50080  1.0000
  H   H150      1.0  0.34970  0.46360  0.50080  1.0000
  H   H151      1.0  0.31697  0.44723  0.33253  1.0000
  H   H152      1.0  0.55277  0.86973  0.33253  1.0000
  H   H153      1.0  0.13027  0.68303  0.33253  1.0000
  H   H154      1.0  0.78057  0.98363  0.83413  1.0000
  H   H155      1.0  0.20307  0.21943  0.83413  1.0000
  H   H156      1.0  0.01637  0.79693  0.83413  1.0000
  H   H157      1.0  0.98363  0.78057  0.66587  1.0000
  H   H158      1.0  0.21943  0.20307  0.66587  1.0000
  H   H159      1.0  0.79693  0.01637  0.66587  1.0000
  H   H160      1.0  0.44723  0.31697  0.16747  1.0000
  H   H161      1.0  0.86973  0.55277  0.16747  1.0000
  H   H162      1.0  0.68303  0.13027  0.16747  1.0000
  H   H163      1.0  0.34970  0.88610  0.00080  1.0000
  H   H164      1.0  0.11390  0.46360  0.00080  1.0000
  H   H165      1.0  0.53640  0.65030  0.00080  1.0000
  H   H166      1.0  0.88610  0.34970  0.49920  1.0000
  H   H167      1.0  0.46360  0.11390  0.49920  1.0000
  H   H168      1.0  0.65030  0.53640  0.49920  1.0000
  H   H169      1.0  0.68303  0.55277  0.66747  1.0000
  H   H170      1.0  0.44723  0.13027  0.66747  1.0000
  H   H171      1.0  0.86973  0.31697  0.66747  1.0000
  H   H172      1.0  0.21943  0.01637  0.16587  1.0000
  H   H173      1.0  0.79693  0.78057  0.16587  1.0000
  H   H174      1.0  0.98363  0.20307  0.16587  1.0000
  H   H175      1.0  0.01637  0.21943  0.33413  1.0000
  H   H176      1.0  0.78057  0.79693  0.33413  1.0000
  H   H177      1.0  0.20307  0.98363  0.33413  1.0000
  H   H178      1.0  0.55277  0.68303  0.83253  1.0000
  H   H179      1.0  0.13027  0.44723  0.83253  1.0000
  H   H180      1.0  0.31697  0.86973  0.83253  1.0000
  H   H181      1.0  0.66570  0.15590  0.02930  1.0000
  H   H182      1.0  0.84410  0.50980  0.02930  1.0000
  H   H183      1.0  0.49020  0.33430  0.02930  1.0000
  H   H184      1.0  0.15590  0.66570  0.47070  1.0000
  H   H185      1.0  0.50980  0.84410  0.47070  1.0000
  H   H186      1.0  0.33430  0.49020  0.47070  1.0000
  H   H187      1.0  0.33237  0.48923  0.36263  1.0000
  H   H188      1.0  0.51077  0.84313  0.36263  1.0000
  H   H189      1.0  0.15687  0.66763  0.36263  1.0000
  H   H190      1.0  0.82257  0.99903  0.80403  1.0000
  H   H191      1.0  0.17647  0.17743  0.80403  1.0000
  H   H192      1.0  0.00097  0.82353  0.80403  1.0000
  H   H193      1.0  0.99903  0.82257  0.69597  1.0000
  H   H194      1.0  0.17743  0.17647  0.69597  1.0000
  H   H195      1.0  0.82353  0.00097  0.69597  1.0000
  H   H196      1.0  0.48923  0.33237  0.13737  1.0000
  H   H197      1.0  0.84313  0.51077  0.13737  1.0000
  H   H198      1.0  0.66763  0.15687  0.13737  1.0000
  H   H199      1.0  0.33430  0.84410  0.97070  1.0000
  H   H200      1.0  0.15590  0.49020  0.97070  1.0000
  H   H201      1.0  0.50980  0.66570  0.97070  1.0000
  H   H202      1.0  0.84410  0.33430  0.52930  1.0000
  H   H203      1.0  0.49020  0.15590  0.52930  1.0000
  H   H204      1.0  0.66570  0.50980  0.52930  1.0000
  H   H205      1.0  0.66763  0.51077  0.63737  1.0000
  H   H206      1.0  0.48923  0.15687  0.63737  1.0000
  H   H207      1.0  0.84313  0.33237  0.63737  1.0000
  H   H208      1.0  0.17743  0.00097  0.19597  1.0000
  H   H209      1.0  0.82353  0.82257  0.19597  1.0000
  H   H210      1.0  0.99903  0.17647  0.19597  1.0000
  H   H211      1.0  0.00097  0.17743  0.30403  1.0000
  H   H212      1.0  0.82257  0.82353  0.30403  1.0000
  H   H213      1.0  0.17647  0.99903  0.30403  1.0000
  H   H214      1.0  0.51077  0.66763  0.86263  1.0000
  H   H215      1.0  0.15687  0.48923  0.86263  1.0000
  H   H216      1.0  0.33237  0.84313  0.86263  1.0000
  C   C289      1.0  0.66670  0.07817  0.08330  1.0000
  C   C290      1.0  0.92183  0.58853  0.08330  1.0000
  C   C291      1.0  0.41147  0.33330  0.08330  1.0000
  C   C292      1.0  0.07817  0.66670  0.41670  1.0000
  C   C293      1.0  0.58853  0.92183  0.41670  1.0000
  C   C294      1.0  0.33330  0.41147  0.41670  1.0000
  C   C295      1.0  0.74484  0.00003  0.75003  1.0000
  C   C296      1.0  0.25520  0.25516  0.75003  1.0000
  C   C297      1.0  0.99997  0.74480  0.75003  1.0000
  C   C298      1.0  0.33330  0.92183  0.91670  1.0000
  C   C299      1.0  0.07817  0.41147  0.91670  1.0000
  C   C300      1.0  0.58853  0.66670  0.91670  1.0000
  C   C301      1.0  0.92183  0.33330  0.58330  1.0000
  C   C302      1.0  0.41147  0.07817  0.58330  1.0000
  C   C303      1.0  0.66670  0.58853  0.58330  1.0000
  C   C304      1.0  0.25516  0.99997  0.24997  1.0000
  C   C305      1.0  0.74480  0.74484  0.24997  1.0000
  C   C306      1.0  0.00003  0.25520  0.24997  1.0000
  C   C307      1.0  0.64557  0.04864  0.04156  1.0000
  C   C308      1.0  0.95136  0.59693  0.04156  1.0000
  C   C309      1.0  0.40307  0.35443  0.04156  1.0000
  C   C310      1.0  0.04864  0.64557  0.45844  1.0000
  C   C311      1.0  0.59693  0.95136  0.45844  1.0000
  C   C312      1.0  0.35443  0.40307  0.45844  1.0000
  C   C313      1.0  0.31224  0.38197  0.37489  1.0000
  C   C314      1.0  0.61803  0.93026  0.37489  1.0000
  C   C315      1.0  0.06974  0.68776  0.37489  1.0000
  C   C316      1.0  0.71531  0.97890  0.79177  1.0000
  C   C317      1.0  0.26360  0.28469  0.79177  1.0000
  C   C318      1.0  0.02110  0.73640  0.79177  1.0000
  C   C319      1.0  0.97890  0.71531  0.70823  1.0000
  C   C320      1.0  0.28469  0.26360  0.70823  1.0000
  C   C321      1.0  0.73640  0.02110  0.70823  1.0000
  C   C322      1.0  0.38197  0.31224  0.12511  1.0000
  C   C323      1.0  0.93026  0.61803  0.12511  1.0000
  C   C324      1.0  0.68776  0.06974  0.12511  1.0000
  C   C325      1.0  0.35443  0.95136  0.95844  1.0000
  C   C326      1.0  0.04864  0.40307  0.95844  1.0000
  C   C327      1.0  0.59693  0.64557  0.95844  1.0000
  C   C328      1.0  0.95136  0.35443  0.54156  1.0000
  C   C329      1.0  0.40307  0.04864  0.54156  1.0000
  C   C330      1.0  0.64557  0.59693  0.54156  1.0000
  C   C331      1.0  0.68776  0.61803  0.62511  1.0000
  C   C332      1.0  0.38197  0.06974  0.62511  1.0000
  C   C333      1.0  0.93026  0.31224  0.62511  1.0000
  C   C334      1.0  0.28469  0.02110  0.20823  1.0000
  C   C335      1.0  0.73640  0.71531  0.20823  1.0000
  C   C336      1.0  0.97890  0.26360  0.20823  1.0000
  C   C337      1.0  0.02110  0.28469  0.29177  1.0000
  C   C338      1.0  0.71531  0.73640  0.29177  1.0000
  C   C339      1.0  0.26360  0.97890  0.29177  1.0000
  C   C340      1.0  0.61803  0.68776  0.87489  1.0000
  C   C341      1.0  0.06974  0.38197  0.87489  1.0000
  C   C342      1.0  0.31224  0.93026  0.87489  1.0000
  H   H217      1.0  0.63080  0.05310  0.01300  1.0000
  H   H218      1.0  0.94690  0.57770  0.01300  1.0000
  H   H219      1.0  0.42230  0.36920  0.01300  1.0000
  H   H220      1.0  0.05310  0.63080  0.48700  1.0000
  H   H221      1.0  0.57770  0.94690  0.48700  1.0000
  H   H222      1.0  0.36920  0.42230  0.48700  1.0000
  H   H223      1.0  0.29747  0.38643  0.34633  1.0000
  H   H224      1.0  0.61357  0.91103  0.34633  1.0000
  H   H225      1.0  0.08897  0.70253  0.34633  1.0000
  H   H226      1.0  0.71977  0.96413  0.82033  1.0000
  H   H227      1.0  0.24437  0.28023  0.82033  1.0000
  H   H228      1.0  0.03587  0.75563  0.82033  1.0000
  H   H229      1.0  0.96413  0.71977  0.67967  1.0000
  H   H230      1.0  0.28023  0.24437  0.67967  1.0000
  H   H231      1.0  0.75563  0.03587  0.67967  1.0000
  H   H232      1.0  0.38643  0.29747  0.15367  1.0000
  H   H233      1.0  0.91103  0.61357  0.15367  1.0000
  H   H234      1.0  0.70253  0.08897  0.15367  1.0000
  H   H235      1.0  0.36920  0.94690  0.98700  1.0000
  H   H236      1.0  0.05310  0.42230  0.98700  1.0000
  H   H237      1.0  0.57770  0.63080  0.98700  1.0000
  H   H238      1.0  0.94690  0.36920  0.51300  1.0000
  H   H239      1.0  0.42230  0.05310  0.51300  1.0000
  H   H240      1.0  0.63080  0.57770  0.51300  1.0000
  H   H241      1.0  0.70253  0.61357  0.65367  1.0000
  H   H242      1.0  0.38643  0.08897  0.65367  1.0000
  H   H243      1.0  0.91103  0.29747  0.65367  1.0000
  H   H244      1.0  0.28023  0.03587  0.17967  1.0000
  H   H245      1.0  0.75563  0.71977  0.17967  1.0000
  H   H246      1.0  0.96413  0.24437  0.17967  1.0000
  H   H247      1.0  0.03587  0.28023  0.32033  1.0000
  H   H248      1.0  0.71977  0.75563  0.32033  1.0000
  H   H249      1.0  0.24437  0.96413  0.32033  1.0000
  H   H250      1.0  0.61357  0.70253  0.84633  1.0000
  H   H251      1.0  0.08897  0.38643  0.84633  1.0000
  H   H252      1.0  0.29747  0.91103  0.84633  1.0000
  C   C343      1.0  0.64596  0.01348  0.04137  1.0000
  C   C344      1.0  0.98652  0.63248  0.04137  1.0000
  C   C345      1.0  0.36752  0.35404  0.04137  1.0000
  C   C346      1.0  0.01348  0.64596  0.45863  1.0000
  C   C347      1.0  0.63248  0.98652  0.45863  1.0000
  C   C348      1.0  0.35404  0.36752  0.45863  1.0000
  C   C349      1.0  0.31263  0.34681  0.37470  1.0000
  C   C350      1.0  0.65319  0.96581  0.37470  1.0000
  C   C351      1.0  0.03419  0.68737  0.37470  1.0000
  C   C352      1.0  0.68015  0.97929  0.79196  1.0000
  C   C353      1.0  0.29915  0.31985  0.79196  1.0000
  C   C354      1.0  0.02071  0.70085  0.79196  1.0000
  C   C355      1.0  0.97929  0.68015  0.70804  1.0000
  C   C356      1.0  0.31985  0.29915  0.70804  1.0000
  C   C357      1.0  0.70085  0.02071  0.70804  1.0000
  C   C358      1.0  0.34681  0.31263  0.12530  1.0000
  C   C359      1.0  0.96581  0.65319  0.12530  1.0000
  C   C360      1.0  0.68737  0.03419  0.12530  1.0000
  C   C361      1.0  0.35404  0.98652  0.95863  1.0000
  C   C362      1.0  0.01348  0.36752  0.95863  1.0000
  C   C363      1.0  0.63248  0.64596  0.95863  1.0000
  C   C364      1.0  0.98652  0.35404  0.54137  1.0000
  C   C365      1.0  0.36752  0.01348  0.54137  1.0000
  C   C366      1.0  0.64596  0.63248  0.54137  1.0000
  C   C367      1.0  0.68737  0.65319  0.62530  1.0000
  C   C368      1.0  0.34681  0.03419  0.62530  1.0000
  C   C369      1.0  0.96581  0.31263  0.62530  1.0000
  C   C370      1.0  0.31985  0.02071  0.20804  1.0000
  C   C371      1.0  0.70085  0.68015  0.20804  1.0000
  C   C372      1.0  0.97929  0.29915  0.20804  1.0000
  C   C373      1.0  0.02071  0.31985  0.29196  1.0000
  C   C374      1.0  0.68015  0.70085  0.29196  1.0000
  C   C375      1.0  0.29915  0.97929  0.29196  1.0000
  C   C376      1.0  0.65319  0.68737  0.87470  1.0000
  C   C377      1.0  0.03419  0.34681  0.87470  1.0000
  C   C378      1.0  0.31263  0.96581  0.87470  1.0000
  C   C379      1.0  0.66670  0.00575  0.08330  1.0000
  C   C380      1.0  0.99425  0.66095  0.08330  1.0000
  C   C381      1.0  0.33905  0.33330  0.08330  1.0000
  C   C382      1.0  0.00575  0.66670  0.41670  1.0000
  C   C383      1.0  0.66095  0.99425  0.41670  1.0000
  C   C384      1.0  0.33330  0.33905  0.41670  1.0000
  C   C385      1.0  0.67242  0.00003  0.75003  1.0000
  C   C386      1.0  0.32762  0.32758  0.75003  1.0000
  C   C387      1.0  0.99997  0.67238  0.75003  1.0000
  C   C388      1.0  0.33330  0.99425  0.91670  1.0000
  C   C389      1.0  0.00575  0.33905  0.91670  1.0000
  C   C390      1.0  0.66095  0.66670  0.91670  1.0000
  C   C391      1.0  0.99425  0.33330  0.58330  1.0000
  C   C392      1.0  0.33905  0.00575  0.58330  1.0000
  C   C393      1.0  0.66670  0.66095  0.58330  1.0000
  C   C394      1.0  0.32758  0.99997  0.24997  1.0000
  C   C395      1.0  0.67238  0.67242  0.24997  1.0000
  C   C396      1.0  0.00003  0.32762  0.24997  1.0000
  H   H253      1.0  0.66670  0.98140  0.08330  1.0000
  H   H254      1.0  0.01860  0.68530  0.08330  1.0000
  H   H255      1.0  0.31470  0.33330  0.08330  1.0000
  H   H256      1.0  0.98140  0.66670  0.41670  1.0000
  H   H257      1.0  0.68530  0.01860  0.41670  1.0000
  H   H258      1.0  0.33330  0.31470  0.41670  1.0000
  H   H259      1.0  0.64807  0.00003  0.75003  1.0000
  H   H260      1.0  0.35197  0.35193  0.75003  1.0000
  H   H261      1.0  0.99997  0.64803  0.75003  1.0000
  H   H262      1.0  0.33330  0.01860  0.91670  1.0000
  H   H263      1.0  0.98140  0.31470  0.91670  1.0000
  H   H264      1.0  0.68530  0.66670  0.91670  1.0000
  H   H265      1.0  0.01860  0.33330  0.58330  1.0000
  H   H266      1.0  0.31470  0.98140  0.58330  1.0000
  H   H267      1.0  0.66670  0.68530  0.58330  1.0000
  H   H268      1.0  0.35193  0.99997  0.24997  1.0000
  H   H269      1.0  0.64803  0.64807  0.24997  1.0000
  H   H270      1.0  0.00003  0.35197  0.24997  1.0000
  C   C397      1.0  0.62341  0.98328  0.99458  1.0000
  C   C398      1.0  0.01672  0.64013  0.99458  1.0000
  C   C399      1.0  0.35987  0.37659  0.99458  1.0000
  C   C400      1.0  0.98328  0.62341  0.50542  1.0000
  C   C401      1.0  0.64013  0.01672  0.50542  1.0000
  C   C402      1.0  0.37659  0.35987  0.50542  1.0000
  C   C403      1.0  0.29008  0.31661  0.32791  1.0000
  C   C404      1.0  0.68339  0.97346  0.32791  1.0000
  C   C405      1.0  0.02654  0.70992  0.32791  1.0000
  C   C406      1.0  0.64995  0.95674  0.83875  1.0000
  C   C407      1.0  0.30680  0.35005  0.83875  1.0000
  C   C408      1.0  0.04326  0.69320  0.83875  1.0000
  C   C409      1.0  0.95674  0.64995  0.66125  1.0000
  C   C410      1.0  0.35005  0.30680  0.66125  1.0000
  C   C411      1.0  0.69320  0.04326  0.66125  1.0000
  C   C412      1.0  0.31661  0.29008  0.17209  1.0000
  C   C413      1.0  0.97346  0.68339  0.17209  1.0000
  C   C414      1.0  0.70992  0.02654  0.17209  1.0000
  C   C415      1.0  0.37659  0.01672  0.00542  1.0000
  C   C416      1.0  0.98328  0.35987  0.00542  1.0000
  C   C417      1.0  0.64013  0.62341  0.00542  1.0000
  C   C418      1.0  0.01672  0.37659  0.49458  1.0000
  C   C419      1.0  0.35987  0.98328  0.49458  1.0000
  C   C420      1.0  0.62341  0.64013  0.49458  1.0000
  C   C421      1.0  0.70992  0.68339  0.67209  1.0000
  C   C422      1.0  0.31661  0.02654  0.67209  1.0000
  C   C423      1.0  0.97346  0.29008  0.67209  1.0000
  C   C424      1.0  0.35005  0.04326  0.16125  1.0000
  C   C425      1.0  0.69320  0.64995  0.16125  1.0000
  C   C426      1.0  0.95674  0.30680  0.16125  1.0000
  C   C427      1.0  0.04326  0.35005  0.33875  1.0000
  C   C428      1.0  0.64995  0.69320  0.33875  1.0000
  C   C429      1.0  0.30680  0.95674  0.33875  1.0000
  C   C430      1.0  0.68339  0.70992  0.82791  1.0000
  C   C431      1.0  0.02654  0.31661  0.82791  1.0000
  C   C432      1.0  0.29008  0.97346  0.82791  1.0000
