data_image0
_chemical_formula_structural       Th4Ca4O72C36O4H8
_chemical_formula_sum              "Th4 Ca4 O76 C36 H8"
_cell_length_a       11.4361
_cell_length_b       14.4861
_cell_length_c       16.4391
_cell_angle_alpha    90
_cell_angle_beta     94.978
_cell_angle_gamma    90

_space_group_name_H-M_alt    "P 1"
_space_group_IT_number       1

loop_
  _space_group_symop_operation_xyz
  'x, y, z'

loop_
  _atom_site_type_symbol
  _atom_site_label
  _atom_site_symmetry_multiplicity
  _atom_site_fract_x
  _atom_site_fract_y
  _atom_site_fract_z
  _atom_site_occupancy
  Th  Th1       1.0  0.46324  0.19876  0.40250  1.0000
  Th  Th2       1.0  0.03676  0.69876  0.09750  1.0000
  Th  Th3       1.0  0.53676  0.80124  0.59750  1.0000
  Th  Th4       1.0  0.96324  0.30124  0.90250  1.0000
  Ca  Ca1       1.0  0.94615  0.09717  0.25317  1.0000
  Ca  Ca2       1.0  0.55385  0.59717  0.24683  1.0000
  Ca  Ca3       1.0  0.05385  0.90283  0.74683  1.0000
  Ca  Ca4       1.0  0.44615  0.40283  0.75317  1.0000
  O   O1        1.0  0.26133  0.25102  0.36282  1.0000
  O   O2        1.0  0.23867  0.75102  0.13718  1.0000
  O   O3        1.0  0.73867  0.74898  0.63718  1.0000
  O   O4        1.0  0.76133  0.24898  0.86282  1.0000
  O   O5        1.0  0.33743  0.09938  0.30476  1.0000
  O   O6        1.0  0.16257  0.59938  0.19524  1.0000
  O   O7        1.0  0.66257  0.90062  0.69524  1.0000
  O   O8        1.0  0.83743  0.40062  0.80476  1.0000
  O   O9        1.0  0.56282  0.10355  0.30049  1.0000
  O   O10       1.0  0.93718  0.60355  0.19951  1.0000
  O   O11       1.0  0.43718  0.89645  0.69951  1.0000
  O   O12       1.0  0.06282  0.39645  0.80049  1.0000
  O   O13       1.0  0.66675  0.24305  0.38099  1.0000
  O   O14       1.0  0.83325  0.74305  0.11901  1.0000
  O   O15       1.0  0.33325  0.75695  0.61901  1.0000
  O   O16       1.0  0.16675  0.25695  0.88099  1.0000
  O   O17       1.0  0.37488  0.06472  0.47285  1.0000
  O   O18       1.0  0.12512  0.56472  0.02715  1.0000
  O   O19       1.0  0.62512  0.93528  0.52715  1.0000
  O   O20       1.0  0.87488  0.43528  0.97285  1.0000
  O   O21       1.0  0.39455  0.92791  0.53513  1.0000
  O   O22       1.0  0.10545  0.42791  0.96487  1.0000
  O   O23       1.0  0.60545  0.07209  0.46487  1.0000
  O   O24       1.0  0.89455  0.57209  0.03513  1.0000
  O   O25       1.0  0.57446  0.24080  0.53553  1.0000
  O   O26       1.0  0.92554  0.74080  0.96447  1.0000
  O   O27       1.0  0.42554  0.75920  0.46447  1.0000
  O   O28       1.0  0.07446  0.25920  0.03553  1.0000
  O   O29       1.0  0.34488  0.25079  0.51577  1.0000
  O   O30       1.0  0.15512  0.75079  0.98423  1.0000
  O   O31       1.0  0.65512  0.74921  0.48423  1.0000
  O   O32       1.0  0.84488  0.24921  0.01577  1.0000
  O   O33       1.0  0.48630  0.36712  0.42182  1.0000
  O   O34       1.0  0.01370  0.86712  0.07818  1.0000
  O   O35       1.0  0.51370  0.63288  0.57818  1.0000
  O   O36       1.0  0.98630  0.13288  0.92182  1.0000
  O   O37       1.0  0.46567  0.29177  0.27568  1.0000
  O   O38       1.0  0.03433  0.79177  0.22432  1.0000
  O   O39       1.0  0.53433  0.70823  0.72432  1.0000
  O   O40       1.0  0.96567  0.20823  0.77568  1.0000
  O   O41       1.0  0.07499  0.21400  0.32571  1.0000
  O   O42       1.0  0.42501  0.71400  0.17429  1.0000
  O   O43       1.0  0.92501  0.78600  0.67429  1.0000
  O   O44       1.0  0.57499  0.28600  0.82571  1.0000
  O   O45       1.0  0.15490  0.04523  0.27639  1.0000
  O   O46       1.0  0.34510  0.54523  0.22361  1.0000
  O   O47       1.0  0.84510  0.95477  0.72361  1.0000
  O   O48       1.0  0.65490  0.45477  0.77639  1.0000
  O   O49       1.0  0.73402  0.05899  0.25733  1.0000
  O   O50       1.0  0.76598  0.55899  0.24267  1.0000
  O   O51       1.0  0.26598  0.94101  0.74267  1.0000
  O   O52       1.0  0.23402  0.44101  0.75733  1.0000
  O   O53       1.0  0.82710  0.22153  0.31557  1.0000
  O   O54       1.0  0.67290  0.72153  0.18443  1.0000
  O   O55       1.0  0.17290  0.77847  0.68443  1.0000
  O   O56       1.0  0.32710  0.27847  0.81557  1.0000
  O   O57       1.0  0.57752  0.31779  0.65274  1.0000
  O   O58       1.0  0.92248  0.81779  0.84726  1.0000
  O   O59       1.0  0.42248  0.68221  0.34726  1.0000
  O   O60       1.0  0.07752  0.18221  0.15274  1.0000
  O   O61       1.0  0.33818  0.31974  0.63671  1.0000
  O   O62       1.0  0.16182  0.81974  0.86329  1.0000
  O   O63       1.0  0.66182  0.68026  0.36329  1.0000
  O   O64       1.0  0.83818  0.18026  0.13671  1.0000
  O   O65       1.0  0.54666  0.49962  0.37040  1.0000
  O   O66       1.0  0.95334  0.99962  0.12960  1.0000
  O   O67       1.0  0.45334  0.50038  0.62960  1.0000
  O   O68       1.0  0.04666  0.00038  0.87040  1.0000
  O   O69       1.0  0.54694  0.41572  0.22306  1.0000
  O   O70       1.0  0.95306  0.91572  0.27694  1.0000
  O   O71       1.0  0.45306  0.58428  0.77694  1.0000
  O   O72       1.0  0.04694  0.08428  0.72306  1.0000
  C   C1        1.0  0.18080  0.19792  0.33165  1.0000
  C   C2        1.0  0.31920  0.69792  0.16835  1.0000
  C   C3        1.0  0.81920  0.80208  0.66835  1.0000
  C   C4        1.0  0.68080  0.30208  0.83165  1.0000
  C   C5        1.0  0.22580  0.10498  0.30095  1.0000
  C   C6        1.0  0.27420  0.60498  0.19905  1.0000
  C   C7        1.0  0.77420  0.89502  0.69905  1.0000
  C   C8        1.0  0.72580  0.39502  0.80095  1.0000
  C   C9        1.0  0.67070  0.11266  0.29350  1.0000
  C   C10       1.0  0.82930  0.61266  0.20650  1.0000
  C   C11       1.0  0.32930  0.88734  0.70650  1.0000
  C   C12       1.0  0.17070  0.38734  0.79350  1.0000
  C   C13       1.0  0.72780  0.19977  0.33318  1.0000
  C   C14       1.0  0.77220  0.69977  0.16682  1.0000
  C   C15       1.0  0.27220  0.80023  0.66682  1.0000
  C   C16       1.0  0.22780  0.30023  0.83318  1.0000
  C   C17       1.0  0.43360  0.99721  0.50265  1.0000
  C   C18       1.0  0.06640  0.49721  0.99735  1.0000
  C   C19       1.0  0.56640  0.00279  0.49735  1.0000
  C   C20       1.0  0.93360  0.50279  0.00265  1.0000
  C   C21       1.0  0.52540  0.28119  0.59232  1.0000
  C   C22       1.0  0.97460  0.78119  0.90768  1.0000
  C   C23       1.0  0.47460  0.71881  0.40768  1.0000
  C   C24       1.0  0.02540  0.21881  0.09232  1.0000
  C   C25       1.0  0.39090  0.28469  0.58174  1.0000
  C   C26       1.0  0.10910  0.78469  0.91826  1.0000
  C   C27       1.0  0.60910  0.71531  0.41826  1.0000
  C   C28       1.0  0.89090  0.21531  0.08174  1.0000
  C   C29       1.0  0.51460  0.41781  0.36453  1.0000
  C   C30       1.0  0.98540  0.91781  0.13547  1.0000
  C   C31       1.0  0.48540  0.58219  0.63547  1.0000
  C   C32       1.0  0.01460  0.08219  0.86453  1.0000
  C   C33       1.0  0.50940  0.37256  0.27949  1.0000
  C   C34       1.0  0.99060  0.87256  0.22051  1.0000
  C   C35       1.0  0.49060  0.62744  0.72051  1.0000
  C   C36       1.0  0.00940  0.12744  0.77949  1.0000
  O   O73       1.0  0.94810  0.05975  0.39849  1.0000
  O   O74       1.0  0.55190  0.55975  0.10151  1.0000
  O   O75       1.0  0.05190  0.94025  0.60151  1.0000
  O   O76       1.0  0.44810  0.44025  0.89849  1.0000
  H   H1        1.0  0.00560  0.07290  0.43120  1.0000
  H   H2        1.0  0.49440  0.57290  0.06880  1.0000
  H   H3        1.0  0.99440  0.92710  0.56880  1.0000
  H   H4        1.0  0.50560  0.42710  0.93120  1.0000
  H   H5        1.0  0.92030  0.01130  0.41660  1.0000
  H   H6        1.0  0.57970  0.51130  0.08340  1.0000
  H   H7        1.0  0.07970  0.98870  0.58340  1.0000
  H   H8        1.0  0.42030  0.48870  0.91660  1.0000
