data_image0
_chemical_formula_structural       U3O12C18H6C6H6C12H6C6H6N3C12H6C6H6C12H6C6H6C12H6C6H6C6H6C9H6O6C6O6
_chemical_formula_sum              "U3 O24 C117 H72 N3"
_cell_length_a       22.2597
_cell_length_b       22.2597
_cell_length_c       10.7536
_cell_angle_alpha    90
_cell_angle_beta     90
_cell_angle_gamma    120

_space_group_name_H-M_alt    "P 1"
_space_group_IT_number       1

loop_
  _space_group_symop_operation_xyz
  'x, y, z'

loop_
  _atom_site_type_symbol
  _atom_site_label
  _atom_site_symmetry_multiplicity
  _atom_site_fract_x
  _atom_site_fract_y
  _atom_site_fract_z
  _atom_site_occupancy
  U   U1        1.0  0.79006  0.58012  0.33330  1.0000
  U   U2        1.0  0.41988  0.20994  0.99997  1.0000
  U   U3        1.0  0.79006  0.20994  0.66663  1.0000
  O   O1        1.0  0.67530  0.47270  0.32800  1.0000
  O   O2        1.0  0.52730  0.20260  0.99467  1.0000
  O   O3        1.0  0.52730  0.32470  0.00533  1.0000
  O   O4        1.0  0.79740  0.32470  0.66133  1.0000
  O   O5        1.0  0.79740  0.47270  0.33867  1.0000
  O   O6        1.0  0.67530  0.20260  0.67200  1.0000
  O   O7        1.0  0.67480  0.57120  0.33500  1.0000
  O   O8        1.0  0.42880  0.10360  0.00167  1.0000
  O   O9        1.0  0.42880  0.32520  0.99833  1.0000
  O   O10       1.0  0.89640  0.32520  0.66833  1.0000
  O   O11       1.0  0.89640  0.57120  0.33167  1.0000
  O   O12       1.0  0.67480  0.10360  0.66500  1.0000
  C   C1        1.0  0.64100  0.50300  0.33100  1.0000
  C   C2        1.0  0.49700  0.13800  0.99767  1.0000
  C   C3        1.0  0.49700  0.35900  0.00233  1.0000
  C   C4        1.0  0.86200  0.35900  0.66433  1.0000
  C   C5        1.0  0.86200  0.50300  0.33567  1.0000
  C   C6        1.0  0.64100  0.13800  0.66900  1.0000
  C   C7        1.0  0.56530  0.46880  0.31900  1.0000
  C   C8        1.0  0.53120  0.09650  0.98567  1.0000
  C   C9        1.0  0.53120  0.43470  0.01433  1.0000
  C   C10       1.0  0.90350  0.43470  0.65233  1.0000
  C   C11       1.0  0.90350  0.46880  0.34767  1.0000
  C   C12       1.0  0.56530  0.09650  0.68100  1.0000
  C   C13       1.0  0.53080  0.50620  0.32600  1.0000
  C   C14       1.0  0.49380  0.02460  0.99267  1.0000
  C   C15       1.0  0.49380  0.46920  0.00733  1.0000
  C   C16       1.0  0.97540  0.46920  0.65933  1.0000
  C   C17       1.0  0.97540  0.50620  0.34067  1.0000
  C   C18       1.0  0.53080  0.02460  0.67400  1.0000
  H   H1        1.0  0.55590  0.55440  0.33050  1.0000
  H   H2        1.0  0.44560  0.00150  0.99717  1.0000
  H   H3        1.0  0.44560  0.44410  0.00283  1.0000
  H   H4        1.0  0.99850  0.44410  0.66383  1.0000
  H   H5        1.0  0.99850  0.55440  0.33617  1.0000
  H   H6        1.0  0.55590  0.00150  0.66950  1.0000
  C   C19       1.0  0.45870  0.47170  0.32700  1.0000
  C   C20       1.0  0.52830  0.98700  0.99367  1.0000
  C   C21       1.0  0.52830  0.54130  0.00633  1.0000
  C   C22       1.0  0.01300  0.54130  0.66033  1.0000
  C   C23       1.0  0.01300  0.47170  0.33967  1.0000
  C   C24       1.0  0.45870  0.98700  0.67300  1.0000
  H   H7        1.0  0.43560  0.49670  0.33220  1.0000
  H   H8        1.0  0.50330  0.93890  0.99887  1.0000
  H   H9        1.0  0.50330  0.56440  0.00113  1.0000
  H   H10       1.0  0.06110  0.56440  0.66553  1.0000
  H   H11       1.0  0.06110  0.49670  0.33447  1.0000
  H   H12       1.0  0.43560  0.93890  0.66780  1.0000
  C   C25       1.0  0.42120  0.39970  0.32070  1.0000
  C   C26       1.0  0.60030  0.02150  0.98737  1.0000
  C   C27       1.0  0.60030  0.57880  0.01263  1.0000
  C   C28       1.0  0.97850  0.57880  0.65403  1.0000
  C   C29       1.0  0.97850  0.39970  0.34597  1.0000
  C   C30       1.0  0.42120  0.02150  0.67930  1.0000
  C   C31       1.0  0.45570  0.36220  0.31300  1.0000
  C   C32       1.0  0.63780  0.09350  0.97967  1.0000
  C   C33       1.0  0.63780  0.54430  0.02033  1.0000
  C   C34       1.0  0.90650  0.54430  0.64633  1.0000
  C   C35       1.0  0.90650  0.36220  0.35367  1.0000
  C   C36       1.0  0.45570  0.09350  0.68700  1.0000
  H   H13       1.0  0.43060  0.31410  0.30880  1.0000
  H   H14       1.0  0.68590  0.11650  0.97547  1.0000
  H   H15       1.0  0.68590  0.56940  0.02453  1.0000
  H   H16       1.0  0.88350  0.56940  0.64213  1.0000
  H   H17       1.0  0.88350  0.31410  0.35787  1.0000
  H   H18       1.0  0.43060  0.11650  0.69120  1.0000
  C   C37       1.0  0.52780  0.39680  0.31200  1.0000
  C   C38       1.0  0.60320  0.13100  0.97867  1.0000
  C   C39       1.0  0.60320  0.47220  0.02133  1.0000
  C   C40       1.0  0.86900  0.47220  0.64533  1.0000
  C   C41       1.0  0.86900  0.39680  0.35467  1.0000
  C   C42       1.0  0.52780  0.13100  0.68800  1.0000
  H   H19       1.0  0.55090  0.37170  0.30710  1.0000
  H   H20       1.0  0.62830  0.17920  0.97377  1.0000
  H   H21       1.0  0.62830  0.44910  0.02623  1.0000
  H   H22       1.0  0.82080  0.44910  0.64043  1.0000
  H   H23       1.0  0.82080  0.37170  0.35957  1.0000
  H   H24       1.0  0.55090  0.17920  0.69290  1.0000
  N   N1        1.0  0.12230  0.24500  0.33330  1.0000
  N   N2        1.0  0.75500  0.87730  0.99997  1.0000
  N   N3        1.0  0.12270  0.87770  0.66663  1.0000
  C   C43       1.0  0.34210  0.36180  0.31800  1.0000
  C   C44       1.0  0.63820  0.98030  0.98467  1.0000
  C   C45       1.0  0.63820  0.65790  0.01533  1.0000
  C   C46       1.0  0.01970  0.65790  0.65133  1.0000
  C   C47       1.0  0.01970  0.36180  0.34867  1.0000
  C   C48       1.0  0.34210  0.98030  0.68200  1.0000
  C   C49       1.0  0.30670  0.38120  0.40000  1.0000
  C   C50       1.0  0.61880  0.92550  0.06667  1.0000
  C   C51       1.0  0.61880  0.69330  0.93333  1.0000
  C   C52       1.0  0.07450  0.69330  0.73333  1.0000
  C   C53       1.0  0.07450  0.38120  0.26667  1.0000
  C   C54       1.0  0.30670  0.92550  0.60000  1.0000
  H   H25       1.0  0.33120  0.41940  0.45170  1.0000
  H   H26       1.0  0.58060  0.91180  0.11837  1.0000
  H   H27       1.0  0.58060  0.66880  0.88163  1.0000
  H   H28       1.0  0.08820  0.66880  0.78503  1.0000
  H   H29       1.0  0.08820  0.41940  0.21497  1.0000
  H   H30       1.0  0.33120  0.91180  0.54830  1.0000
  C   C55       1.0  0.23470  0.34370  0.40500  1.0000
  C   C56       1.0  0.65630  0.89100  0.07167  1.0000
  C   C57       1.0  0.65630  0.76530  0.92833  1.0000
  C   C58       1.0  0.10900  0.76530  0.73833  1.0000
  C   C59       1.0  0.10900  0.34370  0.26167  1.0000
  C   C60       1.0  0.23470  0.89100  0.59500  1.0000
  H   H31       1.0  0.21100  0.35670  0.46000  1.0000
  H   H32       1.0  0.64330  0.85430  0.12667  1.0000
  H   H33       1.0  0.64330  0.78900  0.87333  1.0000
  H   H34       1.0  0.14570  0.78900  0.79333  1.0000
  H   H35       1.0  0.14570  0.35670  0.20667  1.0000
  H   H36       1.0  0.21100  0.85430  0.54000  1.0000
  C   C61       1.0  0.19800  0.28670  0.32800  1.0000
  C   C62       1.0  0.71330  0.91130  0.99467  1.0000
  C   C63       1.0  0.71330  0.80200  0.00533  1.0000
  C   C64       1.0  0.08870  0.80200  0.66133  1.0000
  C   C65       1.0  0.08870  0.28670  0.33867  1.0000
  C   C66       1.0  0.19800  0.91130  0.67200  1.0000
  C   C67       1.0  0.23340  0.26720  0.24500  1.0000
  C   C68       1.0  0.73280  0.96620  0.91167  1.0000
  C   C69       1.0  0.73280  0.76660  0.08833  1.0000
  C   C70       1.0  0.03380  0.76660  0.57833  1.0000
  C   C71       1.0  0.03380  0.26720  0.42167  1.0000
  C   C72       1.0  0.23340  0.96620  0.75500  1.0000
  H   H37       1.0  0.20880  0.22910  0.19350  1.0000
  H   H38       1.0  0.77090  0.97970  0.86017  1.0000
  H   H39       1.0  0.77090  0.79120  0.13983  1.0000
  H   H40       1.0  0.02030  0.79120  0.52683  1.0000
  H   H41       1.0  0.02030  0.22910  0.47317  1.0000
  H   H42       1.0  0.20880  0.97970  0.80650  1.0000
  C   C73       1.0  0.30540  0.30480  0.24000  1.0000
  C   C74       1.0  0.69520  0.00060  0.90667  1.0000
  C   C75       1.0  0.69520  0.69460  0.09333  1.0000
  C   C76       1.0  0.99940  0.69460  0.57333  1.0000
  C   C77       1.0  0.99940  0.30480  0.42667  1.0000
  C   C78       1.0  0.30540  0.00060  0.76000  1.0000
  H   H43       1.0  0.32910  0.29180  0.18520  1.0000
  H   H44       1.0  0.70820  0.03730  0.85187  1.0000
  H   H45       1.0  0.70820  0.67090  0.14813  1.0000
  H   H46       1.0  0.96270  0.67090  0.51853  1.0000
  H   H47       1.0  0.96270  0.29180  0.48147  1.0000
  H   H48       1.0  0.32910  0.03730  0.81480  1.0000
  C   C79       1.0  0.01410  0.02800  0.33330  1.0000
  C   C80       1.0  0.97200  0.98610  0.99997  1.0000
  C   C81       1.0  0.01390  0.98590  0.66663  1.0000
  C   C82       1.0  0.08500  0.17000  0.33330  1.0000
  C   C83       1.0  0.83000  0.91500  0.99997  1.0000
  C   C84       1.0  0.08500  0.91500  0.66663  1.0000
  C   C85       1.0  0.01300  0.13200  0.30100  1.0000
  C   C86       1.0  0.86800  0.88100  0.96767  1.0000
  C   C87       1.0  0.86800  0.98700  0.03233  1.0000
  C   C88       1.0  0.11900  0.98700  0.63433  1.0000
  C   C89       1.0  0.11900  0.13200  0.36567  1.0000
  C   C90       1.0  0.01300  0.88100  0.69900  1.0000
  H   H49       1.0  0.98950  0.15500  0.27630  1.0000
  H   H50       1.0  0.84500  0.83450  0.94297  1.0000
  H   H51       1.0  0.84500  0.01050  0.05703  1.0000
  H   H52       1.0  0.16550  0.01050  0.60963  1.0000
  H   H53       1.0  0.16550  0.15500  0.39037  1.0000
  H   H54       1.0  0.98950  0.83450  0.72370  1.0000
  C   C91       1.0  0.98000  0.06400  0.30500  1.0000
  C   C92       1.0  0.93600  0.91600  0.97167  1.0000
  C   C93       1.0  0.93600  0.02000  0.02833  1.0000
  C   C94       1.0  0.08400  0.02000  0.63833  1.0000
  C   C95       1.0  0.08400  0.06400  0.36167  1.0000
  C   C96       1.0  0.98000  0.91600  0.69500  1.0000
  H   H55       1.0  0.93260  0.03870  0.28960  1.0000
  H   H56       1.0  0.96130  0.89390  0.95627  1.0000
  H   H57       1.0  0.96130  0.06740  0.04373  1.0000
  H   H58       1.0  0.10610  0.06740  0.62293  1.0000
  H   H59       1.0  0.10610  0.03870  0.37707  1.0000
  H   H60       1.0  0.93260  0.89390  0.71040  1.0000
  C   C97       1.0  0.00920  0.91350  0.32000  1.0000
  C   C98       1.0  0.08650  0.09570  0.98667  1.0000
  C   C99       1.0  0.08650  0.99080  0.01333  1.0000
  C   C100      1.0  0.90430  0.99080  0.65333  1.0000
  C   C101      1.0  0.90430  0.91350  0.34667  1.0000
  C   C102      1.0  0.00920  0.09570  0.68000  1.0000
  H   H61       1.0  0.05720  0.93750  0.31140  1.0000
  H   H62       1.0  0.06250  0.11970  0.97807  1.0000
  H   H63       1.0  0.06250  0.94280  0.02193  1.0000
  H   H64       1.0  0.88030  0.94280  0.64473  1.0000
  H   H65       1.0  0.88030  0.93750  0.35527  1.0000
  H   H66       1.0  0.05720  0.11970  0.68860  1.0000
  C   C103      1.0  0.86220  0.72400  0.33330  1.0000
  C   C104      1.0  0.27600  0.13820  0.99997  1.0000
  C   C105      1.0  0.86180  0.13780  0.66663  1.0000
  C   C106      1.0  0.97380  0.84300  0.31800  1.0000
  C   C107      1.0  0.15700  0.13080  0.98467  1.0000
  C   C108      1.0  0.15700  0.02620  0.01533  1.0000
  C   C109      1.0  0.86920  0.02620  0.65133  1.0000
  C   C110      1.0  0.86920  0.84300  0.34867  1.0000
  C   C111      1.0  0.97380  0.13080  0.68200  1.0000
  H   H67       1.0  0.99780  0.81910  0.30640  1.0000
  H   H68       1.0  0.18090  0.17870  0.97307  1.0000
  H   H69       1.0  0.18090  0.00220  0.02693  1.0000
  H   H70       1.0  0.82130  0.00220  0.63973  1.0000
  H   H71       1.0  0.82130  0.81910  0.36027  1.0000
  H   H72       1.0  0.99780  0.17870  0.69360  1.0000
  O   O13       1.0  0.89780  0.69560  0.33100  1.0000
  O   O14       1.0  0.30440  0.20220  0.99767  1.0000
  O   O15       1.0  0.30440  0.10220  0.00233  1.0000
  O   O16       1.0  0.79780  0.10220  0.66433  1.0000
  O   O17       1.0  0.79780  0.69560  0.33567  1.0000
  O   O18       1.0  0.89780  0.20220  0.66900  1.0000
  C   C112      1.0  0.97460  0.94900  0.33330  1.0000
  C   C113      1.0  0.05100  0.02560  0.99997  1.0000
  C   C114      1.0  0.97440  0.02540  0.66663  1.0000
  C   C115      1.0  0.90330  0.80700  0.33330  1.0000
  C   C116      1.0  0.19300  0.09630  0.99997  1.0000
  C   C117      1.0  0.90370  0.09670  0.66663  1.0000
  O   O19       1.0  0.78840  0.57920  0.17600  1.0000
  O   O20       1.0  0.42080  0.20920  0.84267  1.0000
  O   O21       1.0  0.42080  0.21160  0.15733  1.0000
  O   O22       1.0  0.79080  0.21160  0.50933  1.0000
  O   O23       1.0  0.79080  0.57920  0.49067  1.0000
  O   O24       1.0  0.78840  0.20920  0.82400  1.0000
