data_image0
_chemical_formula_structural       Ag4C2H2C2H2C4H2C2H2C2H2C2H2C2H2C2H2C4H2C2H2C2H2C2H2C4H2C2H2C2H2C2H2C2H2C2H2C4H2C2H2N8V10O26V2O8
_chemical_formula_sum              "Ag4 C48 H40 N8 V12 O34"
_cell_length_a       13.607
_cell_length_b       14.501
_cell_length_c       14.681
_cell_angle_alpha    96.101
_cell_angle_beta     99.893
_cell_angle_gamma    92.244

_space_group_name_H-M_alt    "P 1"
_space_group_IT_number       1

loop_
  _space_group_symop_operation_xyz
  'x, y, z'

loop_
  _atom_site_type_symbol
  _atom_site_label
  _atom_site_symmetry_multiplicity
  _atom_site_fract_x
  _atom_site_fract_y
  _atom_site_fract_z
  _atom_site_occupancy
  Ag  Ag1       1.0  0.49785  0.38117  0.40594  1.0000
  Ag  Ag2       1.0  0.50215  0.61883  0.59406  1.0000
  Ag  Ag3       1.0  0.50097  0.12016  0.09636  1.0000
  Ag  Ag4       1.0  0.49903  0.87984  0.90364  1.0000
  C   C1        1.0  0.30220  0.29360  0.27640  1.0000
  C   C2        1.0  0.69780  0.70640  0.72360  1.0000
  H   H1        1.0  0.34480  0.27870  0.23460  1.0000
  H   H2        1.0  0.65520  0.72130  0.76540  1.0000
  C   C3        1.0  0.20150  0.26950  0.24810  1.0000
  C   C4        1.0  0.79850  0.73050  0.75190  1.0000
  H   H3        1.0  0.17800  0.23780  0.18950  1.0000
  H   H4        1.0  0.82200  0.76220  0.81050  1.0000
  C   C5        1.0  0.13550  0.29330  0.30870  1.0000
  C   C6        1.0  0.86450  0.70670  0.69130  1.0000
  C   C7        1.0  0.17560  0.33700  0.39450  1.0000
  C   C8        1.0  0.82440  0.66300  0.60550  1.0000
  H   H5        1.0  0.13400  0.35310  0.43700  1.0000
  H   H6        1.0  0.86600  0.64690  0.56300  1.0000
  C   C9        1.0  0.27610  0.35750  0.41920  1.0000
  C   C10       1.0  0.72390  0.64250  0.58080  1.0000
  H   H7        1.0  0.30100  0.38650  0.47870  1.0000
  H   H8        1.0  0.69900  0.61350  0.52130  1.0000
  C   C11       1.0  0.02480  0.27120  0.28780  1.0000
  C   C12       1.0  0.97520  0.72880  0.71220  1.0000
  H   H9        1.0  0.99130  0.28990  0.33610  1.0000
  H   H10       1.0  0.00870  0.71010  0.66390  1.0000
  C   C13       1.0  0.97190  0.23290  0.21790  1.0000
  C   C14       1.0  0.02810  0.76710  0.78210  1.0000
  H   H11       1.0  0.00580  0.21370  0.16990  1.0000
  H   H12       1.0  0.99420  0.78630  0.83010  1.0000
  C   C15       1.0  0.69480  0.21050  0.22640  1.0000
  C   C16       1.0  0.30520  0.78950  0.77360  1.0000
  H   H13       1.0  0.65080  0.22720  0.26640  1.0000
  H   H14       1.0  0.34920  0.77280  0.73360  1.0000
  C   C17       1.0  0.79480  0.23550  0.25600  1.0000
  C   C18       1.0  0.20520  0.76450  0.74400  1.0000
  H   H15       1.0  0.81740  0.26780  0.31450  1.0000
  H   H16       1.0  0.18260  0.73220  0.68550  1.0000
  C   C19       1.0  0.86190  0.21140  0.19600  1.0000
  C   C20       1.0  0.13810  0.78860  0.80400  1.0000
  C   C21       1.0  0.82440  0.16460  0.11020  1.0000
  C   C22       1.0  0.17560  0.83540  0.88980  1.0000
  H   H17       1.0  0.86680  0.14880  0.06830  1.0000
  H   H18       1.0  0.13320  0.85120  0.93170  1.0000
  C   C23       1.0  0.72470  0.14140  0.08660  1.0000
  C   C24       1.0  0.27530  0.85860  0.91340  1.0000
  H   H19       1.0  0.70100  0.10850  0.02850  1.0000
  H   H20       1.0  0.29900  0.89150  0.97150  1.0000
  C   C25       1.0  0.28720  0.12660  0.98600  1.0000
  C   C26       1.0  0.71280  0.87340  0.01400  1.0000
  H   H21       1.0  0.32090  0.15770  0.94730  1.0000
  H   H22       1.0  0.67910  0.84230  0.05270  1.0000
  C   C27       1.0  0.18630  0.10540  0.95750  1.0000
  C   C28       1.0  0.81370  0.89460  0.04250  1.0000
  H   H23       1.0  0.15350  0.12480  0.90240  1.0000
  H   H24       1.0  0.84650  0.87520  0.09760  1.0000
  C   C29       1.0  0.13300  0.05500  0.01070  1.0000
  C   C30       1.0  0.86700  0.94500  0.98930  1.0000
  C   C31       1.0  0.18750  0.03270  0.09500  1.0000
  C   C32       1.0  0.81250  0.96730  0.90500  1.0000
  H   H25       1.0  0.15600  0.00020  0.13420  1.0000
  H   H26       1.0  0.84400  0.99980  0.86580  1.0000
  C   C33       1.0  0.28730  0.05900  0.11920  1.0000
  C   C34       1.0  0.71270  0.94100  0.88080  1.0000
  H   H27       1.0  0.32140  0.04430  0.17580  1.0000
  H   H28       1.0  0.67860  0.95570  0.82420  1.0000
  C   C35       1.0  0.02650  0.02670  0.97890  1.0000
  C   C36       1.0  0.97350  0.97330  0.02110  1.0000
  H   H29       1.0  0.99450  0.04830  0.92480  1.0000
  H   H30       1.0  0.00550  0.95170  0.07520  1.0000
  C   C37       1.0  0.97290  0.47120  0.51980  1.0000
  C   C38       1.0  0.02710  0.52880  0.48020  1.0000
  H   H31       1.0  0.00530  0.44600  0.57180  1.0000
  H   H32       1.0  0.99470  0.55400  0.42820  1.0000
  C   C39       1.0  0.71120  0.44490  0.38270  1.0000
  C   C40       1.0  0.28880  0.55510  0.61730  1.0000
  H   H33       1.0  0.67650  0.46250  0.32760  1.0000
  H   H34       1.0  0.32350  0.53750  0.67240  1.0000
  C   C41       1.0  0.81130  0.47020  0.40590  1.0000
  C   C42       1.0  0.18870  0.52980  0.59410  1.0000
  H   H35       1.0  0.84200  0.50410  0.36720  1.0000
  H   H36       1.0  0.15800  0.49590  0.63280  1.0000
  C   C43       1.0  0.86790  0.44470  0.48870  1.0000
  C   C44       1.0  0.13210  0.55530  0.51130  1.0000
  C   C45       1.0  0.81470  0.39160  0.53990  1.0000
  C   C46       1.0  0.18530  0.60840  0.46010  1.0000
  H   H37       1.0  0.84810  0.36980  0.59340  1.0000
  H   H38       1.0  0.15190  0.63020  0.40660  1.0000
  C   C47       1.0  0.71410  0.37100  0.51240  1.0000
  C   C48       1.0  0.28590  0.62900  0.48760  1.0000
  H   H39       1.0  0.68150  0.33740  0.55000  1.0000
  H   H40       1.0  0.31850  0.66260  0.45000  1.0000
  N   N1        1.0  0.34180  0.33710  0.35990  1.0000
  N   N2        1.0  0.65820  0.66290  0.64010  1.0000
  N   N3        1.0  0.65720  0.16380  0.14370  1.0000
  N   N4        1.0  0.34280  0.83620  0.85630  1.0000
  N   N5        1.0  0.33930  0.10530  0.06540  1.0000
  N   N6        1.0  0.66070  0.89470  0.93460  1.0000
  N   N7        1.0  0.65940  0.39630  0.43420  1.0000
  N   N8        1.0  0.34060  0.60370  0.56580  1.0000
  V   V1        1.0  0.51006  0.40320  0.69190  1.0000
  V   V2        1.0  0.48994  0.59680  0.30810  1.0000
  V   V3        1.0  0.34029  0.27130  0.77976  1.0000
  V   V4        1.0  0.65971  0.72870  0.22024  1.0000
  V   V5        1.0  0.09227  0.30565  0.71538  1.0000
  V   V6        1.0  0.90773  0.69435  0.28462  1.0000
  V   V7        1.0  0.66192  0.22622  0.71481  1.0000
  V   V8        1.0  0.33808  0.77378  0.28519  1.0000
  V   V9        1.0  0.90717  0.19367  0.79515  1.0000
  V   V10       1.0  0.09283  0.80633  0.20485  1.0000
  O   O1        1.0  0.49680  0.41130  0.58180  1.0000
  O   O2        1.0  0.50320  0.58870  0.41820  1.0000
  O   O3        1.0  0.52670  0.50830  0.74680  1.0000
  O   O4        1.0  0.47330  0.49170  0.25320  1.0000
  O   O5        1.0  0.39600  0.34530  0.71660  1.0000
  O   O6        1.0  0.60400  0.65470  0.28340  1.0000
  O   O7        1.0  0.61770  0.33980  0.72960  1.0000
  O   O8        1.0  0.38230  0.66020  0.27040  1.0000
  O   O9        1.0  0.35600  0.31540  0.88640  1.0000
  O   O10       1.0  0.64400  0.68460  0.11360  1.0000
  O   O11       1.0  0.21450  0.25370  0.73690  1.0000
  O   O12       1.0  0.78550  0.74630  0.26310  1.0000
  O   O13       1.0  0.10610  0.41780  0.73860  1.0000
  O   O14       1.0  0.89390  0.58220  0.26140  1.0000
  O   O15       1.0  0.04530  0.28300  0.60780  1.0000
  O   O16       1.0  0.95470  0.71700  0.39220  1.0000
  O   O17       1.0  0.61800  0.18290  0.61030  1.0000
  O   O18       1.0  0.38200  0.81710  0.38970  1.0000
  O   O19       1.0  0.79060  0.23040  0.72820  1.0000
  O   O20       1.0  0.20940  0.76960  0.27180  1.0000
  O   O21       1.0  0.89560  0.19780  0.90460  1.0000
  O   O22       1.0  0.10440  0.80220  0.09540  1.0000
  O   O23       1.0  0.92300  0.08560  0.76250  1.0000
  O   O24       1.0  0.07700  0.91440  0.23750  1.0000
  O   O25       1.0  0.01180  0.26580  0.78990  1.0000
  O   O26       1.0  0.98820  0.73420  0.21010  1.0000
  V   V11       1.0  0.50361  0.09863  0.81194  1.0000
  V   V12       1.0  0.49639  0.90137  0.18806  1.0000
  O   O27       1.0  0.51270  0.08800  0.92140  1.0000
  O   O28       1.0  0.48730  0.91200  0.07860  1.0000
  O   O29       1.0  0.48920  0.99500  0.75400  1.0000
  O   O30       1.0  0.51080  0.00500  0.24600  1.0000
  O   O31       1.0  0.39730  0.16450  0.77360  1.0000
  O   O32       1.0  0.60270  0.83550  0.22640  1.0000
  O   O33       1.0  0.61890  0.15880  0.79270  1.0000
  O   O34       1.0  0.38110  0.84120  0.20730  1.0000
