data_image0
_chemical_formula_structural       C2H2C2H2C2H2C8O8N2Cu
_chemical_formula_sum              "C14 H6 O8 N2 Cu1"
_cell_length_a       6.8656
_cell_length_b       8.1719
_cell_length_c       11.3542
_cell_angle_alpha    95.23
_cell_angle_beta     91.734
_cell_angle_gamma    102.113

_space_group_name_H-M_alt    "P 1"
_space_group_IT_number       1

loop_
  _space_group_symop_operation_xyz
  'x, y, z'

loop_
  _atom_site_type_symbol
  _atom_site_label
  _atom_site_symmetry_multiplicity
  _atom_site_fract_x
  _atom_site_fract_y
  _atom_site_fract_z
  _atom_site_occupancy
  C   C1        1.0  0.33530  0.79900  0.45806  1.0000
  C   C2        1.0  0.66470  0.20100  0.54194  1.0000
  H   H1        1.0  0.44810  0.86320  0.50020  1.0000
  H   H2        1.0  0.55190  0.13680  0.49980  1.0000
  C   C3        1.0  0.19280  0.87940  0.41635  1.0000
  C   C4        1.0  0.80720  0.12060  0.58365  1.0000
  H   H3        1.0  0.20760  0.99540  0.43030  1.0000
  H   H4        1.0  0.79240  0.00460  0.56970  1.0000
  C   C5        1.0  0.02770  0.78120  0.35317  1.0000
  C   C6        1.0  0.97230  0.21880  0.64683  1.0000
  H   H5        1.0  0.92950  0.83170  0.32370  1.0000
  H   H6        1.0  0.07050  0.16830  0.67630  1.0000
  C   C7        1.0  0.00660  0.60840  0.33319  1.0000
  C   C8        1.0  0.99340  0.39160  0.66681  1.0000
  C   C9        1.0  0.15450  0.53770  0.38009  1.0000
  C   C10       1.0  0.84550  0.46230  0.61991  1.0000
  C   C11       1.0  0.14970  0.35050  0.37217  1.0000
  C   C12       1.0  0.85030  0.64950  0.62783  1.0000
  C   C13       1.0  0.82640  0.50640  0.25872  1.0000
  C   C14       1.0  0.17360  0.49360  0.74128  1.0000
  O   O1        1.0  0.29524  0.31080  0.42774  1.0000
  O   O2        1.0  0.70476  0.68920  0.57226  1.0000
  O   O3        1.0  0.01240  0.25110  0.31586  1.0000
  O   O4        1.0  0.98760  0.74890  0.68414  1.0000
  O   O5        1.0  0.84770  0.48500  0.14994  1.0000
  O   O6        1.0  0.15230  0.51500  0.85006  1.0000
  O   O7        1.0  0.66914  0.46070  0.30949  1.0000
  O   O8        1.0  0.33086  0.53930  0.69051  1.0000
  N   N1        1.0  0.31700  0.63330  0.44009  1.0000
  N   N2        1.0  0.68300  0.36670  0.55991  1.0000
  Cu  Cu1       1.0  0.50000  0.50000  0.50000  1.0000
