data_image0
_chemical_formula_structural       Pt6K2O38N12C2H4C2H4C2H4C2H4C2H4C2H4C2H4C2H4C2H4C2H4C2H4C2H4
_chemical_formula_sum              "Pt6 K2 O38 N12 C24 H48"
_cell_length_a       8.2798
_cell_length_b       17.4801
_cell_length_c       18.1002
_cell_angle_alpha    95.484
_cell_angle_beta     100.669
_cell_angle_gamma    90.825

_space_group_name_H-M_alt    "P 1"
_space_group_IT_number       1

loop_
  _space_group_symop_operation_xyz
  'x, y, z'

loop_
  _atom_site_type_symbol
  _atom_site_label
  _atom_site_symmetry_multiplicity
  _atom_site_fract_x
  _atom_site_fract_y
  _atom_site_fract_z
  _atom_site_occupancy
  Pt  Pt1       1.0  0.62152  0.14913  0.18752  1.0000
  Pt  Pt2       1.0  0.37848  0.85087  0.81248  1.0000
  Pt  Pt3       1.0  0.71442  0.27360  0.07719  1.0000
  Pt  Pt4       1.0  0.28558  0.72640  0.92281  1.0000
  Pt  Pt5       1.0  0.63485  0.33080  0.24261  1.0000
  Pt  Pt6       1.0  0.36515  0.66920  0.75739  1.0000
  K   K1        1.0  0.25870  0.26334  0.07268  1.0000
  K   K2        1.0  0.74130  0.73666  0.92732  1.0000
  O   O1        1.0  0.57130  0.25360  0.15440  1.0000
  O   O2        1.0  0.42870  0.74640  0.84560  1.0000
  O   O3        1.0  0.67370  0.11290  0.08600  1.0000
  O   O4        1.0  0.32630  0.88710  0.91400  1.0000
  O   O5        1.0  0.72260  0.13630  0.97800  1.0000
  O   O6        1.0  0.27740  0.86370  0.02200  1.0000
  O   O7        1.0  0.72040  0.38610  0.10970  1.0000
  O   O8        1.0  0.27960  0.61390  0.89030  1.0000
  O   O9        1.0  0.69700  0.47670  0.19770  1.0000
  O   O10       1.0  0.30300  0.52330  0.80230  1.0000
  O   O11       1.0  0.56520  0.25360  0.30690  1.0000
  O   O12       1.0  0.43480  0.74640  0.69310  1.0000
  O   O13       1.0  0.50580  0.13830  0.32430  1.0000
  O   O14       1.0  0.49420  0.86170  0.67570  1.0000
  O   O15       1.0  0.55830  0.99470  0.21210  1.0000
  O   O16       1.0  0.44170  0.00530  0.78790  1.0000
  O   O17       1.0  0.81280  0.02590  0.24020  1.0000
  O   O18       1.0  0.18720  0.97410  0.75980  1.0000
  O   O19       1.0  0.81030  0.35920  0.96880  1.0000
  O   O20       1.0  0.18970  0.64080  0.03120  1.0000
  O   O21       1.0  0.96120  0.26180  0.99010  1.0000
  O   O22       1.0  0.03880  0.73820  0.00990  1.0000
  O   O23       1.0  0.58100  0.41370  0.37310  1.0000
  O   O24       1.0  0.41900  0.58630  0.62690  1.0000
  O   O25       1.0  0.82600  0.43570  0.35280  1.0000
  O   O26       1.0  0.17400  0.56430  0.64720  1.0000
  O   O27       1.0  0.16650  0.11080  0.07740  1.0000
  O   O28       1.0  0.83350  0.88920  0.92260  1.0000
  O   O29       1.0  0.31920  0.15640  0.95770  1.0000
  O   O30       1.0  0.68080  0.84360  0.04230  1.0000
  O   O31       1.0  0.31330  0.31190  0.93470  1.0000
  O   O32       1.0  0.68670  0.68810  0.06530  1.0000
  O   O33       1.0  0.28870  0.42110  0.05920  1.0000
  O   O34       1.0  0.71130  0.57890  0.94080  1.0000
  O   O35       1.0  0.15310  0.37000  0.17950  1.0000
  O   O36       1.0  0.84690  0.63000  0.82050  1.0000
  O   O37       1.0  0.18330  0.21430  0.20770  1.0000
  O   O38       1.0  0.81670  0.78570  0.79230  1.0000
  N   N1        1.0  0.70330  0.16840  0.04380  1.0000
  N   N2        1.0  0.29670  0.83160  0.95620  1.0000
  N   N3        1.0  0.69700  0.40850  0.17910  1.0000
  N   N4        1.0  0.30300  0.59150  0.82090  1.0000
  N   N5        1.0  0.56200  0.18170  0.28270  1.0000
  N   N6        1.0  0.43800  0.81830  0.71730  1.0000
  N   N7        1.0  0.67200  0.04530  0.21690  1.0000
  N   N8        1.0  0.32800  0.95470  0.78310  1.0000
  N   N9        1.0  0.84680  0.30060  0.00160  1.0000
  N   N10       1.0  0.15320  0.69940  0.99840  1.0000
  N   N11       1.0  0.68900  0.40550  0.33450  1.0000
  N   N12       1.0  0.31100  0.59450  0.66550  1.0000
  C   C1        1.0  0.23300  0.05800  0.02950  1.0000
  C   C2        1.0  0.76700  0.94200  0.97050  1.0000
  H   H1        1.0  0.17641  0.00717  0.02577  1.0000
  H   H2        1.0  0.82359  0.99283  0.97423  1.0000
  H   H3        1.0  0.35135  0.05230  0.04971  1.0000
  H   H4        1.0  0.64865  0.94770  0.95029  1.0000
  C   C3        1.0  0.21100  0.08810  0.94940  1.0000
  C   C4        1.0  0.78900  0.91190  0.05060  1.0000
  H   H5        1.0  0.24126  0.04835  0.91219  1.0000
  H   H6        1.0  0.75874  0.95165  0.08781  1.0000
  H   H7        1.0  0.09492  0.10139  0.93208  1.0000
  H   H8        1.0  0.90508  0.89861  0.06792  1.0000
  C   C5        1.0  0.31400  0.18130  0.88520  1.0000
  C   C6        1.0  0.68600  0.81870  0.11480  1.0000
  H   H9        1.0  0.19886  0.18472  0.85922  1.0000
  H   H10       1.0  0.80114  0.81528  0.14078  1.0000
  H   H11       1.0  0.36967  0.14405  0.85427  1.0000
  H   H12       1.0  0.63033  0.85595  0.14573  1.0000
  C   C7        1.0  0.40100  0.25940  0.89440  1.0000
  C   C8        1.0  0.59900  0.74060  0.10560  1.0000
  H   H13       1.0  0.51517  0.25649  0.92229  1.0000
  H   H14       1.0  0.48483  0.74351  0.07771  1.0000
  H   H15       1.0  0.40524  0.27656  0.84417  1.0000
  H   H16       1.0  0.59476  0.72344  0.15583  1.0000
  C   C9        1.0  0.38200  0.38740  0.94200  1.0000
  C   C10       1.0  0.61800  0.61260  0.05800  1.0000
  H   H17       1.0  0.38638  0.40416  0.89159  1.0000
  H   H18       1.0  0.61362  0.59584  0.10841  1.0000
  H   H19       1.0  0.49545  0.38957  0.97193  1.0000
  H   H20       1.0  0.50455  0.61043  0.02807  1.0000
  C   C11       1.0  0.27200  0.43880  0.98190  1.0000
  C   C12       1.0  0.72800  0.56120  0.01810  1.0000
  H   H21       1.0  0.30343  0.49350  0.98079  1.0000
  H   H22       1.0  0.69657  0.50650  0.01921  1.0000
  H   H23       1.0  0.15603  0.43032  0.95584  1.0000
  H   H24       1.0  0.84397  0.56968  0.04416  1.0000
  C   C13       1.0  0.18600  0.46470  0.09700  1.0000
  C   C14       1.0  0.81400  0.53530  0.90300  1.0000
  H   H25       1.0  0.07055  0.45407  0.07158  1.0000
  H   H26       1.0  0.92945  0.54593  0.92842  1.0000
  H   H27       1.0  0.21225  0.52001  0.09594  1.0000
  H   H28       1.0  0.78775  0.47999  0.90406  1.0000
  C   C15       1.0  0.20800  0.44610  0.17640  1.0000
  C   C16       1.0  0.79200  0.55390  0.82360  1.0000
  H   H29       1.0  0.32543  0.45257  0.20036  1.0000
  H   H30       1.0  0.67457  0.54743  0.79964  1.0000
  H   H31       1.0  0.14484  0.48214  0.20482  1.0000
  H   H32       1.0  0.85516  0.51786  0.79518  1.0000
  C   C17       1.0  0.18100  0.34780  0.25280  1.0000
  C   C18       1.0  0.81900  0.65220  0.74720  1.0000
  H   H33       1.0  0.13477  0.38586  0.28650  1.0000
  H   H34       1.0  0.86523  0.61414  0.71350  1.0000
  H   H35       1.0  0.30099  0.34630  0.27188  1.0000
  H   H36       1.0  0.69901  0.65370  0.72812  1.0000
  C   C19       1.0  0.10700  0.27410  0.25350  1.0000
  C   C20       1.0  0.89300  0.72590  0.74650  1.0000
  H   H37       1.0  0.98810  0.27529  0.23286  1.0000
  H   H38       1.0  0.01190  0.72471  0.76714  1.0000
  H   H39       1.0  0.12090  0.26085  0.30621  1.0000
  H   H40       1.0  0.87910  0.73915  0.69379  1.0000
  C   C21       1.0  0.09500  0.13980  0.19510  1.0000
  C   C22       1.0  0.90500  0.86020  0.80490  1.0000
  H   H41       1.0  0.97994  0.14597  0.16936  1.0000
  H   H42       1.0  0.02006  0.85403  0.83064  1.0000
  H   H43       1.0  0.09177  0.11994  0.24431  1.0000
  H   H44       1.0  0.90823  0.88006  0.75569  1.0000
  C   C23       1.0  0.17800  0.08290  0.14720  1.0000
  C   C24       1.0  0.82200  0.91710  0.85280  1.0000
  H   H45       1.0  0.29473  0.07836  0.17102  1.0000
  H   H46       1.0  0.70527  0.92164  0.82898  1.0000
  H   H47       1.0  0.12268  0.03152  0.14166  1.0000
  H   H48       1.0  0.87732  0.96848  0.85834  1.0000
