data_image0
_chemical_formula_structural       Cr2Na2O24C4H4C4H4C4H4
_chemical_formula_sum              "Cr2 Na2 O24 C12 H12"
_cell_length_a       9.3105
_cell_length_b       8.4501
_cell_length_c       12.2281
_cell_angle_alpha    90
_cell_angle_beta     92.147
_cell_angle_gamma    90

_space_group_name_H-M_alt    "P 1"
_space_group_IT_number       1

loop_
  _space_group_symop_operation_xyz
  'x, y, z'

loop_
  _atom_site_type_symbol
  _atom_site_label
  _atom_site_symmetry_multiplicity
  _atom_site_fract_x
  _atom_site_fract_y
  _atom_site_fract_z
  _atom_site_occupancy
  Cr  Cr1       1.0  0.25000  0.73107  0.75000  1.0000
  Cr  Cr2       1.0  0.75000  0.26893  0.25000  1.0000
  Na  Na1       1.0  0.75000  0.22779  0.75000  1.0000
  Na  Na2       1.0  0.25000  0.77221  0.25000  1.0000
  O   O1        1.0  0.11294  0.57562  0.69004  1.0000
  O   O2        1.0  0.38706  0.57562  0.80996  1.0000
  O   O3        1.0  0.88706  0.42438  0.30996  1.0000
  O   O4        1.0  0.61294  0.42438  0.19004  1.0000
  O   O5        1.0  0.92771  0.41169  0.69857  1.0000
  O   O6        1.0  0.57229  0.41169  0.80143  1.0000
  O   O7        1.0  0.07229  0.58831  0.30143  1.0000
  O   O8        1.0  0.42771  0.58831  0.19857  1.0000
  O   O9        1.0  0.34748  0.73525  0.60965  1.0000
  O   O10       1.0  0.15252  0.73525  0.89035  1.0000
  O   O11       1.0  0.65252  0.26475  0.39035  1.0000
  O   O12       1.0  0.84748  0.26475  0.10965  1.0000
  O   O13       1.0  0.35489  0.75945  0.43024  1.0000
  O   O14       1.0  0.14511  0.75945  0.06976  1.0000
  O   O15       1.0  0.64511  0.24055  0.56976  1.0000
  O   O16       1.0  0.85489  0.24055  0.93024  1.0000
  O   O17       1.0  0.37976  0.90367  0.80229  1.0000
  O   O18       1.0  0.12024  0.90367  0.69771  1.0000
  O   O19       1.0  0.62024  0.09633  0.19771  1.0000
  O   O20       1.0  0.87976  0.09633  0.30229  1.0000
  O   O21       1.0  0.57872  0.04467  0.82050  1.0000
  O   O22       1.0  0.92128  0.04467  0.67950  1.0000
  O   O23       1.0  0.42128  0.95533  0.17950  1.0000
  O   O24       1.0  0.07872  0.95533  0.32050  1.0000
  C   C1        1.0  0.02781  0.48525  0.74073  1.0000
  C   C2        1.0  0.47219  0.48525  0.75927  1.0000
  C   C3        1.0  0.97219  0.51475  0.25927  1.0000
  C   C4        1.0  0.52781  0.51475  0.24073  1.0000
  H   H1        1.0  0.04350  0.47480  0.81590  1.0000
  H   H2        1.0  0.45650  0.47480  0.68410  1.0000
  H   H3        1.0  0.95650  0.52520  0.18410  1.0000
  H   H4        1.0  0.54350  0.52520  0.31590  1.0000
  C   C5        1.0  0.28788  0.75162  0.51520  1.0000
  C   C6        1.0  0.21212  0.75162  0.98480  1.0000
  C   C7        1.0  0.71212  0.24838  0.48480  1.0000
  C   C8        1.0  0.78788  0.24838  0.01520  1.0000
  H   H5        1.0  0.18820  0.75810  0.50980  1.0000
  H   H6        1.0  0.31180  0.75810  0.99020  1.0000
  H   H7        1.0  0.81180  0.24190  0.49020  1.0000
  H   H8        1.0  0.68820  0.24190  0.00980  1.0000
  C   C9        1.0  0.51269  0.92744  0.78658  1.0000
  C   C10       1.0  0.98731  0.92744  0.71342  1.0000
  C   C11       1.0  0.48731  0.07256  0.21342  1.0000
  C   C12       1.0  0.01269  0.07256  0.28658  1.0000
  H   H9        1.0  0.56230  0.85210  0.74740  1.0000
  H   H10       1.0  0.93770  0.85210  0.75260  1.0000
  H   H11       1.0  0.43770  0.14790  0.25260  1.0000
  H   H12       1.0  0.06230  0.14790  0.24740  1.0000
