data_image0
_chemical_formula_structural       Na4Al4O48C4H4C4H4C4H4C4H4C4H4C4H4
_chemical_formula_sum              "Na4 Al4 O48 C24 H24"
_cell_length_a       12.1711
_cell_length_b       12.3854
_cell_length_c       12.6588
_cell_angle_alpha    90
_cell_angle_beta     90.455
_cell_angle_gamma    90

_space_group_name_H-M_alt    "P 1"
_space_group_IT_number       1

loop_
  _space_group_symop_operation_xyz
  'x, y, z'

loop_
  _atom_site_type_symbol
  _atom_site_label
  _atom_site_symmetry_multiplicity
  _atom_site_fract_x
  _atom_site_fract_y
  _atom_site_fract_z
  _atom_site_occupancy
  Na  Na1       1.0  0.24648  0.76066  0.98910  1.0000
  Na  Na2       1.0  0.25352  0.26066  0.51090  1.0000
  Na  Na3       1.0  0.75352  0.23934  0.01090  1.0000
  Na  Na4       1.0  0.74648  0.73934  0.48910  1.0000
  Al  Al1       1.0  0.24742  0.75722  0.49408  1.0000
  Al  Al2       1.0  0.25258  0.25722  0.00592  1.0000
  Al  Al3       1.0  0.75258  0.24278  0.50592  1.0000
  Al  Al4       1.0  0.74742  0.74278  0.99408  1.0000
  O   O1        1.0  0.29520  0.74284  0.63484  1.0000
  O   O2        1.0  0.20480  0.24284  0.86516  1.0000
  O   O3        1.0  0.70480  0.25716  0.36516  1.0000
  O   O4        1.0  0.79520  0.75716  0.13484  1.0000
  O   O5        1.0  0.29040  0.75161  0.80923  1.0000
  O   O6        1.0  0.20960  0.25161  0.69077  1.0000
  O   O7        1.0  0.70960  0.24839  0.19077  1.0000
  O   O8        1.0  0.79040  0.74839  0.30923  1.0000
  O   O9        1.0  0.29369  0.61163  0.46901  1.0000
  O   O10       1.0  0.20631  0.11163  0.03099  1.0000
  O   O11       1.0  0.70631  0.38837  0.53099  1.0000
  O   O12       1.0  0.79369  0.88837  0.96901  1.0000
  O   O13       1.0  0.32698  0.43980  0.50562  1.0000
  O   O14       1.0  0.17302  0.93980  0.99438  1.0000
  O   O15       1.0  0.67302  0.56020  0.49438  1.0000
  O   O16       1.0  0.82698  0.06020  0.00562  1.0000
  O   O17       1.0  0.19901  0.75778  0.35104  1.0000
  O   O18       1.0  0.30099  0.25778  0.14896  1.0000
  O   O19       1.0  0.80099  0.24222  0.64896  1.0000
  O   O20       1.0  0.69901  0.74222  0.85104  1.0000
  O   O21       1.0  0.21013  0.76082  0.17663  1.0000
  O   O22       1.0  0.28987  0.26082  0.32337  1.0000
  O   O23       1.0  0.78987  0.23918  0.82337  1.0000
  O   O24       1.0  0.71013  0.73918  0.67663  1.0000
  O   O25       1.0  0.19430  0.89849  0.51829  1.0000
  O   O26       1.0  0.30570  0.39849  0.98171  1.0000
  O   O27       1.0  0.80570  0.10151  0.48171  1.0000
  O   O28       1.0  0.69430  0.60151  0.01829  1.0000
  O   O29       1.0  0.19372  0.07766  0.52367  1.0000
  O   O30       1.0  0.30628  0.57766  0.97633  1.0000
  O   O31       1.0  0.80628  0.92234  0.47633  1.0000
  O   O32       1.0  0.69372  0.42234  0.02367  1.0000
  O   O33       1.0  0.38668  0.80948  0.45879  1.0000
  O   O34       1.0  0.11332  0.30948  0.04121  1.0000
  O   O35       1.0  0.61332  0.19052  0.54121  1.0000
  O   O36       1.0  0.88668  0.69052  0.95879  1.0000
  O   O37       1.0  0.56763  0.80847  0.48281  1.0000
  O   O38       1.0  0.93237  0.30847  0.01719  1.0000
  O   O39       1.0  0.43237  0.19153  0.51719  1.0000
  O   O40       1.0  0.06763  0.69153  0.98281  1.0000
  O   O41       1.0  0.10796  0.70266  0.53341  1.0000
  O   O42       1.0  0.39204  0.20266  0.96659  1.0000
  O   O43       1.0  0.89204  0.29734  0.46659  1.0000
  O   O44       1.0  0.60796  0.79734  0.03341  1.0000
  O   O45       1.0  0.92834  0.67967  0.52720  1.0000
  O   O46       1.0  0.57166  0.17967  0.97280  1.0000
  O   O47       1.0  0.07166  0.32033  0.47280  1.0000
  O   O48       1.0  0.42834  0.82033  0.02720  1.0000
  C   C1        1.0  0.25601  0.77699  0.72201  1.0000
  C   C2        1.0  0.24399  0.27699  0.77799  1.0000
  C   C3        1.0  0.74399  0.22301  0.27799  1.0000
  C   C4        1.0  0.75601  0.72301  0.22201  1.0000
  H   H1        1.0  0.19700  0.82460  0.71870  1.0000
  H   H2        1.0  0.30300  0.32460  0.78130  1.0000
  H   H3        1.0  0.80300  0.17540  0.28130  1.0000
  H   H4        1.0  0.69700  0.67540  0.21870  1.0000
  C   C5        1.0  0.28553  0.52780  0.52722  1.0000
  C   C6        1.0  0.21447  0.02780  0.97278  1.0000
  C   C7        1.0  0.71447  0.47220  0.47278  1.0000
  C   C8        1.0  0.78553  0.97220  0.02722  1.0000
  H   H5        1.0  0.24600  0.53350  0.58950  1.0000
  H   H6        1.0  0.25400  0.03350  0.91050  1.0000
  H   H7        1.0  0.75400  0.46650  0.41050  1.0000
  H   H8        1.0  0.74600  0.96650  0.08950  1.0000
  C   C9        1.0  0.24118  0.78893  0.26523  1.0000
  C   C10       1.0  0.25882  0.28893  0.23477  1.0000
  C   C11       1.0  0.75882  0.21107  0.73477  1.0000
  C   C12       1.0  0.74118  0.71107  0.76523  1.0000
  H   H9        1.0  0.30010  0.83660  0.26940  1.0000
  H   H10       1.0  0.19990  0.33660  0.23060  1.0000
  H   H11       1.0  0.69990  0.16340  0.73060  1.0000
  H   H12       1.0  0.80010  0.66340  0.76940  1.0000
  C   C13       1.0  0.23136  0.99080  0.49267  1.0000
  C   C14       1.0  0.26864  0.49080  0.00733  1.0000
  C   C15       1.0  0.76864  0.00920  0.50733  1.0000
  C   C16       1.0  0.73136  0.50920  0.99267  1.0000
  H   H13       1.0  0.29110  0.99300  0.44740  1.0000
  H   H14       1.0  0.20890  0.49300  0.05260  1.0000
  H   H15       1.0  0.70890  0.00700  0.55260  1.0000
  H   H16       1.0  0.79110  0.50700  0.94740  1.0000
  C   C17       1.0  0.48050  0.76316  0.46695  1.0000
  C   C18       1.0  0.01950  0.26316  0.03305  1.0000
  C   C19       1.0  0.51950  0.23684  0.53305  1.0000
  C   C20       1.0  0.98050  0.73684  0.96695  1.0000
  H   H17       1.0  0.48200  0.68840  0.46020  1.0000
  H   H18       1.0  0.01800  0.18840  0.03980  1.0000
  H   H19       1.0  0.51800  0.31160  0.53980  1.0000
  H   H20       1.0  0.98200  0.81160  0.96020  1.0000
  C   C21       1.0  0.01378  0.72102  0.49423  1.0000
  C   C22       1.0  0.48622  0.22102  0.00577  1.0000
  C   C23       1.0  0.98622  0.27898  0.50577  1.0000
  C   C24       1.0  0.51378  0.77898  0.99423  1.0000
  H   H21       1.0  0.00860  0.76840  0.43740  1.0000
  H   H22       1.0  0.49140  0.26840  0.06260  1.0000
  H   H23       1.0  0.99140  0.23160  0.56260  1.0000
  H   H24       1.0  0.50860  0.73160  0.93740  1.0000
