data_image0
_chemical_formula_structural       Eu4N4C8H4C8H4C12H4C8H4C4N4C8O12C4O8C4O12H8O4
_chemical_formula_sum              "Eu4 N8 C56 H24 O36"
_cell_length_a       8.2797
_cell_length_b       16.7532
_cell_length_c       12.7089
_cell_angle_alpha    90
_cell_angle_beta     97.578
_cell_angle_gamma    90

_space_group_name_H-M_alt    "P 1"
_space_group_IT_number       1

loop_
  _space_group_symop_operation_xyz
  'x, y, z'

loop_
  _atom_site_type_symbol
  _atom_site_label
  _atom_site_symmetry_multiplicity
  _atom_site_fract_x
  _atom_site_fract_y
  _atom_site_fract_z
  _atom_site_occupancy
  Eu  Eu1       1.0  0.41374  0.72823  0.41099  1.0000
  Eu  Eu2       1.0  0.58626  0.22823  0.08901  1.0000
  Eu  Eu3       1.0  0.58626  0.27177  0.58901  1.0000
  Eu  Eu4       1.0  0.41374  0.77177  0.91099  1.0000
  N   N1        1.0  0.43650  0.61344  0.27894  1.0000
  N   N2        1.0  0.56350  0.11344  0.22106  1.0000
  N   N3        1.0  0.56350  0.38656  0.72106  1.0000
  N   N4        1.0  0.43650  0.88656  0.77894  1.0000
  C   C1        1.0  0.50520  0.63325  0.19297  1.0000
  C   C2        1.0  0.49480  0.13325  0.30703  1.0000
  C   C3        1.0  0.49480  0.36675  0.80703  1.0000
  C   C4        1.0  0.50520  0.86675  0.69297  1.0000
  C   C5        1.0  0.57190  0.57731  0.13180  1.0000
  C   C6        1.0  0.42810  0.07731  0.36820  1.0000
  C   C7        1.0  0.42810  0.42269  0.86820  1.0000
  C   C8        1.0  0.57190  0.92269  0.63180  1.0000
  H   H1        1.0  0.62240  0.59340  0.07230  1.0000
  H   H2        1.0  0.37760  0.09340  0.42770  1.0000
  H   H3        1.0  0.37760  0.40660  0.92770  1.0000
  H   H4        1.0  0.62240  0.90660  0.57230  1.0000
  C   C9        1.0  0.56400  0.49719  0.15828  1.0000
  C   C10       1.0  0.43600  0.99719  0.34172  1.0000
  C   C11       1.0  0.43600  0.50281  0.84172  1.0000
  C   C12       1.0  0.56400  0.00281  0.65828  1.0000
  C   C13       1.0  0.48400  0.47539  0.24390  1.0000
  C   C14       1.0  0.51600  0.97539  0.25610  1.0000
  C   C15       1.0  0.51600  0.52461  0.75610  1.0000
  C   C16       1.0  0.48400  0.02461  0.74390  1.0000
  H   H5        1.0  0.47130  0.42080  0.26120  1.0000
  H   H6        1.0  0.52870  0.92080  0.23880  1.0000
  H   H7        1.0  0.52870  0.57920  0.73880  1.0000
  H   H8        1.0  0.47130  0.07920  0.76120  1.0000
  C   C17       1.0  0.42340  0.53547  0.30329  1.0000
  C   C18       1.0  0.57660  0.03547  0.19671  1.0000
  C   C19       1.0  0.57660  0.46453  0.69671  1.0000
  C   C20       1.0  0.42340  0.96453  0.80329  1.0000
  C   C21       1.0  0.34200  0.52134  0.40040  1.0000
  C   C22       1.0  0.65800  0.02134  0.09960  1.0000
  C   C23       1.0  0.65800  0.47866  0.59960  1.0000
  C   C24       1.0  0.34200  0.97866  0.90040  1.0000
  C   C25       1.0  0.30970  0.44593  0.43826  1.0000
  C   C26       1.0  0.69030  0.94593  0.06174  1.0000
  C   C27       1.0  0.69030  0.55407  0.56174  1.0000
  C   C28       1.0  0.30970  0.05407  0.93826  1.0000
  H   H9        1.0  0.34110  0.39920  0.40380  1.0000
  H   H10       1.0  0.65890  0.89920  0.09620  1.0000
  H   H11       1.0  0.65890  0.60080  0.59620  1.0000
  H   H12       1.0  0.34110  0.10080  0.90380  1.0000
  C   C29       1.0  0.22990  0.44049  0.52833  1.0000
  C   C30       1.0  0.77010  0.94049  0.97167  1.0000
  C   C31       1.0  0.77010  0.55951  0.47167  1.0000
  C   C32       1.0  0.22990  0.05951  0.02833  1.0000
  C   C33       1.0  0.17940  0.51001  0.57301  1.0000
  C   C34       1.0  0.82060  0.01001  0.92699  1.0000
  C   C35       1.0  0.82060  0.48999  0.42699  1.0000
  C   C36       1.0  0.17940  0.98999  0.07301  1.0000
  H   H13       1.0  0.11730  0.50780  0.63070  1.0000
  H   H14       1.0  0.88270  0.00780  0.86930  1.0000
  H   H15       1.0  0.88270  0.49220  0.36930  1.0000
  H   H16       1.0  0.11730  0.99220  0.13070  1.0000
  C   C37       1.0  0.22050  0.58249  0.53263  1.0000
  C   C38       1.0  0.77950  0.08249  0.96737  1.0000
  C   C39       1.0  0.77950  0.41751  0.46737  1.0000
  C   C40       1.0  0.22050  0.91751  0.03263  1.0000
  N   N5        1.0  0.30420  0.58875  0.44972  1.0000
  N   N6        1.0  0.69580  0.08875  0.05028  1.0000
  N   N7        1.0  0.69580  0.41125  0.55028  1.0000
  N   N8        1.0  0.30420  0.91125  0.94972  1.0000
  C   C41       1.0  0.17040  0.66108  0.57848  1.0000
  C   C42       1.0  0.82960  0.16108  0.92152  1.0000
  C   C43       1.0  0.82960  0.33892  0.42152  1.0000
  C   C44       1.0  0.17040  0.83892  0.07848  1.0000
  C   C45       1.0  0.20200  0.36085  0.58006  1.0000
  C   C46       1.0  0.79800  0.86085  0.91994  1.0000
  C   C47       1.0  0.79800  0.63915  0.41994  1.0000
  C   C48       1.0  0.20200  0.13915  0.08006  1.0000
  O   O1        1.0  0.21950  0.72378  0.53564  1.0000
  O   O2        1.0  0.78050  0.22378  0.96436  1.0000
  O   O3        1.0  0.78050  0.27622  0.46436  1.0000
  O   O4        1.0  0.21950  0.77622  0.03564  1.0000
  O   O5        1.0  0.08520  0.65840  0.65112  1.0000
  O   O6        1.0  0.91480  0.15840  0.84888  1.0000
  O   O7        1.0  0.91480  0.34160  0.34888  1.0000
  O   O8        1.0  0.08520  0.84160  0.15112  1.0000
  O   O9        1.0  0.31290  0.30942  0.57846  1.0000
  O   O10       1.0  0.68710  0.80942  0.92154  1.0000
  O   O11       1.0  0.68710  0.69058  0.42154  1.0000
  O   O12       1.0  0.31290  0.19058  0.07846  1.0000
  C   C49       1.0  0.64930  0.43663  0.09630  1.0000
  C   C50       1.0  0.35070  0.93663  0.40370  1.0000
  C   C51       1.0  0.35070  0.56337  0.90370  1.0000
  C   C52       1.0  0.64930  0.06337  0.59630  1.0000
  O   O13       1.0  0.59780  0.36600  0.09413  1.0000
  O   O14       1.0  0.40220  0.86600  0.40587  1.0000
  O   O15       1.0  0.40220  0.63400  0.90587  1.0000
  O   O16       1.0  0.59780  0.13400  0.59413  1.0000
  O   O17       1.0  0.76280  0.46231  0.05073  1.0000
  O   O18       1.0  0.23720  0.96231  0.44927  1.0000
  O   O19       1.0  0.23720  0.53769  0.94927  1.0000
  O   O20       1.0  0.76280  0.03769  0.55073  1.0000
  C   C53       1.0  0.51220  0.72205  0.17005  1.0000
  C   C54       1.0  0.48780  0.22205  0.32995  1.0000
  C   C55       1.0  0.48780  0.27795  0.82995  1.0000
  C   C56       1.0  0.51220  0.77795  0.67005  1.0000
  O   O21       1.0  0.55320  0.74221  0.08233  1.0000
  O   O22       1.0  0.44680  0.24221  0.41767  1.0000
  O   O23       1.0  0.44680  0.25779  0.91767  1.0000
  O   O24       1.0  0.55320  0.75779  0.58233  1.0000
  O   O25       1.0  0.47680  0.76886  0.24036  1.0000
  O   O26       1.0  0.52320  0.26886  0.25964  1.0000
  O   O27       1.0  0.52320  0.23114  0.75964  1.0000
  O   O28       1.0  0.47680  0.73114  0.74036  1.0000
  O   O29       1.0  0.14840  0.74124  0.31295  1.0000
  O   O30       1.0  0.85160  0.24124  0.18705  1.0000
  O   O31       1.0  0.85160  0.25876  0.68705  1.0000
  O   O32       1.0  0.14840  0.75876  0.81295  1.0000
  H   H17       1.0  0.06800  0.71710  0.32600  1.0000
  H   H18       1.0  0.93200  0.21710  0.17400  1.0000
  H   H19       1.0  0.93200  0.28290  0.67400  1.0000
  H   H20       1.0  0.06800  0.78290  0.82600  1.0000
  H   H21       1.0  0.12000  0.76830  0.26000  1.0000
  H   H22       1.0  0.88000  0.26830  0.24000  1.0000
  H   H23       1.0  0.88000  0.23170  0.74000  1.0000
  H   H24       1.0  0.12000  0.73170  0.76000  1.0000
  O   O33       1.0  0.07590  0.35387  0.62158  1.0000
  O   O34       1.0  0.92410  0.85387  0.87842  1.0000
  O   O35       1.0  0.92410  0.64613  0.37842  1.0000
  O   O36       1.0  0.07590  0.14613  0.12158  1.0000
