data_image0
_chemical_formula_structural       Sc2K4S12O24N12C16H8C4H8C4H8C4H8C4H8C4H8C4H8C4H8C4H8C4H8C4H8C4H8
_chemical_formula_sum              "Sc2 K4 S12 O24 N12 C60 H96"
_cell_length_a       14.3696
_cell_length_b       15.2119
_cell_length_c       20.309
_cell_angle_alpha    90
_cell_angle_beta     94.89
_cell_angle_gamma    90

_space_group_name_H-M_alt    "P 1"
_space_group_IT_number       1

loop_
  _space_group_symop_operation_xyz
  'x, y, z'

loop_
  _atom_site_type_symbol
  _atom_site_label
  _atom_site_symmetry_multiplicity
  _atom_site_fract_x
  _atom_site_fract_y
  _atom_site_fract_z
  _atom_site_occupancy
  Sc  Sc1       1.0  0.50000  0.50000  0.50000  1.0000
  Sc  Sc2       1.0  0.50000  0.00000  0.00000  1.0000
  K   K1        1.0  0.46005  0.07555  0.58060  1.0000
  K   K2        1.0  0.53995  0.57555  0.91940  1.0000
  K   K3        1.0  0.53995  0.92445  0.41940  1.0000
  K   K4        1.0  0.46005  0.42445  0.08060  1.0000
  S   S1        1.0  0.22150  0.39602  0.36308  1.0000
  S   S2        1.0  0.77850  0.89602  0.13692  1.0000
  S   S3        1.0  0.77850  0.60398  0.63692  1.0000
  S   S4        1.0  0.22150  0.10398  0.86308  1.0000
  S   S5        1.0  0.70348  0.33361  0.36340  1.0000
  S   S6        1.0  0.29652  0.83361  0.13660  1.0000
  S   S7        1.0  0.29652  0.66639  0.63660  1.0000
  S   S8        1.0  0.70348  0.16639  0.86340  1.0000
  S   S9        1.0  0.48731  0.26613  0.66755  1.0000
  S   S10       1.0  0.51269  0.76613  0.83245  1.0000
  S   S11       1.0  0.51269  0.73387  0.33245  1.0000
  S   S12       1.0  0.48731  0.23387  0.16755  1.0000
  O   O1        1.0  0.64810  0.09780  0.58550  1.0000
  O   O2        1.0  0.35190  0.59780  0.91450  1.0000
  O   O3        1.0  0.35190  0.90220  0.41450  1.0000
  O   O4        1.0  0.64810  0.40220  0.08550  1.0000
  O   O5        1.0  0.56980  0.01790  0.69280  1.0000
  O   O6        1.0  0.43020  0.51790  0.80720  1.0000
  O   O7        1.0  0.43020  0.98210  0.30720  1.0000
  O   O8        1.0  0.56980  0.48210  0.19280  1.0000
  O   O9        1.0  0.37330  0.01170  0.68630  1.0000
  O   O10       1.0  0.62670  0.51170  0.81370  1.0000
  O   O11       1.0  0.62670  0.98830  0.31370  1.0000
  O   O12       1.0  0.37330  0.48830  0.18630  1.0000
  O   O13       1.0  0.27960  0.11150  0.58960  1.0000
  O   O14       1.0  0.72040  0.61150  0.91040  1.0000
  O   O15       1.0  0.72040  0.88850  0.41040  1.0000
  O   O16       1.0  0.27960  0.38850  0.08960  1.0000
  O   O17       1.0  0.35600  0.16070  0.47420  1.0000
  O   O18       1.0  0.64400  0.66070  0.02580  1.0000
  O   O19       1.0  0.64400  0.83930  0.52580  1.0000
  O   O20       1.0  0.35600  0.33930  0.97420  1.0000
  O   O21       1.0  0.54550  0.10740  0.45880  1.0000
  O   O22       1.0  0.45450  0.60740  0.04120  1.0000
  O   O23       1.0  0.45450  0.89260  0.54120  1.0000
  O   O24       1.0  0.54550  0.39260  0.95880  1.0000
  N   N1        1.0  0.37510  0.45310  0.44280  1.0000
  N   N2        1.0  0.62490  0.95310  0.05720  1.0000
  N   N3        1.0  0.62490  0.54690  0.55720  1.0000
  N   N4        1.0  0.37510  0.04690  0.94280  1.0000
  N   N5        1.0  0.58610  0.42080  0.44010  1.0000
  N   N6        1.0  0.41390  0.92080  0.05990  1.0000
  N   N7        1.0  0.41390  0.57920  0.55990  1.0000
  N   N8        1.0  0.58610  0.07920  0.94010  1.0000
  N   N9        1.0  0.49290  0.39300  0.56950  1.0000
  N   N10       1.0  0.50710  0.89300  0.93050  1.0000
  N   N11       1.0  0.50710  0.60700  0.43050  1.0000
  N   N12       1.0  0.49290  0.10700  0.06950  1.0000
  C   C1        1.0  0.31360  0.42950  0.40900  1.0000
  C   C2        1.0  0.68640  0.92950  0.09100  1.0000
  C   C3        1.0  0.68640  0.57050  0.59100  1.0000
  C   C4        1.0  0.31360  0.07050  0.90900  1.0000
  C   C5        1.0  0.63430  0.38490  0.40800  1.0000
  C   C6        1.0  0.36570  0.88490  0.09200  1.0000
  C   C7        1.0  0.36570  0.61510  0.59200  1.0000
  C   C8        1.0  0.63430  0.11510  0.90800  1.0000
  C   C9        1.0  0.49050  0.33970  0.60950  1.0000
  C   C10       1.0  0.50950  0.83970  0.89050  1.0000
  C   C11       1.0  0.50950  0.66030  0.39050  1.0000
  C   C12       1.0  0.49050  0.16030  0.10950  1.0000
  C   C13       1.0  0.69940  0.05450  0.63600  1.0000
  C   C14       1.0  0.30060  0.55450  0.86400  1.0000
  C   C15       1.0  0.30060  0.94550  0.36400  1.0000
  C   C16       1.0  0.69940  0.44550  0.13600  1.0000
  H   H1        1.0  0.76210  0.07870  0.64120  1.0000
  H   H2        1.0  0.23790  0.57870  0.85880  1.0000
  H   H3        1.0  0.23790  0.92130  0.35880  1.0000
  H   H4        1.0  0.76210  0.42130  0.14120  1.0000
  H   H5        1.0  0.70410  0.99280  0.62480  1.0000
  H   H6        1.0  0.29590  0.49280  0.87520  1.0000
  H   H7        1.0  0.29590  0.00720  0.37520  1.0000
  H   H8        1.0  0.70410  0.50720  0.12480  1.0000
  C   C17       1.0  0.65490  0.06330  0.70000  1.0000
  C   C18       1.0  0.34510  0.56330  0.80000  1.0000
  C   C19       1.0  0.34510  0.93670  0.30000  1.0000
  C   C20       1.0  0.65490  0.43670  0.20000  1.0000
  H   H9        1.0  0.69520  0.03830  0.73600  1.0000
  H   H10       1.0  0.30480  0.53830  0.76400  1.0000
  H   H11       1.0  0.30480  0.96170  0.26400  1.0000
  H   H12       1.0  0.69520  0.46170  0.23600  1.0000
  H   H13       1.0  0.64440  0.12470  0.70970  1.0000
  H   H14       1.0  0.35560  0.62470  0.79030  1.0000
  H   H15       1.0  0.35560  0.87530  0.29030  1.0000
  H   H16       1.0  0.64440  0.37530  0.20970  1.0000
  C   C21       1.0  0.52040  0.02600  0.74920  1.0000
  C   C22       1.0  0.47960  0.52600  0.75080  1.0000
  C   C23       1.0  0.47960  0.97400  0.25080  1.0000
  C   C24       1.0  0.52040  0.47400  0.24920  1.0000
  H   H17       1.0  0.50970  0.08760  0.75820  1.0000
  H   H18       1.0  0.49030  0.58760  0.74180  1.0000
  H   H19       1.0  0.49030  0.91240  0.24180  1.0000
  H   H20       1.0  0.50970  0.41240  0.25820  1.0000
  H   H21       1.0  0.55690  0.00110  0.78710  1.0000
  H   H22       1.0  0.44310  0.50110  0.71290  1.0000
  H   H23       1.0  0.44310  0.99890  0.21290  1.0000
  H   H24       1.0  0.55690  0.49890  0.28710  1.0000
  C   C25       1.0  0.42870  0.97900  0.73870  1.0000
  C   C26       1.0  0.57130  0.47900  0.76130  1.0000
  C   C27       1.0  0.57130  0.02100  0.26130  1.0000
  C   C28       1.0  0.42870  0.52100  0.23870  1.0000
  H   H25       1.0  0.44000  0.91710  0.73130  1.0000
  H   H26       1.0  0.56000  0.41710  0.76870  1.0000
  H   H27       1.0  0.56000  0.08290  0.26870  1.0000
  H   H28       1.0  0.44000  0.58290  0.23130  1.0000
  H   H29       1.0  0.39590  0.98410  0.77840  1.0000
  H   H30       1.0  0.60410  0.48410  0.72160  1.0000
  H   H31       1.0  0.60410  0.01590  0.22160  1.0000
  H   H32       1.0  0.39590  0.51590  0.27840  1.0000
  C   C29       1.0  0.28980  0.03540  0.69200  1.0000
  C   C30       1.0  0.71020  0.53540  0.80800  1.0000
  C   C31       1.0  0.71020  0.96460  0.30800  1.0000
  C   C32       1.0  0.28980  0.46460  0.19200  1.0000
  H   H33       1.0  0.29200  0.08080  0.72560  1.0000
  H   H34       1.0  0.70800  0.58080  0.77440  1.0000
  H   H35       1.0  0.70800  0.91920  0.27440  1.0000
  H   H36       1.0  0.29200  0.41920  0.22560  1.0000
  H   H37       1.0  0.25780  0.98550  0.70940  1.0000
  H   H38       1.0  0.74220  0.48550  0.79060  1.0000
  H   H39       1.0  0.74220  0.01450  0.29060  1.0000
  H   H40       1.0  0.25780  0.51450  0.20940  1.0000
  C   C33       1.0  0.23120  0.06800  0.63590  1.0000
  C   C34       1.0  0.76880  0.56800  0.86410  1.0000
  C   C35       1.0  0.76880  0.93200  0.36410  1.0000
  C   C36       1.0  0.23120  0.43200  0.13590  1.0000
  H   H41       1.0  0.19790  0.01880  0.61450  1.0000
  H   H42       1.0  0.80210  0.51880  0.88550  1.0000
  H   H43       1.0  0.80210  0.98120  0.38550  1.0000
  H   H44       1.0  0.19790  0.48120  0.11450  1.0000
  H   H45       1.0  0.18520  0.10770  0.65160  1.0000
  H   H46       1.0  0.81480  0.60770  0.84840  1.0000
  H   H47       1.0  0.81480  0.89230  0.34840  1.0000
  H   H48       1.0  0.18520  0.39230  0.15160  1.0000
  C   C37       1.0  0.22770  0.15230  0.53790  1.0000
  C   C38       1.0  0.77230  0.65230  0.96210  1.0000
  C   C39       1.0  0.77230  0.84770  0.46210  1.0000
  C   C40       1.0  0.22770  0.34770  0.03790  1.0000
  H   H49       1.0  0.17730  0.18580  0.55460  1.0000
  H   H50       1.0  0.82270  0.68580  0.94540  1.0000
  H   H51       1.0  0.82270  0.81420  0.44540  1.0000
  H   H52       1.0  0.17730  0.31420  0.05460  1.0000
  H   H53       1.0  0.20060  0.10850  0.50730  1.0000
  H   H54       1.0  0.79940  0.60850  0.99270  1.0000
  H   H55       1.0  0.79940  0.89150  0.49270  1.0000
  H   H56       1.0  0.20060  0.39150  0.00730  1.0000
  C   C41       1.0  0.28910  0.21130  0.50380  1.0000
  C   C42       1.0  0.71090  0.71130  0.99620  1.0000
  C   C43       1.0  0.71090  0.78870  0.49620  1.0000
  C   C44       1.0  0.28910  0.28870  0.00380  1.0000
  H   H57       1.0  0.25250  0.24500  0.47030  1.0000
  H   H58       1.0  0.74750  0.74500  0.02970  1.0000
  H   H59       1.0  0.74750  0.75500  0.52970  1.0000
  H   H60       1.0  0.25250  0.25500  0.97030  1.0000
  H   H61       1.0  0.32010  0.25210  0.53520  1.0000
  H   H62       1.0  0.67990  0.75210  0.96480  1.0000
  H   H63       1.0  0.67990  0.74790  0.46480  1.0000
  H   H64       1.0  0.32010  0.24790  0.03520  1.0000
  C   C45       1.0  0.41850  0.21150  0.44160  1.0000
  C   C46       1.0  0.58150  0.71150  0.05840  1.0000
  C   C47       1.0  0.58150  0.78850  0.55840  1.0000
  C   C48       1.0  0.41850  0.28850  0.94160  1.0000
  H   H65       1.0  0.45180  0.25100  0.47280  1.0000
  H   H66       1.0  0.54820  0.75100  0.02720  1.0000
  H   H67       1.0  0.54820  0.74900  0.52720  1.0000
  H   H68       1.0  0.45180  0.24900  0.97280  1.0000
  H   H69       1.0  0.38450  0.24670  0.40770  1.0000
  H   H70       1.0  0.61550  0.74670  0.09230  1.0000
  H   H71       1.0  0.61550  0.75330  0.59230  1.0000
  H   H72       1.0  0.38450  0.25330  0.90770  1.0000
  C   C49       1.0  0.48520  0.15450  0.41130  1.0000
  C   C50       1.0  0.51480  0.65450  0.08870  1.0000
  C   C51       1.0  0.51480  0.84550  0.58870  1.0000
  C   C52       1.0  0.48520  0.34550  0.91130  1.0000
  H   H73       1.0  0.45100  0.11270  0.38250  1.0000
  H   H74       1.0  0.54900  0.61270  0.11750  1.0000
  H   H75       1.0  0.54900  0.88730  0.61750  1.0000
  H   H76       1.0  0.45100  0.38730  0.88250  1.0000
  H   H77       1.0  0.52300  0.19020  0.38430  1.0000
  H   H78       1.0  0.47700  0.69020  0.11570  1.0000
  H   H79       1.0  0.47700  0.80980  0.61570  1.0000
  H   H80       1.0  0.52300  0.30980  0.88430  1.0000
  C   C53       1.0  0.63120  0.15230  0.47600  1.0000
  C   C54       1.0  0.36880  0.65230  0.02400  1.0000
  C   C55       1.0  0.36880  0.84770  0.52400  1.0000
  C   C56       1.0  0.63120  0.34770  0.97600  1.0000
  H   H81       1.0  0.61890  0.20910  0.49520  1.0000
  H   H82       1.0  0.38110  0.70910  0.00480  1.0000
  H   H83       1.0  0.38110  0.79090  0.50480  1.0000
  H   H84       1.0  0.61890  0.29090  0.99520  1.0000
  H   H85       1.0  0.66410  0.16180  0.43690  1.0000
  H   H86       1.0  0.33590  0.66180  0.06310  1.0000
  H   H87       1.0  0.33590  0.83820  0.56310  1.0000
  H   H88       1.0  0.66410  0.33820  0.93690  1.0000
  C   C57       1.0  0.68980  0.09640  0.52540  1.0000
  C   C58       1.0  0.31020  0.59640  0.97460  1.0000
  C   C59       1.0  0.31020  0.90360  0.47460  1.0000
  C   C60       1.0  0.68980  0.40360  0.02540  1.0000
  H   H89       1.0  0.69290  0.03660  0.50930  1.0000
  H   H90       1.0  0.30710  0.53660  0.99070  1.0000
  H   H91       1.0  0.30710  0.96340  0.49070  1.0000
  H   H92       1.0  0.69290  0.46340  0.00930  1.0000
  H   H93       1.0  0.75280  0.11960  0.53160  1.0000
  H   H94       1.0  0.24720  0.61960  0.96840  1.0000
  H   H95       1.0  0.24720  0.88040  0.46840  1.0000
  H   H96       1.0  0.75280  0.38040  0.03160  1.0000
