data_image0
_chemical_formula_structural       C6H2C2H2C6H2C6H2C4H2C6H2C4H2C6H2C2H2C4H2C2H2C2H2C6H2C2H2C2H2C2H2C2H2C4H2C2H2Cd4N8O20
_chemical_formula_sum              "C70 H38 Cd4 N8 O20"
_cell_length_a       10.807
_cell_length_b       13.173
_cell_length_c       16.344
_cell_angle_alpha    77.063
_cell_angle_beta     82.965
_cell_angle_gamma    69.313

_space_group_name_H-M_alt    "P 1"
_space_group_IT_number       1

loop_
  _space_group_symop_operation_xyz
  'x, y, z'

loop_
  _atom_site_type_symbol
  _atom_site_label
  _atom_site_symmetry_multiplicity
  _atom_site_fract_x
  _atom_site_fract_y
  _atom_site_fract_z
  _atom_site_occupancy
  C   C1        1.0  0.84300  0.24200  0.14800  1.0000
  C   C2        1.0  0.15700  0.75800  0.85200  1.0000
  C   C3        1.0  0.75100  0.29000  0.07800  1.0000
  C   C4        1.0  0.24900  0.71000  0.92200  1.0000
  C   C5        1.0  0.77700  0.37200  0.01600  1.0000
  C   C6        1.0  0.22300  0.62800  0.98400  1.0000
  H   H1        1.0  0.85060  0.39230  0.01920  1.0000
  H   H2        1.0  0.14940  0.60770  0.98080  1.0000
  C   C7        1.0  0.69500  0.42500  0.95000  1.0000
  C   C8        1.0  0.30500  0.57500  0.05000  1.0000
  H   H3        1.0  0.71390  0.47930  0.90800  1.0000
  H   H4        1.0  0.28610  0.52070  0.09200  1.0000
  C   C9        1.0  0.58300  0.39700  0.94500  1.0000
  C   C10       1.0  0.41700  0.60300  0.05500  1.0000
  C   C11       1.0  0.48900  0.45500  0.87500  1.0000
  C   C12       1.0  0.51100  0.54500  0.12500  1.0000
  C   C13       1.0  0.55600  0.31400  0.00700  1.0000
  C   C14       1.0  0.44400  0.68600  0.99300  1.0000
  H   H5        1.0  0.48210  0.29540  0.00390  1.0000
  H   H6        1.0  0.51790  0.70460  0.99610  1.0000
  C   C15       1.0  0.64000  0.25900  0.07500  1.0000
  C   C16       1.0  0.36000  0.74100  0.92500  1.0000
  C   C17       1.0  0.59800  0.17600  0.14100  1.0000
  C   C18       1.0  0.40200  0.82400  0.85900  1.0000
  C   C19       1.0  0.46600  0.19800  0.16500  1.0000
  C   C20       1.0  0.53400  0.80200  0.83500  1.0000
  H   H7        1.0  0.40430  0.26610  0.14400  1.0000
  H   H8        1.0  0.59570  0.73390  0.85600  1.0000
  C   C21       1.0  0.42400  0.11900  0.21900  1.0000
  C   C22       1.0  0.57600  0.88100  0.78100  1.0000
  C   C23       1.0  0.51500  0.02000  0.25500  1.0000
  C   C24       1.0  0.48500  0.98000  0.74500  1.0000
  H   H9        1.0  0.48560  0.96970  0.29410  1.0000
  H   H10       1.0  0.51440  0.03030  0.70590  1.0000
  C   C25       1.0  0.65600  0.99400  0.23300  1.0000
  C   C26       1.0  0.34400  0.00600  0.76700  1.0000
  C   C27       1.0  0.27800  0.13400  0.23600  1.0000
  C   C28       1.0  0.72200  0.86600  0.76400  1.0000
  C   C29       1.0  0.69100  0.07400  0.17600  1.0000
  C   C30       1.0  0.30900  0.92600  0.82400  1.0000
  H   H11       1.0  0.77950  0.06060  0.15940  1.0000
  H   H12       1.0  0.22050  0.93940  0.84060  1.0000
  C   C31       1.0  0.74500  0.88300  0.26600  1.0000
  C   C32       1.0  0.25500  0.11700  0.73400  1.0000
  C   C33       1.0  0.69900  0.79200  0.27500  1.0000
  C   C34       1.0  0.30100  0.20800  0.72500  1.0000
  H   H13       1.0  0.61130  0.80490  0.26580  1.0000
  H   H14       1.0  0.38870  0.19510  0.73420  1.0000
  C   C35       1.0  0.78700  0.68300  0.29700  1.0000
  C   C36       1.0  0.21300  0.31700  0.70300  1.0000
  C   C37       1.0  0.73500  0.59100  0.29900  1.0000
  C   C38       1.0  0.26500  0.40900  0.70100  1.0000
  C   C39       1.0  0.91500  0.66400  0.31100  1.0000
  C   C40       1.0  0.08500  0.33600  0.68900  1.0000
  H   H15       1.0  0.97260  0.59160  0.32450  1.0000
  H   H16       1.0  0.02740  0.40840  0.67550  1.0000
  C   C41       1.0  0.96000  0.75100  0.30500  1.0000
  C   C42       1.0  0.04000  0.24900  0.69500  1.0000
  H   H17       1.0  0.04810  0.73670  0.31410  1.0000
  H   H18       1.0  0.95190  0.26330  0.68590  1.0000
  C   C43       1.0  0.87600  0.85800  0.28600  1.0000
  C   C44       1.0  0.12400  0.14200  0.71400  1.0000
  C   C45       1.0  0.02300  0.27400  0.39000  1.0000
  C   C46       1.0  0.97700  0.72600  0.61000  1.0000
  H   H19       1.0  0.07550  0.30320  0.34970  1.0000
  H   H20       1.0  0.92450  0.69680  0.65030  1.0000
  C   C47       1.0  0.91000  0.17600  0.45500  1.0000
  C   C48       1.0  0.09000  0.82400  0.54500  1.0000
  H   H21       1.0  0.87120  0.12080  0.46970  1.0000
  H   H22       1.0  0.12880  0.87920  0.53030  1.0000
  C   C49       1.0  0.89300  0.25400  0.50000  1.0000
  C   C50       1.0  0.10700  0.74600  0.50000  1.0000
  H   H23       1.0  0.83960  0.26460  0.54820  1.0000
  H   H24       1.0  0.16040  0.73540  0.45180  1.0000
  C   C51       1.0  0.98500  0.40800  0.48100  1.0000
  C   C52       1.0  0.01500  0.59200  0.51900  1.0000
  C   C53       1.0  0.93100  0.94900  0.28700  1.0000
  C   C54       1.0  0.06900  0.05100  0.71300  1.0000
  C   C55       1.0  0.10600  0.42500  0.46500  1.0000
  C   C56       1.0  0.89400  0.57500  0.53500  1.0000
  H   H25       1.0  0.17690  0.37540  0.44120  1.0000
  H   H26       1.0  0.82310  0.62460  0.55880  1.0000
  C   C57       1.0  0.87900  0.48300  0.51500  1.0000
  C   C58       1.0  0.12100  0.51700  0.48500  1.0000
  H   H27       1.0  0.79740  0.47300  0.52370  1.0000
  H   H28       1.0  0.20260  0.52700  0.47630  1.0000
  C   C59       1.0  0.54700  0.37000  0.44000  1.0000
  C   C60       1.0  0.45300  0.63000  0.56000  1.0000
  H   H29       1.0  0.53750  0.43770  0.45220  1.0000
  H   H30       1.0  0.46250  0.56230  0.54780  1.0000
  C   C61       1.0  0.50700  0.28800  0.49200  1.0000
  C   C62       1.0  0.49300  0.71200  0.50800  1.0000
  H   H31       1.0  0.46700  0.28980  0.54590  1.0000
  H   H32       1.0  0.53300  0.71020  0.45410  1.0000
  C   C63       1.0  0.59600  0.23900  0.37300  1.0000
  C   C64       1.0  0.40400  0.76100  0.62700  1.0000
  H   H33       1.0  0.62670  0.19760  0.33070  1.0000
  H   H34       1.0  0.37330  0.80240  0.66930  1.0000
  C   C65       1.0  0.52100  0.10100  0.47500  1.0000
  C   C66       1.0  0.47900  0.89900  0.52500  1.0000
  C   C67       1.0  0.61900  0.00500  0.45700  1.0000
  C   C68       1.0  0.38100  0.99500  0.54300  1.0000
  H   H35       1.0  0.69870  0.00810  0.42970  1.0000
  H   H36       1.0  0.30130  0.99190  0.57030  1.0000
  C   C69       1.0  0.40500  0.09500  0.51800  1.0000
  C   C70       1.0  0.59500  0.90500  0.48200  1.0000
  H   H37       1.0  0.34110  0.15910  0.53100  1.0000
  H   H38       1.0  0.65890  0.84090  0.46900  1.0000
  Cd  Cd1       1.0  0.67060  0.43190  0.25090  1.0000
  Cd  Cd2       1.0  0.32940  0.56810  0.74910  1.0000
  Cd  Cd3       1.0  0.02760  0.11720  0.27020  1.0000
  Cd  Cd4       1.0  0.97240  0.88280  0.72980  1.0000
  N   N1        1.0  0.99100  0.18800  0.38500  1.0000
  N   N2        1.0  0.00900  0.81200  0.61500  1.0000
  N   N3        1.0  0.97200  0.31500  0.45900  1.0000
  N   N4        1.0  0.02800  0.68500  0.54100  1.0000
  N   N5        1.0  0.60000  0.33700  0.36700  1.0000
  N   N6        1.0  0.40000  0.66300  0.63300  1.0000
  N   N7        1.0  0.54100  0.20500  0.44800  1.0000
  N   N8        1.0  0.45900  0.79500  0.55200  1.0000
  O   O1        1.0  0.81900  0.27700  0.21400  1.0000
  O   O2        1.0  0.18100  0.72300  0.78600  1.0000
  O   O3        1.0  0.95000  0.16500  0.13700  1.0000
  O   O4        1.0  0.05000  0.83500  0.86300  1.0000
  O   O5        1.0  0.51600  0.52900  0.82100  1.0000
  O   O6        1.0  0.48400  0.47100  0.17900  1.0000
  O   O7        1.0  0.38900  0.43100  0.87400  1.0000
  O   O8        1.0  0.61100  0.56900  0.12600  1.0000
  O   O9        1.0  0.04500  0.94000  0.25300  1.0000
  O   O10       1.0  0.95500  0.06000  0.74700  1.0000
  O   O11       1.0  0.86800  0.02700  0.32200  1.0000
  O   O12       1.0  0.13200  0.97300  0.67800  1.0000
  O   O13       1.0  0.81800  0.50400  0.27700  1.0000
  O   O14       1.0  0.18200  0.49600  0.72300  1.0000
  O   O15       1.0  0.62000  0.60100  0.31600  1.0000
  O   O16       1.0  0.38000  0.39900  0.68400  1.0000
  O   O17       1.0  0.19700  0.22400  0.21400  1.0000
  O   O18       1.0  0.80300  0.77600  0.78600  1.0000
  O   O19       1.0  0.24900  0.05100  0.26900  1.0000
  O   O20       1.0  0.75100  0.94900  0.73100  1.0000
