data_image0
_chemical_formula_structural       In4C8H4C8H4C4H4C4H4C16H4C8H4C4H4C4H4C8O32
_chemical_formula_sum              "In4 C64 H32 O32"
_cell_length_a       12.249
_cell_length_b       13.351
_cell_length_c       14.806
_cell_angle_alpha    90
_cell_angle_beta     94.588
_cell_angle_gamma    90

_space_group_name_H-M_alt    "P 1"
_space_group_IT_number       1

loop_
  _space_group_symop_operation_xyz
  'x, y, z'

loop_
  _atom_site_type_symbol
  _atom_site_label
  _atom_site_symmetry_multiplicity
  _atom_site_fract_x
  _atom_site_fract_y
  _atom_site_fract_z
  _atom_site_occupancy
  In  In1       1.0  0.24686  0.34241  0.99592  1.0000
  In  In2       1.0  0.25314  0.84241  0.50408  1.0000
  In  In3       1.0  0.75314  0.65759  0.00408  1.0000
  In  In4       1.0  0.74686  0.15759  0.49592  1.0000
  C   C1        1.0  0.10140  0.53370  0.80644  1.0000
  C   C2        1.0  0.39860  0.03370  0.69356  1.0000
  C   C3        1.0  0.89860  0.46630  0.19356  1.0000
  C   C4        1.0  0.60140  0.96630  0.30644  1.0000
  C   C5        1.0  0.16260  0.58680  0.74695  1.0000
  C   C6        1.0  0.33740  0.08680  0.75305  1.0000
  C   C7        1.0  0.83740  0.41320  0.25305  1.0000
  C   C8        1.0  0.66260  0.91320  0.24695  1.0000
  H   H1        1.0  0.23850  0.58130  0.75130  1.0000
  H   H2        1.0  0.26150  0.08130  0.74870  1.0000
  H   H3        1.0  0.76150  0.41870  0.24870  1.0000
  H   H4        1.0  0.73850  0.91870  0.25130  1.0000
  C   C9        1.0  0.10980  0.64820  0.68110  1.0000
  C   C10       1.0  0.39020  0.14820  0.81890  1.0000
  C   C11       1.0  0.89020  0.35180  0.31890  1.0000
  C   C12       1.0  0.60980  0.85180  0.18110  1.0000
  C   C13       1.0  0.99640  0.65660  0.67490  1.0000
  C   C14       1.0  0.50360  0.15660  0.82510  1.0000
  C   C15       1.0  0.00360  0.34340  0.32510  1.0000
  C   C16       1.0  0.49640  0.84340  0.17490  1.0000
  H   H5        1.0  0.96110  0.69670  0.63020  1.0000
  H   H6        1.0  0.53890  0.19670  0.86980  1.0000
  H   H7        1.0  0.03890  0.30330  0.36980  1.0000
  H   H8        1.0  0.46110  0.80330  0.13020  1.0000
  C   C17       1.0  0.93530  0.60520  0.73550  1.0000
  C   C18       1.0  0.56470  0.10520  0.76450  1.0000
  C   C19       1.0  0.06470  0.39480  0.26450  1.0000
  C   C20       1.0  0.43530  0.89480  0.23550  1.0000
  H   H9        1.0  0.85950  0.61180  0.73190  1.0000
  H   H10       1.0  0.64050  0.11180  0.76810  1.0000
  H   H11       1.0  0.14050  0.38820  0.26810  1.0000
  H   H12       1.0  0.35950  0.88820  0.23190  1.0000
  C   C21       1.0  0.98770  0.54430  0.80110  1.0000
  C   C22       1.0  0.51230  0.04430  0.69890  1.0000
  C   C23       1.0  0.01230  0.45570  0.19890  1.0000
  C   C24       1.0  0.48770  0.95570  0.30110  1.0000
  H   H13       1.0  0.94700  0.51020  0.84180  1.0000
  H   H14       1.0  0.55300  0.01020  0.65820  1.0000
  H   H15       1.0  0.05300  0.48980  0.15820  1.0000
  H   H16       1.0  0.44700  0.98980  0.34180  1.0000
  C   C25       1.0  0.15630  0.46520  0.87568  1.0000
  C   C26       1.0  0.34370  0.96520  0.62432  1.0000
  C   C27       1.0  0.84370  0.53480  0.12432  1.0000
  C   C28       1.0  0.65630  0.03480  0.37568  1.0000
  C   C29       1.0  0.17500  0.70840  0.61970  1.0000
  C   C30       1.0  0.32500  0.20840  0.88030  1.0000
  C   C31       1.0  0.82500  0.29160  0.38030  1.0000
  C   C32       1.0  0.67500  0.79160  0.11970  1.0000
  C   C33       1.0  0.39500  0.53150  0.18919  1.0000
  C   C34       1.0  0.10500  0.03150  0.31081  1.0000
  C   C35       1.0  0.60500  0.46850  0.81081  1.0000
  C   C36       1.0  0.89500  0.96850  0.68919  1.0000
  C   C37       1.0  0.33170  0.58710  0.24490  1.0000
  C   C38       1.0  0.16830  0.08710  0.25510  1.0000
  C   C39       1.0  0.66830  0.41290  0.75510  1.0000
  C   C40       1.0  0.83170  0.91290  0.74490  1.0000
  H   H17       1.0  0.25570  0.58320  0.23740  1.0000
  H   H18       1.0  0.24430  0.08320  0.26260  1.0000
  H   H19       1.0  0.74430  0.41680  0.76260  1.0000
  H   H20       1.0  0.75570  0.91680  0.73740  1.0000
  C   C41       1.0  0.38160  0.64840  0.31180  1.0000
  C   C42       1.0  0.11840  0.14840  0.18820  1.0000
  C   C43       1.0  0.61840  0.35160  0.68820  1.0000
  C   C44       1.0  0.88160  0.85160  0.81180  1.0000
  C   C45       1.0  0.49460  0.65430  0.32300  1.0000
  C   C46       1.0  0.00540  0.15430  0.17700  1.0000
  C   C47       1.0  0.50540  0.34570  0.67700  1.0000
  C   C48       1.0  0.99460  0.84570  0.82300  1.0000
  H   H21       1.0  0.52810  0.69460  0.36840  1.0000
  H   H22       1.0  0.97190  0.19460  0.13160  1.0000
  H   H23       1.0  0.47190  0.30540  0.63160  1.0000
  H   H24       1.0  0.02810  0.80540  0.86840  1.0000
  C   C49       1.0  0.55830  0.60010  0.26640  1.0000
  C   C50       1.0  0.94170  0.10010  0.23360  1.0000
  C   C51       1.0  0.44170  0.39990  0.73360  1.0000
  C   C52       1.0  0.05830  0.89990  0.76640  1.0000
  H   H25       1.0  0.63420  0.60500  0.27340  1.0000
  H   H26       1.0  0.86580  0.10500  0.22660  1.0000
  H   H27       1.0  0.36580  0.39500  0.72660  1.0000
  H   H28       1.0  0.13420  0.89500  0.77340  1.0000
  C   C53       1.0  0.50830  0.53890  0.19960  1.0000
  C   C54       1.0  0.99170  0.03890  0.30040  1.0000
  C   C55       1.0  0.49170  0.46110  0.80040  1.0000
  C   C56       1.0  0.00830  0.96110  0.69960  1.0000
  H   H29       1.0  0.55080  0.50270  0.16180  1.0000
  H   H30       1.0  0.94920  0.00270  0.33820  1.0000
  H   H31       1.0  0.44920  0.49730  0.83820  1.0000
  H   H32       1.0  0.05080  0.99730  0.66180  1.0000
  C   C57       1.0  0.34170  0.46310  0.11905  1.0000
  C   C58       1.0  0.15830  0.96310  0.38095  1.0000
  C   C59       1.0  0.65830  0.53690  0.88095  1.0000
  C   C60       1.0  0.84170  0.03690  0.61905  1.0000
  C   C61       1.0  0.31320  0.70950  0.37140  1.0000
  C   C62       1.0  0.18680  0.20950  0.12860  1.0000
  C   C63       1.0  0.68680  0.29050  0.62860  1.0000
  C   C64       1.0  0.81320  0.79050  0.87140  1.0000
  O   O1        1.0  0.09926  0.41063  0.92201  1.0000
  O   O2        1.0  0.40074  0.91063  0.57799  1.0000
  O   O3        1.0  0.90074  0.58937  0.07799  1.0000
  O   O4        1.0  0.59926  0.08937  0.42201  1.0000
  O   O5        1.0  0.25911  0.46141  0.88711  1.0000
  O   O6        1.0  0.24089  0.96141  0.61289  1.0000
  O   O7        1.0  0.74089  0.53859  0.11289  1.0000
  O   O8        1.0  0.75911  0.03859  0.38711  1.0000
  O   O9        1.0  0.12320  0.75404  0.55368  1.0000
  O   O10       1.0  0.37680  0.25404  0.94632  1.0000
  O   O11       1.0  0.87680  0.24596  0.44632  1.0000
  O   O12       1.0  0.62320  0.74596  0.05368  1.0000
  O   O13       1.0  0.27510  0.71760  0.63324  1.0000
  O   O14       1.0  0.22490  0.21760  0.86676  1.0000
  O   O15       1.0  0.72490  0.28240  0.36676  1.0000
  O   O16       1.0  0.77510  0.78240  0.13324  1.0000
  O   O17       1.0  0.23905  0.46132  0.10464  1.0000
  O   O18       1.0  0.26095  0.96132  0.39536  1.0000
  O   O19       1.0  0.76095  0.53868  0.89536  1.0000
  O   O20       1.0  0.73905  0.03868  0.60464  1.0000
  O   O21       1.0  0.39940  0.40688  0.07433  1.0000
  O   O22       1.0  0.10060  0.90688  0.42567  1.0000
  O   O23       1.0  0.60060  0.59312  0.92567  1.0000
  O   O24       1.0  0.89940  0.09312  0.57433  1.0000
  O   O25       1.0  0.36380  0.75110  0.43935  1.0000
  O   O26       1.0  0.13620  0.25110  0.06065  1.0000
  O   O27       1.0  0.63620  0.24890  0.56065  1.0000
  O   O28       1.0  0.86380  0.74890  0.93935  1.0000
  O   O29       1.0  0.21340  0.71840  0.35350  1.0000
  O   O30       1.0  0.28660  0.21840  0.14650  1.0000
  O   O31       1.0  0.78660  0.28160  0.64650  1.0000
  O   O32       1.0  0.71340  0.78160  0.85350  1.0000
