data_image0
_chemical_formula_structural       Cd4O24C12H4C4H4C8H4C4H4C8H4C16H4C8H4C4H4C4H4C16H4O8C4
_chemical_formula_sum              "Cd4 O32 C88 H40"
_cell_length_a       13.5667
_cell_length_b       9.5666
_cell_length_c       23.1432
_cell_angle_alpha    90
_cell_angle_beta     122.672
_cell_angle_gamma    90

_space_group_name_H-M_alt    "P 1"
_space_group_IT_number       1

loop_
  _space_group_symop_operation_xyz
  'x, y, z'

loop_
  _atom_site_type_symbol
  _atom_site_label
  _atom_site_symmetry_multiplicity
  _atom_site_fract_x
  _atom_site_fract_y
  _atom_site_fract_z
  _atom_site_occupancy
  Cd  Cd1       1.0  0.22679  0.75074  0.74412  1.0000
  Cd  Cd2       1.0  0.77321  0.25074  0.75588  1.0000
  Cd  Cd3       1.0  0.77321  0.24926  0.25588  1.0000
  Cd  Cd4       1.0  0.22679  0.74926  0.24412  1.0000
  O   O1        1.0  0.15090  0.93240  0.66060  1.0000
  O   O2        1.0  0.84910  0.43240  0.83940  1.0000
  O   O3        1.0  0.84910  0.06760  0.33940  1.0000
  O   O4        1.0  0.15090  0.56760  0.16060  1.0000
  O   O5        1.0  0.32130  0.84140  0.69230  1.0000
  O   O6        1.0  0.67870  0.34140  0.80770  1.0000
  O   O7        1.0  0.67870  0.15860  0.30770  1.0000
  O   O8        1.0  0.32130  0.65860  0.19230  1.0000
  O   O9        1.0  0.52830  0.21960  0.64070  1.0000
  O   O10       1.0  0.47170  0.71960  0.85930  1.0000
  O   O11       1.0  0.47170  0.78040  0.35930  1.0000
  O   O12       1.0  0.52830  0.28040  0.14070  1.0000
  O   O13       1.0  0.68080  0.07380  0.68290  1.0000
  O   O14       1.0  0.31920  0.57380  0.81710  1.0000
  O   O15       1.0  0.31920  0.92620  0.31710  1.0000
  O   O16       1.0  0.68080  0.42620  0.18290  1.0000
  O   O17       1.0  0.02680  0.66060  0.68860  1.0000
  O   O18       1.0  0.97320  0.16060  0.81140  1.0000
  O   O19       1.0  0.97320  0.33940  0.31140  1.0000
  O   O20       1.0  0.02680  0.83940  0.18860  1.0000
  O   O21       1.0  0.13670  0.58950  0.65140  1.0000
  O   O22       1.0  0.86330  0.08950  0.84860  1.0000
  O   O23       1.0  0.86330  0.41050  0.34860  1.0000
  O   O24       1.0  0.13670  0.91050  0.15140  1.0000
  C   C1        1.0  0.23670  0.91860  0.65450  1.0000
  C   C2        1.0  0.76330  0.41860  0.84550  1.0000
  C   C3        1.0  0.76330  0.08140  0.34550  1.0000
  C   C4        1.0  0.23670  0.58140  0.15450  1.0000
  C   C5        1.0  0.23350  0.99660  0.59640  1.0000
  C   C6        1.0  0.76650  0.49660  0.90360  1.0000
  C   C7        1.0  0.76650  0.00340  0.40360  1.0000
  C   C8        1.0  0.23350  0.50340  0.09640  1.0000
  C   C9        1.0  0.13590  0.07530  0.55050  1.0000
  C   C10       1.0  0.86410  0.57530  0.94950  1.0000
  C   C11       1.0  0.86410  0.92470  0.44950  1.0000
  C   C12       1.0  0.13590  0.42470  0.05050  1.0000
  H   H1        1.0  0.07360  0.08340  0.55650  1.0000
  H   H2        1.0  0.92640  0.58340  0.94350  1.0000
  H   H3        1.0  0.92640  0.91660  0.44350  1.0000
  H   H4        1.0  0.07360  0.41660  0.05650  1.0000
  C   C13       1.0  0.32630  0.98480  0.58690  1.0000
  C   C14       1.0  0.67370  0.48480  0.91310  1.0000
  C   C15       1.0  0.67370  0.01520  0.41310  1.0000
  C   C16       1.0  0.32630  0.51520  0.08690  1.0000
  H   H5        1.0  0.39180  0.93240  0.61760  1.0000
  H   H6        1.0  0.60820  0.43240  0.88240  1.0000
  H   H7        1.0  0.60820  0.06760  0.38240  1.0000
  H   H8        1.0  0.39180  0.56760  0.11760  1.0000
  C   C17       1.0  0.32220  0.05040  0.53180  1.0000
  C   C18       1.0  0.67780  0.55040  0.96820  1.0000
  C   C19       1.0  0.67780  0.94960  0.46820  1.0000
  C   C20       1.0  0.32220  0.44960  0.03180  1.0000
  C   C21       1.0  0.22320  0.12840  0.48650  1.0000
  C   C22       1.0  0.77680  0.62840  0.01350  1.0000
  C   C23       1.0  0.77680  0.87160  0.51350  1.0000
  C   C24       1.0  0.22320  0.37160  0.98650  1.0000
  H   H9        1.0  0.21870  0.17250  0.44930  1.0000
  H   H10       1.0  0.78130  0.67250  0.05070  1.0000
  H   H11       1.0  0.78130  0.82750  0.55070  1.0000
  H   H12       1.0  0.21870  0.32750  0.94930  1.0000
  C   C25       1.0  0.13110  0.14120  0.49620  1.0000
  C   C26       1.0  0.86890  0.64120  0.00380  1.0000
  C   C27       1.0  0.86890  0.85880  0.50380  1.0000
  C   C28       1.0  0.13110  0.35880  0.99620  1.0000
  H   H13       1.0  0.06590  0.19450  0.46590  1.0000
  H   H14       1.0  0.93410  0.69450  0.03410  1.0000
  H   H15       1.0  0.93410  0.80550  0.53410  1.0000
  H   H16       1.0  0.06590  0.30550  0.96590  1.0000
  C   C29       1.0  0.41620  0.02790  0.51760  1.0000
  C   C30       1.0  0.58380  0.52790  0.98240  1.0000
  C   C31       1.0  0.58380  0.97210  0.48240  1.0000
  C   C32       1.0  0.41620  0.47210  0.01760  1.0000
  C   C33       1.0  0.38480  0.97440  0.45400  1.0000
  C   C34       1.0  0.61520  0.47440  0.04600  1.0000
  C   C35       1.0  0.61520  0.02560  0.54600  1.0000
  C   C36       1.0  0.38480  0.52560  0.95400  1.0000
  H   H17       1.0  0.30590  0.95730  0.42200  1.0000
  H   H18       1.0  0.69410  0.45730  0.07800  1.0000
  H   H19       1.0  0.69410  0.04270  0.57800  1.0000
  H   H20       1.0  0.30590  0.54270  0.92200  1.0000
  C   C37       1.0  0.53430  0.05560  0.56500  1.0000
  C   C38       1.0  0.46570  0.55560  0.93500  1.0000
  C   C39       1.0  0.46570  0.94440  0.43500  1.0000
  C   C40       1.0  0.53430  0.44440  0.06500  1.0000
  C   C41       1.0  0.58210  0.12120  0.63420  1.0000
  C   C42       1.0  0.41790  0.62120  0.86580  1.0000
  C   C43       1.0  0.41790  0.87880  0.36580  1.0000
  C   C44       1.0  0.58210  0.37880  0.13420  1.0000
  C   C45       1.0  0.93920  0.51030  0.59180  1.0000
  C   C46       1.0  0.06080  0.01030  0.90820  1.0000
  C   C47       1.0  0.06080  0.48970  0.40820  1.0000
  C   C48       1.0  0.93920  0.98970  0.09180  1.0000
  C   C49       1.0  0.83010  0.52140  0.58100  1.0000
  C   C50       1.0  0.16990  0.02140  0.91900  1.0000
  C   C51       1.0  0.16990  0.47860  0.41900  1.0000
  C   C52       1.0  0.83010  0.97860  0.08100  1.0000
  H   H21       1.0  0.81900  0.58370  0.60780  1.0000
  H   H22       1.0  0.18100  0.08370  0.89220  1.0000
  H   H23       1.0  0.18100  0.41630  0.39220  1.0000
  H   H24       1.0  0.81900  0.91630  0.10780  1.0000
  C   C53       1.0  0.73400  0.44290  0.53110  1.0000
  C   C54       1.0  0.26600  0.94290  0.96890  1.0000
  C   C55       1.0  0.26600  0.55710  0.46890  1.0000
  C   C56       1.0  0.73400  0.05710  0.03110  1.0000
  C   C57       1.0  0.75390  0.35000  0.49230  1.0000
  C   C58       1.0  0.24610  0.85000  0.00770  1.0000
  C   C59       1.0  0.24610  0.65000  0.50770  1.0000
  C   C60       1.0  0.75390  0.15000  0.99230  1.0000
  H   H25       1.0  0.69280  0.29520  0.45910  1.0000
  H   H26       1.0  0.30720  0.79520  0.04090  1.0000
  H   H27       1.0  0.30720  0.70480  0.54090  1.0000
  H   H28       1.0  0.69280  0.20480  0.95910  1.0000
  C   C61       1.0  0.86370  0.33840  0.50250  1.0000
  C   C62       1.0  0.13630  0.83840  0.99750  1.0000
  C   C63       1.0  0.13630  0.66160  0.49750  1.0000
  C   C64       1.0  0.86370  0.16160  0.00250  1.0000
  H   H29       1.0  0.87530  0.27640  0.47580  1.0000
  H   H30       1.0  0.12470  0.77640  0.02420  1.0000
  H   H31       1.0  0.12470  0.72360  0.52420  1.0000
  H   H32       1.0  0.87530  0.22360  0.97580  1.0000
  C   C65       1.0  0.95620  0.41710  0.55180  1.0000
  C   C66       1.0  0.04380  0.91710  0.94820  1.0000
  C   C67       1.0  0.04380  0.58290  0.44820  1.0000
  C   C68       1.0  0.95620  0.08290  0.05180  1.0000
  H   H33       1.0  0.02980  0.40810  0.55820  1.0000
  H   H34       1.0  0.97020  0.90810  0.94180  1.0000
  H   H35       1.0  0.97020  0.59190  0.44180  1.0000
  H   H36       1.0  0.02980  0.09190  0.05820  1.0000
  C   C69       1.0  0.61470  0.46850  0.51700  1.0000
  C   C70       1.0  0.38530  0.96850  0.98300  1.0000
  C   C71       1.0  0.38530  0.53150  0.48300  1.0000
  C   C72       1.0  0.61470  0.03150  0.01700  1.0000
  C   C73       1.0  0.04040  0.59340  0.64800  1.0000
  C   C74       1.0  0.95960  0.09340  0.85200  1.0000
  C   C75       1.0  0.95960  0.40660  0.35200  1.0000
  C   C76       1.0  0.04040  0.90660  0.14800  1.0000
  C   C77       1.0  0.59390  0.48760  0.56920  1.0000
  C   C78       1.0  0.40610  0.98760  0.93080  1.0000
  C   C79       1.0  0.40610  0.51240  0.43080  1.0000
  C   C80       1.0  0.59390  0.01240  0.06920  1.0000
  C   C81       1.0  0.52070  0.47770  0.44880  1.0000
  C   C82       1.0  0.47930  0.97770  0.05120  1.0000
  C   C83       1.0  0.47930  0.52230  0.55120  1.0000
  C   C84       1.0  0.52070  0.02230  0.94880  1.0000
  H   H37       1.0  0.53400  0.46050  0.41400  1.0000
  H   H38       1.0  0.46600  0.96050  0.08600  1.0000
  H   H39       1.0  0.46600  0.53950  0.58600  1.0000
  H   H40       1.0  0.53400  0.03950  0.91400  1.0000
  O   O25       1.0  0.75390  0.36540  0.66410  1.0000
  O   O26       1.0  0.24610  0.86540  0.83590  1.0000
  O   O27       1.0  0.24610  0.63460  0.33590  1.0000
  O   O28       1.0  0.75390  0.13460  0.16410  1.0000
  O   O29       1.0  0.68550  0.55650  0.68560  1.0000
  O   O30       1.0  0.31450  0.05650  0.81440  1.0000
  O   O31       1.0  0.31450  0.44350  0.31440  1.0000
  O   O32       1.0  0.68550  0.94350  0.18560  1.0000
  C   C85       1.0  0.68630  0.46780  0.64600  1.0000
  C   C86       1.0  0.31370  0.96780  0.85400  1.0000
  C   C87       1.0  0.31370  0.53220  0.35400  1.0000
  C   C88       1.0  0.68630  0.03220  0.14600  1.0000
