data_image0
_chemical_formula_structural       Ni8P8N8O64C8H16C8H16C8H16C16H16
_chemical_formula_sum              "Ni8 P8 N8 O64 C40 H64"
_cell_length_a       9.8944
_cell_length_b       9.4265
_cell_length_c       24.664
_cell_angle_alpha    90
_cell_angle_beta     90
_cell_angle_gamma    90

_space_group_name_H-M_alt    "P 1"
_space_group_IT_number       1

loop_
  _space_group_symop_operation_xyz
  'x, y, z'

loop_
  _atom_site_type_symbol
  _atom_site_label
  _atom_site_symmetry_multiplicity
  _atom_site_fract_x
  _atom_site_fract_y
  _atom_site_fract_z
  _atom_site_occupancy
  Ni  Ni1       1.0  0.58078  0.45646  0.34882  1.0000
  Ni  Ni2       1.0  0.91922  0.54354  0.84882  1.0000
  Ni  Ni3       1.0  0.41922  0.95646  0.15118  1.0000
  Ni  Ni4       1.0  0.08078  0.04354  0.65118  1.0000
  Ni  Ni5       1.0  0.41922  0.54354  0.65118  1.0000
  Ni  Ni6       1.0  0.08078  0.45646  0.15118  1.0000
  Ni  Ni7       1.0  0.58078  0.04354  0.84882  1.0000
  Ni  Ni8       1.0  0.91922  0.95646  0.34882  1.0000
  P   P1        1.0  0.44035  0.24733  0.42489  1.0000
  P   P2        1.0  0.05965  0.75267  0.92489  1.0000
  P   P3        1.0  0.55965  0.74733  0.07511  1.0000
  P   P4        1.0  0.94035  0.25267  0.57511  1.0000
  P   P5        1.0  0.55965  0.75267  0.57511  1.0000
  P   P6        1.0  0.94035  0.24733  0.07511  1.0000
  P   P7        1.0  0.44035  0.25267  0.92489  1.0000
  P   P8        1.0  0.05965  0.74733  0.42489  1.0000
  N   N1        1.0  0.52970  0.25720  0.32065  1.0000
  N   N2        1.0  0.97030  0.74280  0.82065  1.0000
  N   N3        1.0  0.47030  0.75720  0.17935  1.0000
  N   N4        1.0  0.02970  0.24280  0.67935  1.0000
  N   N5        1.0  0.47030  0.74280  0.67935  1.0000
  N   N6        1.0  0.02970  0.25720  0.17935  1.0000
  N   N7        1.0  0.52970  0.24280  0.82065  1.0000
  N   N8        1.0  0.97030  0.75720  0.32065  1.0000
  O   O1        1.0  0.30230  0.24520  0.45156  1.0000
  O   O2        1.0  0.19770  0.75480  0.95156  1.0000
  O   O3        1.0  0.69770  0.74520  0.04844  1.0000
  O   O4        1.0  0.80230  0.25480  0.54844  1.0000
  O   O5        1.0  0.69770  0.75480  0.54844  1.0000
  O   O6        1.0  0.80230  0.24520  0.04844  1.0000
  O   O7        1.0  0.30230  0.25480  0.95156  1.0000
  O   O8        1.0  0.19770  0.74520  0.45156  1.0000
  O   O9        1.0  0.53540  0.13800  0.44913  1.0000
  O   O10       1.0  0.96460  0.86200  0.94913  1.0000
  O   O11       1.0  0.46460  0.63800  0.05087  1.0000
  O   O12       1.0  0.03540  0.36200  0.55087  1.0000
  O   O13       1.0  0.46460  0.86200  0.55087  1.0000
  O   O14       1.0  0.03540  0.13800  0.05087  1.0000
  O   O15       1.0  0.53540  0.36200  0.94913  1.0000
  O   O16       1.0  0.96460  0.63800  0.44913  1.0000
  O   O17       1.0  0.49940  0.39770  0.42413  1.0000
  O   O18       1.0  0.00060  0.60230  0.92413  1.0000
  O   O19       1.0  0.50060  0.89770  0.07587  1.0000
  O   O20       1.0  0.99940  0.10230  0.57587  1.0000
  O   O21       1.0  0.50060  0.60230  0.57587  1.0000
  O   O22       1.0  0.99940  0.39770  0.07587  1.0000
  O   O23       1.0  0.49940  0.10230  0.92413  1.0000
  O   O24       1.0  0.00060  0.89770  0.42413  1.0000
  O   O25       1.0  0.64870  0.47140  0.26792  1.0000
  O   O26       1.0  0.85130  0.52860  0.76792  1.0000
  O   O27       1.0  0.35130  0.97140  0.23208  1.0000
  O   O28       1.0  0.14870  0.02860  0.73208  1.0000
  O   O29       1.0  0.35130  0.52860  0.73208  1.0000
  O   O30       1.0  0.14870  0.47140  0.23208  1.0000
  O   O31       1.0  0.64870  0.02860  0.76792  1.0000
  O   O32       1.0  0.85130  0.97140  0.26792  1.0000
  O   O33       1.0  0.63180  0.35650  0.18906  1.0000
  O   O34       1.0  0.86820  0.64350  0.68906  1.0000
  O   O35       1.0  0.36820  0.85650  0.31094  1.0000
  O   O36       1.0  0.13180  0.14350  0.81094  1.0000
  O   O37       1.0  0.36820  0.64350  0.81094  1.0000
  O   O38       1.0  0.13180  0.35650  0.31094  1.0000
  O   O39       1.0  0.63180  0.14350  0.68906  1.0000
  O   O40       1.0  0.86820  0.85650  0.18906  1.0000
  O   O41       1.0  0.39080  0.55000  0.33095  1.0000
  O   O42       1.0  0.10920  0.45000  0.83095  1.0000
  O   O43       1.0  0.60920  0.05000  0.16905  1.0000
  O   O44       1.0  0.89080  0.95000  0.66905  1.0000
  O   O45       1.0  0.60920  0.45000  0.66905  1.0000
  O   O46       1.0  0.89080  0.55000  0.16905  1.0000
  O   O47       1.0  0.39080  0.95000  0.83095  1.0000
  O   O48       1.0  0.10920  0.05000  0.33095  1.0000
  O   O49       1.0  0.86100  0.15230  0.37418  1.0000
  O   O50       1.0  0.63900  0.84770  0.87418  1.0000
  O   O51       1.0  0.13900  0.65230  0.12582  1.0000
  O   O52       1.0  0.36100  0.34770  0.62582  1.0000
  O   O53       1.0  0.13900  0.84770  0.62582  1.0000
  O   O54       1.0  0.36100  0.15230  0.12582  1.0000
  O   O55       1.0  0.86100  0.34770  0.87418  1.0000
  O   O56       1.0  0.63900  0.65230  0.37418  1.0000
  O   O57       1.0  0.75670  0.35920  0.37221  1.0000
  O   O58       1.0  0.74330  0.64080  0.87221  1.0000
  O   O59       1.0  0.24330  0.85920  0.12779  1.0000
  O   O60       1.0  0.25670  0.14080  0.62779  1.0000
  O   O61       1.0  0.24330  0.64080  0.62779  1.0000
  O   O62       1.0  0.25670  0.35920  0.12779  1.0000
  O   O63       1.0  0.75670  0.14080  0.87221  1.0000
  O   O64       1.0  0.74330  0.85920  0.37221  1.0000
  C   C1        1.0  0.65110  0.16450  0.32608  1.0000
  C   C2        1.0  0.84890  0.83550  0.82608  1.0000
  C   C3        1.0  0.34890  0.66450  0.17392  1.0000
  C   C4        1.0  0.15110  0.33550  0.67392  1.0000
  C   C5        1.0  0.34890  0.83550  0.67392  1.0000
  C   C6        1.0  0.15110  0.16450  0.17392  1.0000
  C   C7        1.0  0.65110  0.33550  0.82608  1.0000
  C   C8        1.0  0.84890  0.66450  0.32608  1.0000
  H   H1        1.0  0.62410  0.07520  0.34240  1.0000
  H   H2        1.0  0.87590  0.92480  0.84240  1.0000
  H   H3        1.0  0.37590  0.57520  0.15760  1.0000
  H   H4        1.0  0.12410  0.42480  0.65760  1.0000
  H   H5        1.0  0.37590  0.92480  0.65760  1.0000
  H   H6        1.0  0.12410  0.07520  0.15760  1.0000
  H   H7        1.0  0.62410  0.42480  0.84240  1.0000
  H   H8        1.0  0.87590  0.57520  0.34240  1.0000
  H   H9        1.0  0.68640  0.14410  0.29020  1.0000
  H   H10       1.0  0.81360  0.85590  0.79020  1.0000
  H   H11       1.0  0.31360  0.64410  0.20980  1.0000
  H   H12       1.0  0.18640  0.35590  0.70980  1.0000
  H   H13       1.0  0.31360  0.85590  0.70980  1.0000
  H   H14       1.0  0.18640  0.14410  0.20980  1.0000
  H   H15       1.0  0.68640  0.35590  0.79020  1.0000
  H   H16       1.0  0.81360  0.64410  0.29020  1.0000
  C   C9        1.0  0.41450  0.20540  0.35377  1.0000
  C   C10       1.0  0.08550  0.79460  0.85377  1.0000
  C   C11       1.0  0.58550  0.70540  0.14623  1.0000
  C   C12       1.0  0.91450  0.29460  0.64623  1.0000
  C   C13       1.0  0.58550  0.79460  0.64623  1.0000
  C   C14       1.0  0.91450  0.20540  0.14623  1.0000
  C   C15       1.0  0.41450  0.29460  0.85377  1.0000
  C   C16       1.0  0.08550  0.70540  0.35377  1.0000
  H   H17       1.0  0.40560  0.10350  0.34940  1.0000
  H   H18       1.0  0.09440  0.89650  0.84940  1.0000
  H   H19       1.0  0.59440  0.60350  0.15060  1.0000
  H   H20       1.0  0.90560  0.39650  0.65060  1.0000
  H   H21       1.0  0.59440  0.89650  0.65060  1.0000
  H   H22       1.0  0.90560  0.10350  0.15060  1.0000
  H   H23       1.0  0.40560  0.39650  0.84940  1.0000
  H   H24       1.0  0.09440  0.60350  0.34940  1.0000
  H   H25       1.0  0.33150  0.24930  0.34120  1.0000
  H   H26       1.0  0.16850  0.75070  0.84120  1.0000
  H   H27       1.0  0.66850  0.74930  0.15880  1.0000
  H   H28       1.0  0.83150  0.25070  0.65880  1.0000
  H   H29       1.0  0.66850  0.75070  0.65880  1.0000
  H   H30       1.0  0.83150  0.24930  0.15880  1.0000
  H   H31       1.0  0.33150  0.25070  0.84120  1.0000
  H   H32       1.0  0.16850  0.74930  0.34120  1.0000
  C   C17       1.0  0.49460  0.27840  0.26313  1.0000
  C   C18       1.0  0.00540  0.72160  0.76313  1.0000
  C   C19       1.0  0.50540  0.77840  0.23687  1.0000
  C   C20       1.0  0.99460  0.22160  0.73687  1.0000
  C   C21       1.0  0.50540  0.72160  0.73687  1.0000
  C   C22       1.0  0.99460  0.27840  0.23687  1.0000
  C   C23       1.0  0.49460  0.22160  0.76313  1.0000
  C   C24       1.0  0.00540  0.77840  0.26313  1.0000
  H   H33       1.0  0.40570  0.32110  0.26020  1.0000
  H   H34       1.0  0.09430  0.67890  0.76020  1.0000
  H   H35       1.0  0.59430  0.82110  0.23980  1.0000
  H   H36       1.0  0.90570  0.17890  0.73980  1.0000
  H   H37       1.0  0.59430  0.67890  0.73980  1.0000
  H   H38       1.0  0.90570  0.32110  0.23980  1.0000
  H   H39       1.0  0.40570  0.17890  0.76020  1.0000
  H   H40       1.0  0.09430  0.82110  0.26020  1.0000
  H   H41       1.0  0.49310  0.18790  0.24450  1.0000
  H   H42       1.0  0.00690  0.81210  0.74450  1.0000
  H   H43       1.0  0.50690  0.68790  0.25550  1.0000
  H   H44       1.0  0.99310  0.31210  0.75550  1.0000
  H   H45       1.0  0.50690  0.81210  0.75550  1.0000
  H   H46       1.0  0.99310  0.18790  0.25550  1.0000
  H   H47       1.0  0.49310  0.31210  0.74450  1.0000
  H   H48       1.0  0.00690  0.68790  0.24450  1.0000
  C   C25       1.0  0.60000  0.37550  0.23738  1.0000
  C   C26       1.0  0.90000  0.62450  0.73738  1.0000
  C   C27       1.0  0.40000  0.87550  0.26262  1.0000
  C   C28       1.0  0.10000  0.12450  0.76262  1.0000
  C   C29       1.0  0.40000  0.62450  0.76262  1.0000
  C   C30       1.0  0.10000  0.37550  0.26262  1.0000
  C   C31       1.0  0.60000  0.12450  0.73738  1.0000
  C   C32       1.0  0.90000  0.87550  0.23738  1.0000
  C   C33       1.0  0.76260  0.23000  0.36020  1.0000
  C   C34       1.0  0.73740  0.77000  0.86020  1.0000
  C   C35       1.0  0.23740  0.73000  0.13980  1.0000
  C   C36       1.0  0.26260  0.27000  0.63980  1.0000
  C   C37       1.0  0.23740  0.77000  0.63980  1.0000
  C   C38       1.0  0.26260  0.23000  0.13980  1.0000
  C   C39       1.0  0.76260  0.27000  0.86020  1.0000
  C   C40       1.0  0.73740  0.73000  0.36020  1.0000
  H   H49       1.0  0.38700  0.63900  0.33160  1.0000
  H   H50       1.0  0.11300  0.36100  0.83160  1.0000
  H   H51       1.0  0.61300  0.13900  0.16840  1.0000
  H   H52       1.0  0.88700  0.86100  0.66840  1.0000
  H   H53       1.0  0.61300  0.36100  0.66840  1.0000
  H   H54       1.0  0.88700  0.63900  0.16840  1.0000
  H   H55       1.0  0.38700  0.86100  0.83160  1.0000
  H   H56       1.0  0.11300  0.13900  0.33160  1.0000
  H   H57       1.0  0.30800  0.50900  0.31940  1.0000
  H   H58       1.0  0.19200  0.49100  0.81940  1.0000
  H   H59       1.0  0.69200  0.00900  0.18060  1.0000
  H   H60       1.0  0.80800  0.99100  0.68060  1.0000
  H   H61       1.0  0.69200  0.49100  0.68060  1.0000
  H   H62       1.0  0.80800  0.50900  0.18060  1.0000
  H   H63       1.0  0.30800  0.99100  0.81940  1.0000
  H   H64       1.0  0.19200  0.00900  0.31940  1.0000
