data_image0
_chemical_formula_structural       Zn2O16N4C6H2C4H4C2H2C6H2C4H2C4H2C6H2C2H2C2H2C4H2C2H2C2H2
_chemical_formula_sum              "Zn2 O16 N4 C44 H26"
_cell_length_a       8.198
_cell_length_b       12.125
_cell_length_c       14.677
_cell_angle_alpha    72.35
_cell_angle_beta     78.63
_cell_angle_gamma    82.21

_space_group_name_H-M_alt    "P 1"
_space_group_IT_number       1

loop_
  _space_group_symop_operation_xyz
  'x, y, z'

loop_
  _atom_site_type_symbol
  _atom_site_label
  _atom_site_symmetry_multiplicity
  _atom_site_fract_x
  _atom_site_fract_y
  _atom_site_fract_z
  _atom_site_occupancy
  Zn  Zn1       1.0  0.90213  0.09650  0.22698  1.0000
  Zn  Zn2       1.0  0.09787  0.90350  0.77302  1.0000
  O   O1        1.0  0.72181  0.17485  0.29626  1.0000
  O   O2        1.0  0.27819  0.82515  0.70374  1.0000
  O   O3        1.0  0.57996  0.20526  0.17470  1.0000
  O   O4        1.0  0.42004  0.79474  0.82530  1.0000
  O   O5        1.0  0.94220  0.81778  0.34877  1.0000
  O   O6        1.0  0.05780  0.18222  0.65123  1.0000
  O   O7        1.0  0.88510  0.94571  0.21005  1.0000
  O   O8        1.0  0.11490  0.05429  0.78995  1.0000
  O   O9        1.0  0.06230  0.64536  0.91422  1.0000
  O   O10       1.0  0.93770  0.35464  0.08578  1.0000
  O   O11       1.0  0.01083  0.83288  0.91011  1.0000
  O   O12       1.0  0.98917  0.16712  0.08989  1.0000
  O   O13       1.0  0.27780  0.45419  0.56550  1.0000
  O   O14       1.0  0.72220  0.54581  0.43450  1.0000
  O   O15       1.0  0.47090  0.30378  0.58482  1.0000
  O   O16       1.0  0.52910  0.69622  0.41518  1.0000
  N   N1        1.0  0.01850  0.55365  0.21513  1.0000
  N   N2        1.0  0.98150  0.44635  0.78487  1.0000
  N   N3        1.0  0.07800  0.07635  0.31123  1.0000
  N   N4        1.0  0.92200  0.92365  0.68877  1.0000
  C   C1        1.0  0.59630  0.21603  0.25337  1.0000
  C   C2        1.0  0.40370  0.78397  0.74663  1.0000
  C   C3        1.0  0.46130  0.28305  0.30583  1.0000
  C   C4        1.0  0.53870  0.71695  0.69417  1.0000
  C   C5        1.0  0.31710  0.32828  0.26655  1.0000
  C   C6        1.0  0.68290  0.67172  0.73345  1.0000
  H   H1        1.0  0.30546  0.31765  0.20809  1.0000
  H   H2        1.0  0.69454  0.68235  0.79191  1.0000
  C   C7        1.0  0.19060  0.38911  0.31384  1.0000
  C   C8        1.0  0.80940  0.61089  0.68616  1.0000
  C   C9        1.0  0.02830  0.42842  0.27547  1.0000
  C   C10       1.0  0.97170  0.57158  0.72453  1.0000
  H   H3        1.0  0.01438  0.37968  0.23639  1.0000
  H   H4        1.0  0.98562  0.62032  0.76361  1.0000
  H   H5        1.0  0.93691  0.41780  0.32971  1.0000
  H   H6        1.0  0.06309  0.58220  0.67029  1.0000
  C   C11       1.0  0.98910  0.63803  0.26110  1.0000
  C   C12       1.0  0.01090  0.36197  0.73890  1.0000
  H   H7        1.0  0.98457  0.61802  0.32788  1.0000
  H   H8        1.0  0.01543  0.38198  0.67212  1.0000
  C   C13       1.0  0.96590  0.75347  0.20921  1.0000
  C   C14       1.0  0.03410  0.24653  0.79079  1.0000
  C   C15       1.0  0.92830  0.84548  0.26285  1.0000
  C   C16       1.0  0.07170  0.15452  0.73715  1.0000
  C   C17       1.0  0.97770  0.78254  0.10904  1.0000
  C   C18       1.0  0.02230  0.21746  0.89096  1.0000
  H   H9        1.0  0.96293  0.85985  0.07324  1.0000
  H   H10       1.0  0.03707  0.14015  0.92676  1.0000
  C   C19       1.0  0.01180  0.69538  0.06248  1.0000
  C   C20       1.0  0.98820  0.30462  0.93752  1.0000
  C   C21       1.0  0.03060  0.58050  0.11755  1.0000
  C   C22       1.0  0.96940  0.41950  0.88245  1.0000
  H   H11       1.0  0.05160  0.52160  0.08734  1.0000
  H   H12       1.0  0.94840  0.47840  0.91266  1.0000
  C   C23       1.0  0.02960  0.72444  0.95289  1.0000
  C   C24       1.0  0.97040  0.27556  0.04711  1.0000
  C   C25       1.0  0.20950  0.40570  0.40045  1.0000
  C   C26       1.0  0.79050  0.59430  0.59955  1.0000
  H   H13       1.0  0.12568  0.44768  0.43173  1.0000
  H   H14       1.0  0.87432  0.55232  0.56827  1.0000
  C   C27       1.0  0.35260  0.36024  0.44110  1.0000
  C   C28       1.0  0.64740  0.63976  0.55890  1.0000
  C   C29       1.0  0.36420  0.37707  0.53695  1.0000
  C   C30       1.0  0.63580  0.62293  0.46305  1.0000
  C   C31       1.0  0.47870  0.29774  0.39403  1.0000
  C   C32       1.0  0.52130  0.70226  0.60597  1.0000
  H   H15       1.0  0.57387  0.26603  0.42127  1.0000
  H   H16       1.0  0.42613  0.73397  0.57873  1.0000
  C   C33       1.0  0.04550  0.11771  0.38889  1.0000
  C   C34       1.0  0.95450  0.88229  0.61111  1.0000
  H   H17       1.0  0.94439  0.16067  0.39973  1.0000
  H   H18       1.0  0.05561  0.83933  0.60027  1.0000
  C   C35       1.0  0.15520  0.09930  0.45297  1.0000
  C   C36       1.0  0.84480  0.90070  0.54703  1.0000
  H   H19       1.0  0.12786  0.12927  0.50584  1.0000
  H   H20       1.0  0.87214  0.87073  0.49416  1.0000
  C   C37       1.0  0.30510  0.03633  0.43816  1.0000
  C   C38       1.0  0.69490  0.96367  0.56184  1.0000
  C   C39       1.0  0.33910  0.99120  0.35840  1.0000
  C   C40       1.0  0.66090  0.00880  0.64160  1.0000
  H   H21       1.0  0.43857  0.94679  0.34694  1.0000
  H   H22       1.0  0.56143  0.05321  0.65306  1.0000
  C   C41       1.0  0.22270  0.01339  0.29683  1.0000
  C   C42       1.0  0.77730  0.98661  0.70317  1.0000
  H   H23       1.0  0.24605  0.98359  0.24384  1.0000
  H   H24       1.0  0.75395  0.01641  0.75616  1.0000
  C   C43       1.0  0.42260  0.02269  0.50643  1.0000
  C   C44       1.0  0.57740  0.97731  0.49357  1.0000
  H   H25       1.0  0.38460  0.04762  0.56149  1.0000
  H   H26       1.0  0.61540  0.95238  0.43851  1.0000
