data_image0
_chemical_formula_structural       TbO6N2C4H2C6H2C2H2
_chemical_formula_sum              "Tb1 O6 N2 C12 H6"
_cell_length_a       4.8868
_cell_length_b       7.818
_cell_length_c       8.911
_cell_angle_alpha    99.47
_cell_angle_beta     95.923
_cell_angle_gamma    95.666

_space_group_name_H-M_alt    "P 1"
_space_group_IT_number       1

loop_
  _space_group_symop_operation_xyz
  'x, y, z'

loop_
  _atom_site_type_symbol
  _atom_site_label
  _atom_site_symmetry_multiplicity
  _atom_site_fract_x
  _atom_site_fract_y
  _atom_site_fract_z
  _atom_site_occupancy
  Tb  Tb1       1.0  0.50000  0.00000  0.00000  1.0000
  O   O1        1.0  0.71120  0.17880  0.20540  1.0000
  O   O2        1.0  0.28880  0.82120  0.79460  1.0000
  O   O3        1.0  0.74530  0.78130  0.06180  1.0000
  O   O4        1.0  0.25470  0.21870  0.93820  1.0000
  O   O5        1.0  0.18550  0.89050  0.13800  1.0000
  O   O6        1.0  0.81450  0.10950  0.86200  1.0000
  N   N1        1.0  0.29200  0.48930  0.38410  1.0000
  N   N2        1.0  0.70800  0.51070  0.61590  1.0000
  C   C1        1.0  0.98290  0.77590  0.13030  1.0000
  C   C2        1.0  0.01710  0.22410  0.86970  1.0000
  C   C3        1.0  0.25520  0.62640  0.31370  1.0000
  C   C4        1.0  0.74480  0.37360  0.68630  1.0000
  H   H1        1.0  0.38420  0.72550  0.33680  1.0000
  H   H2        1.0  0.61580  0.27450  0.66320  1.0000
  C   C5        1.0  0.88020  0.32560  0.23970  1.0000
  C   C6        1.0  0.11980  0.67440  0.76030  1.0000
  C   C7        1.0  0.02440  0.62050  0.20620  1.0000
  C   C8        1.0  0.97560  0.37950  0.79380  1.0000
  C   C9        1.0  0.83540  0.47240  0.17250  1.0000
  C   C10       1.0  0.16460  0.52760  0.82750  1.0000
  H   H3        1.0  0.67670  0.46970  0.10450  1.0000
  H   H4        1.0  0.32330  0.53030  0.89550  1.0000
  C   C11       1.0  0.11470  0.34290  0.34790  1.0000
  C   C12       1.0  0.88530  0.65710  0.65210  1.0000
  H   H5        1.0  0.14840  0.24920  0.39640  1.0000
  H   H6        1.0  0.85160  0.75080  0.60360  1.0000
