data_image0
_chemical_formula_structural       GdO6C2H2C4H2C4H2N2C2
_chemical_formula_sum              "Gd1 O6 C12 H6 N2"
_cell_length_a       4.8793
_cell_length_b       7.855
_cell_length_c       8.921
_cell_angle_alpha    99.03
_cell_angle_beta     95.81
_cell_angle_gamma    95.524

_space_group_name_H-M_alt    "P 1"
_space_group_IT_number       1

loop_
  _space_group_symop_operation_xyz
  'x, y, z'

loop_
  _atom_site_type_symbol
  _atom_site_label
  _atom_site_symmetry_multiplicity
  _atom_site_fract_x
  _atom_site_fract_y
  _atom_site_fract_z
  _atom_site_occupancy
  Gd  Gd1       1.0  0.50000  0.00000  0.00000  1.0000
  O   O1        1.0  0.74580  0.77990  0.06190  1.0000
  O   O2        1.0  0.25420  0.22010  0.93810  1.0000
  O   O3        1.0  0.18460  0.88920  0.13830  1.0000
  O   O4        1.0  0.81540  0.11080  0.86170  1.0000
  O   O5        1.0  0.71170  0.17880  0.20540  1.0000
  O   O6        1.0  0.28830  0.82120  0.79460  1.0000
  C   C1        1.0  0.25160  0.63010  0.31390  1.0000
  C   C2        1.0  0.74840  0.36990  0.68610  1.0000
  H   H1        1.0  0.37530  0.73080  0.33770  1.0000
  H   H2        1.0  0.62470  0.26920  0.66230  1.0000
  C   C3        1.0  0.02140  0.62060  0.20630  1.0000
  C   C4        1.0  0.97860  0.37940  0.79370  1.0000
  C   C5        1.0  0.83660  0.47000  0.17070  1.0000
  C   C6        1.0  0.16340  0.53000  0.82930  1.0000
  H   H3        1.0  0.68260  0.46360  0.09870  1.0000
  H   H4        1.0  0.31740  0.53640  0.90130  1.0000
  C   C7        1.0  0.88190  0.32890  0.24280  1.0000
  C   C8        1.0  0.11810  0.67110  0.75720  1.0000
  C   C9        1.0  0.11210  0.33840  0.35040  1.0000
  C   C10       1.0  0.88790  0.66160  0.64960  1.0000
  H   H5        1.0  0.14240  0.24410  0.39860  1.0000
  H   H6        1.0  0.85760  0.75590  0.60140  1.0000
  N   N1        1.0  0.29690  0.48900  0.38600  1.0000
  N   N2        1.0  0.70310  0.51100  0.61400  1.0000
  C   C11       1.0  0.98140  0.77460  0.13030  1.0000
  C   C12       1.0  0.01860  0.22540  0.86970  1.0000
