data_image0
_chemical_formula_structural       U4O28P12U4O8C4O8C4O8C4U4C4H16C4H8C4O36H12
_chemical_formula_sum              "U12 O88 P12 C24 H36"
_cell_length_a       8.9801
_cell_length_b       25.5577
_cell_length_c       13.8436
_cell_angle_alpha    90
_cell_angle_beta     100.313
_cell_angle_gamma    90

_space_group_name_H-M_alt    "P 1"
_space_group_IT_number       1

loop_
  _space_group_symop_operation_xyz
  'x, y, z'

loop_
  _atom_site_type_symbol
  _atom_site_label
  _atom_site_symmetry_multiplicity
  _atom_site_fract_x
  _atom_site_fract_y
  _atom_site_fract_z
  _atom_site_occupancy
  U   U1        1.0  0.04512  0.08392  0.35705  1.0000
  U   U2        1.0  0.95488  0.58392  0.14295  1.0000
  U   U3        1.0  0.95488  0.91608  0.64295  1.0000
  U   U4        1.0  0.04512  0.41608  0.85705  1.0000
  O   O1        1.0  0.23290  0.10741  0.37260  1.0000
  O   O2        1.0  0.76710  0.60741  0.12740  1.0000
  O   O3        1.0  0.76710  0.89259  0.62740  1.0000
  O   O4        1.0  0.23290  0.39259  0.87260  1.0000
  O   O5        1.0  0.86200  0.05690  0.34400  1.0000
  O   O6        1.0  0.13800  0.55690  0.15600  1.0000
  O   O7        1.0  0.13800  0.94310  0.65600  1.0000
  O   O8        1.0  0.86200  0.44310  0.84400  1.0000
  O   O9        1.0  0.03350  0.10396  0.51640  1.0000
  O   O10       1.0  0.96650  0.60396  0.98360  1.0000
  O   O11       1.0  0.96650  0.89604  0.48360  1.0000
  O   O12       1.0  0.03350  0.39604  0.01640  1.0000
  O   O13       1.0  0.93890  0.16578  0.32280  1.0000
  O   O14       1.0  0.06110  0.66578  0.17720  1.0000
  O   O15       1.0  0.06110  0.83422  0.67720  1.0000
  O   O16       1.0  0.93890  0.33422  0.82280  1.0000
  O   O17       1.0  0.02010  0.08085  0.18930  1.0000
  O   O18       1.0  0.97990  0.58085  0.31070  1.0000
  O   O19       1.0  0.97990  0.91915  0.81070  1.0000
  O   O20       1.0  0.02010  0.41915  0.68930  1.0000
  O   O21       1.0  0.12580  0.99143  0.30920  1.0000
  O   O22       1.0  0.87420  0.49143  0.19080  1.0000
  O   O23       1.0  0.87420  0.00857  0.69080  1.0000
  O   O24       1.0  0.12580  0.50857  0.80920  1.0000
  O   O25       1.0  0.17830  0.01074  0.46400  1.0000
  O   O26       1.0  0.82170  0.51074  0.03600  1.0000
  O   O27       1.0  0.82170  0.98926  0.53600  1.0000
  O   O28       1.0  0.17830  0.48926  0.96400  1.0000
  P   P1        1.0  0.94653  0.11773  0.59742  1.0000
  P   P2        1.0  0.05347  0.61773  0.90258  1.0000
  P   P3        1.0  0.05347  0.88227  0.40258  1.0000
  P   P4        1.0  0.94653  0.38227  0.09742  1.0000
  P   P5        1.0  0.96117  0.22257  0.35411  1.0000
  P   P6        1.0  0.03883  0.72257  0.14589  1.0000
  P   P7        1.0  0.03883  0.77743  0.64589  1.0000
  P   P8        1.0  0.96117  0.27743  0.85411  1.0000
  P   P9        1.0  0.10319  0.06558  0.10631  1.0000
  P   P10       1.0  0.89681  0.56558  0.39369  1.0000
  P   P11       1.0  0.89681  0.93442  0.89369  1.0000
  P   P12       1.0  0.10319  0.43442  0.60631  1.0000
  U   U5        1.0  0.01740  0.93543  0.15955  1.0000
  U   U6        1.0  0.98260  0.43543  0.34045  1.0000
  U   U7        1.0  0.98260  0.06457  0.84045  1.0000
  U   U8        1.0  0.01740  0.56457  0.65955  1.0000
  O   O29       1.0  0.03550  0.10182  0.69670  1.0000
  O   O30       1.0  0.96450  0.60182  0.80330  1.0000
  O   O31       1.0  0.96450  0.89818  0.30330  1.0000
  O   O32       1.0  0.03550  0.39818  0.19670  1.0000
  O   O33       1.0  0.89990  0.17504  0.59240  1.0000
  O   O34       1.0  0.10010  0.67504  0.90760  1.0000
  O   O35       1.0  0.10010  0.82496  0.40760  1.0000
  O   O36       1.0  0.89990  0.32496  0.09240  1.0000
  C   C1        1.0  0.77530  0.07820  0.58040  1.0000
  C   C2        1.0  0.22470  0.57820  0.91960  1.0000
  C   C3        1.0  0.22470  0.92180  0.41960  1.0000
  C   C4        1.0  0.77530  0.42180  0.08040  1.0000
  O   O37       1.0  0.06760  0.22867  0.45240  1.0000
  O   O38       1.0  0.93240  0.72867  0.04760  1.0000
  O   O39       1.0  0.93240  0.77133  0.54760  1.0000
  O   O40       1.0  0.06760  0.27133  0.95240  1.0000
  O   O41       1.0  0.01770  0.25671  0.27720  1.0000
  O   O42       1.0  0.98230  0.75671  0.22280  1.0000
  O   O43       1.0  0.98230  0.74329  0.72280  1.0000
  O   O44       1.0  0.01770  0.24329  0.77720  1.0000
  C   C5        1.0  0.77940  0.24860  0.36980  1.0000
  C   C6        1.0  0.22060  0.74860  0.13020  1.0000
  C   C7        1.0  0.22060  0.75140  0.63020  1.0000
  C   C8        1.0  0.77940  0.25140  0.86980  1.0000
  O   O45       1.0  0.14620  0.00807  0.11080  1.0000
  O   O46       1.0  0.85380  0.50807  0.38920  1.0000
  O   O47       1.0  0.85380  0.99193  0.88920  1.0000
  O   O48       1.0  0.14620  0.49193  0.61080  1.0000
  O   O49       1.0  0.01480  0.08154  0.00720  1.0000
  O   O50       1.0  0.98520  0.58154  0.49280  1.0000
  O   O51       1.0  0.98520  0.91846  0.99280  1.0000
  O   O52       1.0  0.01480  0.41846  0.50720  1.0000
  C   C9        1.0  0.27820  0.10320  0.12650  1.0000
  C   C10       1.0  0.72180  0.60320  0.37350  1.0000
  C   C11       1.0  0.72180  0.89680  0.87350  1.0000
  C   C12       1.0  0.27820  0.39680  0.62650  1.0000
  U   U9        1.0  0.06628  0.24631  0.61756  1.0000
  U   U10       1.0  0.93372  0.74631  0.88244  1.0000
  U   U11       1.0  0.93372  0.75369  0.38244  1.0000
  U   U12       1.0  0.06628  0.25369  0.11756  1.0000
  C   C13       1.0  0.82390  0.02240  0.60300  1.0000
  C   C14       1.0  0.17610  0.52240  0.89700  1.0000
  C   C15       1.0  0.17610  0.97760  0.39700  1.0000
  C   C16       1.0  0.82390  0.47760  0.10300  1.0000
  H   H1        1.0  0.72130  0.08120  0.51340  1.0000
  H   H2        1.0  0.27870  0.58120  0.98660  1.0000
  H   H3        1.0  0.27870  0.91880  0.48660  1.0000
  H   H4        1.0  0.72130  0.41880  0.01340  1.0000
  H   H5        1.0  0.70920  0.08990  0.62440  1.0000
  H   H6        1.0  0.29080  0.58990  0.87560  1.0000
  H   H7        1.0  0.29080  0.91010  0.37560  1.0000
  H   H8        1.0  0.70920  0.41010  0.12440  1.0000
  H   H9        1.0  0.74040  0.22790  0.41850  1.0000
  H   H10       1.0  0.25960  0.72790  0.08150  1.0000
  H   H11       1.0  0.25960  0.77210  0.58150  1.0000
  H   H12       1.0  0.74040  0.27210  0.91850  1.0000
  H   H13       1.0  0.79280  0.28420  0.39430  1.0000
  H   H14       1.0  0.20720  0.78420  0.10570  1.0000
  H   H15       1.0  0.20720  0.71580  0.60570  1.0000
  H   H16       1.0  0.79280  0.21580  0.89430  1.0000
  C   C17       1.0  0.66660  0.24840  0.27610  1.0000
  C   C18       1.0  0.33340  0.74840  0.22390  1.0000
  C   C19       1.0  0.33340  0.75160  0.72390  1.0000
  C   C20       1.0  0.66660  0.25160  0.77610  1.0000
  H   H17       1.0  0.34050  0.09280  0.18820  1.0000
  H   H18       1.0  0.65950  0.59280  0.31180  1.0000
  H   H19       1.0  0.65950  0.90720  0.81180  1.0000
  H   H20       1.0  0.34050  0.40720  0.68820  1.0000
  H   H21       1.0  0.33420  0.09620  0.07420  1.0000
  H   H22       1.0  0.66580  0.59620  0.42580  1.0000
  H   H23       1.0  0.66580  0.90380  0.92580  1.0000
  H   H24       1.0  0.33420  0.40380  0.57420  1.0000
  C   C21       1.0  0.24300  0.16060  0.12910  1.0000
  C   C22       1.0  0.75700  0.66060  0.37090  1.0000
  C   C23       1.0  0.75700  0.83940  0.87090  1.0000
  C   C24       1.0  0.24300  0.33940  0.62910  1.0000
  O   O53       1.0  0.12680  0.14686  0.87200  1.0000
  O   O54       1.0  0.87320  0.64686  0.62800  1.0000
  O   O55       1.0  0.87320  0.85314  0.12800  1.0000
  O   O56       1.0  0.12680  0.35314  0.37200  1.0000
  O   O57       1.0  0.81000  0.09994  0.82150  1.0000
  O   O58       1.0  0.19000  0.59994  0.67850  1.0000
  O   O59       1.0  0.19000  0.90006  0.17850  1.0000
  O   O60       1.0  0.81000  0.40006  0.32150  1.0000
  O   O61       1.0  0.15470  0.02934  0.85790  1.0000
  O   O62       1.0  0.84530  0.52934  0.64210  1.0000
  O   O63       1.0  0.84530  0.97066  0.14210  1.0000
  O   O64       1.0  0.15470  0.47066  0.35790  1.0000
  O   O65       1.0  0.91060  0.21084  0.08580  1.0000
  O   O66       1.0  0.08940  0.71084  0.41420  1.0000
  O   O67       1.0  0.08940  0.78916  0.91420  1.0000
  O   O68       1.0  0.91060  0.28916  0.58580  1.0000
  O   O69       1.0  0.22410  0.29591  0.15030  1.0000
  O   O70       1.0  0.77590  0.79591  0.34970  1.0000
  O   O71       1.0  0.77590  0.70409  0.84970  1.0000
  O   O72       1.0  0.22410  0.20409  0.65030  1.0000
  O   O73       1.0  0.22270  0.18216  0.20770  1.0000
  O   O74       1.0  0.77730  0.68216  0.29230  1.0000
  O   O75       1.0  0.77730  0.81784  0.79230  1.0000
  O   O76       1.0  0.22270  0.31784  0.70770  1.0000
  O   O77       1.0  0.22080  0.18667  0.05030  1.0000
  O   O78       1.0  0.77920  0.68667  0.44970  1.0000
  O   O79       1.0  0.77920  0.81333  0.94970  1.0000
  O   O80       1.0  0.22080  0.31333  0.55030  1.0000
  O   O81       1.0  0.60890  0.20968  0.23740  1.0000
  O   O82       1.0  0.39110  0.70968  0.26260  1.0000
  O   O83       1.0  0.39110  0.79032  0.76260  1.0000
  O   O84       1.0  0.60890  0.29032  0.73740  1.0000
  O   O85       1.0  0.64140  0.29560  0.23960  1.0000
  O   O86       1.0  0.35860  0.79560  0.26040  1.0000
  O   O87       1.0  0.35860  0.70440  0.76040  1.0000
  O   O88       1.0  0.64140  0.20440  0.73960  1.0000
  H   H25       1.0  0.10300  0.16900  0.83300  1.0000
  H   H26       1.0  0.89700  0.66900  0.66700  1.0000
  H   H27       1.0  0.89700  0.83100  0.16700  1.0000
  H   H28       1.0  0.10300  0.33100  0.33300  1.0000
  H   H29       1.0  0.14700  0.15700  0.92700  1.0000
  H   H30       1.0  0.85300  0.65700  0.57300  1.0000
  H   H31       1.0  0.85300  0.84300  0.07300  1.0000
  H   H32       1.0  0.14700  0.34300  0.42700  1.0000
  H   H33       1.0  0.60200  0.29500  0.17400  1.0000
  H   H34       1.0  0.39800  0.79500  0.32600  1.0000
  H   H35       1.0  0.39800  0.70500  0.82600  1.0000
  H   H36       1.0  0.60200  0.20500  0.67400  1.0000
