data_image0
_chemical_formula_structural       I24Cu28P24N8C176H200
_chemical_formula_sum              "I24 Cu28 P24 N8 C176 H200"
_cell_length_a       12.5667
_cell_length_b       29.4452
_cell_length_c       21.7343
_cell_angle_alpha    90
_cell_angle_beta     90.144
_cell_angle_gamma    90

_space_group_name_H-M_alt    "P 1"
_space_group_IT_number       1

loop_
  _space_group_symop_operation_xyz
  'x, y, z'

loop_
  _atom_site_type_symbol
  _atom_site_label
  _atom_site_symmetry_multiplicity
  _atom_site_fract_x
  _atom_site_fract_y
  _atom_site_fract_z
  _atom_site_occupancy
  I   I1        1.0  0.65190  0.14206  0.16762  1.0000
  I   I2        1.0  0.84810  0.64206  0.33238  1.0000
  I   I3        1.0  0.34810  0.85794  0.83238  1.0000
  I   I4        1.0  0.15190  0.35794  0.66762  1.0000
  I   I5        1.0  0.85339  0.27137  0.17063  1.0000
  I   I6        1.0  0.64661  0.77137  0.32937  1.0000
  I   I7        1.0  0.14661  0.72863  0.82937  1.0000
  I   I8        1.0  0.35339  0.22863  0.67063  1.0000
  I   I9        1.0  0.80257  0.35648  0.00017  1.0000
  I   I10       1.0  0.69743  0.85648  0.49983  1.0000
  I   I11       1.0  0.19743  0.64352  0.99983  1.0000
  I   I12       1.0  0.30257  0.14352  0.50017  1.0000
  I   I13       1.0  0.70838  0.27526  0.83508  1.0000
  I   I14       1.0  0.79162  0.77526  0.66492  1.0000
  I   I15       1.0  0.29162  0.72474  0.16492  1.0000
  I   I16       1.0  0.20838  0.22474  0.33508  1.0000
  I   I17       1.0  0.82632  0.12866  0.84151  1.0000
  I   I18       1.0  0.67368  0.62866  0.65849  1.0000
  I   I19       1.0  0.17368  0.87134  0.15849  1.0000
  I   I20       1.0  0.32632  0.37134  0.34151  1.0000
  I   I21       1.0  0.72304  0.05120  0.00860  1.0000
  I   I22       1.0  0.77696  0.55120  0.49140  1.0000
  I   I23       1.0  0.27696  0.94880  0.99140  1.0000
  I   I24       1.0  0.22304  0.44880  0.50860  1.0000
  Cu  Cu1       1.0  0.72982  0.12991  0.06135  1.0000
  Cu  Cu2       1.0  0.77018  0.62991  0.43865  1.0000
  Cu  Cu3       1.0  0.27018  0.87009  0.93865  1.0000
  Cu  Cu4       1.0  0.22982  0.37009  0.56135  1.0000
  Cu  Cu5       1.0  0.76047  0.20567  0.11182  1.0000
  Cu  Cu6       1.0  0.73953  0.70567  0.38818  1.0000
  Cu  Cu7       1.0  0.23953  0.79433  0.88818  1.0000
  Cu  Cu8       1.0  0.26047  0.29433  0.61182  1.0000
  Cu  Cu9       1.0  0.78895  0.28220  0.06109  1.0000
  Cu  Cu10      1.0  0.71105  0.78220  0.43891  1.0000
  Cu  Cu11      1.0  0.21105  0.71780  0.93891  1.0000
  Cu  Cu12      1.0  0.28895  0.21780  0.56109  1.0000
  Cu  Cu13      1.0  0.77630  0.27873  0.94683  1.0000
  Cu  Cu14      1.0  0.72370  0.77873  0.55317  1.0000
  Cu  Cu15      1.0  0.22370  0.72127  0.05317  1.0000
  Cu  Cu16      1.0  0.27630  0.22127  0.44683  1.0000
  Cu  Cu17      1.0  0.76675  0.20290  0.89545  1.0000
  Cu  Cu18      1.0  0.73325  0.70290  0.60455  1.0000
  Cu  Cu19      1.0  0.23325  0.79710  0.10455  1.0000
  Cu  Cu20      1.0  0.26675  0.29710  0.39545  1.0000
  Cu  Cu21      1.0  0.74830  0.12702  0.94905  1.0000
  Cu  Cu22      1.0  0.75170  0.62702  0.55095  1.0000
  Cu  Cu23      1.0  0.25170  0.87298  0.05095  1.0000
  Cu  Cu24      1.0  0.24830  0.37298  0.44905  1.0000
  Cu  Cu25      1.0  0.26478  0.20494  0.06727  1.0000
  Cu  Cu26      1.0  0.23522  0.70494  0.43273  1.0000
  Cu  Cu27      1.0  0.73522  0.79506  0.93273  1.0000
  Cu  Cu28      1.0  0.76478  0.29506  0.56727  1.0000
  P   P1        1.0  0.62311  0.18164  0.97393  1.0000
  P   P2        1.0  0.87689  0.68164  0.52607  1.0000
  P   P3        1.0  0.37689  0.81836  0.02607  1.0000
  P   P4        1.0  0.12311  0.31836  0.47393  1.0000
  P   P5        1.0  0.64538  0.23852  0.03180  1.0000
  P   P6        1.0  0.85462  0.73852  0.46820  1.0000
  P   P7        1.0  0.35462  0.76148  0.96820  1.0000
  P   P8        1.0  0.14538  0.26148  0.53180  1.0000
  P   P9        1.0  0.41694  0.21897  0.01623  1.0000
  P   P10       1.0  0.08306  0.71897  0.48377  1.0000
  P   P11       1.0  0.58306  0.78103  0.98377  1.0000
  P   P12       1.0  0.91694  0.28103  0.51623  1.0000
  P   P13       1.0  0.90238  0.22477  0.97425  1.0000
  P   P14       1.0  0.59762  0.72477  0.52575  1.0000
  P   P15       1.0  0.09762  0.77523  0.02575  1.0000
  P   P16       1.0  0.40238  0.27523  0.47425  1.0000
  P   P17       1.0  0.88133  0.17053  0.03656  1.0000
  P   P18       1.0  0.61867  0.67053  0.46344  1.0000
  P   P19       1.0  0.11867  0.82947  0.96344  1.0000
  P   P20       1.0  0.38133  0.32947  0.53656  1.0000
  P   P21       1.0  0.11016  0.18989  0.01844  1.0000
  P   P22       1.0  0.38984  0.68989  0.48156  1.0000
  P   P23       1.0  0.88984  0.81011  0.98156  1.0000
  P   P24       1.0  0.61016  0.31011  0.51844  1.0000
  N   N1        1.0  0.23230  0.25400  0.12780  1.0000
  N   N2        1.0  0.26770  0.75400  0.37220  1.0000
  N   N3        1.0  0.76770  0.74600  0.87220  1.0000
  N   N4        1.0  0.73230  0.24600  0.62780  1.0000
  N   N5        1.0  0.30560  0.15420  0.12520  1.0000
  N   N6        1.0  0.19440  0.65420  0.37480  1.0000
  N   N7        1.0  0.69440  0.84580  0.87480  1.0000
  N   N8        1.0  0.80560  0.34580  0.62520  1.0000
  C   C1        1.0  0.48600  0.17900  0.97280  1.0000
  C   C2        1.0  0.01400  0.67900  0.52720  1.0000
  C   C3        1.0  0.51400  0.82100  0.02720  1.0000
  C   C4        1.0  0.98600  0.32100  0.47280  1.0000
  C   C5        1.0  0.51600  0.25290  0.04780  1.0000
  C   C6        1.0  0.98400  0.75290  0.45220  1.0000
  C   C7        1.0  0.48400  0.74710  0.95220  1.0000
  C   C8        1.0  0.01600  0.24710  0.54780  1.0000
  C   C9        1.0  0.42280  0.14860  0.93230  1.0000
  C   C10       1.0  0.07720  0.64860  0.56770  1.0000
  C   C11       1.0  0.57720  0.85140  0.06770  1.0000
  C   C12       1.0  0.92280  0.35140  0.43230  1.0000
  C   C13       1.0  0.39790  0.16360  0.87260  1.0000
  C   C14       1.0  0.10210  0.66360  0.62740  1.0000
  C   C15       1.0  0.60210  0.83640  0.12740  1.0000
  C   C16       1.0  0.89790  0.33640  0.37260  1.0000
  C   C17       1.0  0.32960  0.13870  0.83530  1.0000
  C   C18       1.0  0.17040  0.63870  0.66470  1.0000
  C   C19       1.0  0.67040  0.86130  0.16470  1.0000
  C   C20       1.0  0.82960  0.36130  0.33530  1.0000
  C   C21       1.0  0.28280  0.09820  0.85630  1.0000
  C   C22       1.0  0.21720  0.59820  0.64370  1.0000
  C   C23       1.0  0.71720  0.90180  0.14370  1.0000
  C   C24       1.0  0.78280  0.40180  0.35630  1.0000
  C   C25       1.0  0.31210  0.08280  0.91400  1.0000
  C   C26       1.0  0.18790  0.58280  0.58600  1.0000
  C   C27       1.0  0.68790  0.91720  0.08600  1.0000
  C   C28       1.0  0.81210  0.41720  0.41400  1.0000
  C   C29       1.0  0.38180  0.10610  0.95310  1.0000
  C   C30       1.0  0.11820  0.60610  0.54690  1.0000
  C   C31       1.0  0.61820  0.89390  0.04690  1.0000
  C   C32       1.0  0.88180  0.39390  0.45310  1.0000
  C   C33       1.0  0.43760  0.20900  0.85000  1.0000
  C   C34       1.0  0.06240  0.70900  0.65000  1.0000
  C   C35       1.0  0.56240  0.79100  0.15000  1.0000
  C   C36       1.0  0.93760  0.29100  0.35000  1.0000
  C   C37       1.0  0.20500  0.07240  0.81690  1.0000
  C   C38       1.0  0.29500  0.57240  0.68310  1.0000
  C   C39       1.0  0.79500  0.92760  0.18310  1.0000
  C   C40       1.0  0.70500  0.42760  0.31690  1.0000
  C   C41       1.0  0.41310  0.08630  0.01400  1.0000
  C   C42       1.0  0.08690  0.58630  0.48600  1.0000
  C   C43       1.0  0.58690  0.91370  0.98600  1.0000
  C   C44       1.0  0.91310  0.41370  0.51400  1.0000
  C   C45       1.0  0.48930  0.29590  0.08100  1.0000
  C   C46       1.0  0.01070  0.79590  0.41900  1.0000
  C   C47       1.0  0.51070  0.70410  0.91900  1.0000
  C   C48       1.0  0.98930  0.20410  0.58100  1.0000
  C   C49       1.0  0.47080  0.33560  0.04580  1.0000
  C   C50       1.0  0.02920  0.83560  0.45420  1.0000
  C   C51       1.0  0.52920  0.66440  0.95420  1.0000
  C   C52       1.0  0.97080  0.16440  0.54580  1.0000
  C   C53       1.0  0.44910  0.37610  0.07610  1.0000
  C   C54       1.0  0.05090  0.87610  0.42390  1.0000
  C   C55       1.0  0.55090  0.62390  0.92390  1.0000
  C   C56       1.0  0.94910  0.12390  0.57610  1.0000
  C   C57       1.0  0.44520  0.37820  0.14050  1.0000
  C   C58       1.0  0.05480  0.87820  0.35950  1.0000
  C   C59       1.0  0.55480  0.62180  0.85950  1.0000
  C   C60       1.0  0.94520  0.12180  0.64050  1.0000
  C   C61       1.0  0.46240  0.33860  0.17380  1.0000
  C   C62       1.0  0.03760  0.83860  0.32620  1.0000
  C   C63       1.0  0.53760  0.66140  0.82620  1.0000
  C   C64       1.0  0.96240  0.16140  0.67380  1.0000
  C   C65       1.0  0.48370  0.29790  0.14520  1.0000
  C   C66       1.0  0.01630  0.79790  0.35480  1.0000
  C   C67       1.0  0.51630  0.70210  0.85480  1.0000
  C   C68       1.0  0.98370  0.20210  0.64520  1.0000
  C   C69       1.0  0.47590  0.33510  0.97730  1.0000
  C   C70       1.0  0.02410  0.83510  0.52270  1.0000
  C   C71       1.0  0.52410  0.66490  0.02270  1.0000
  C   C72       1.0  0.97590  0.16490  0.47730  1.0000
  C   C73       1.0  0.42280  0.42310  0.17230  1.0000
  C   C74       1.0  0.07720  0.92310  0.32770  1.0000
  C   C75       1.0  0.57720  0.57690  0.82770  1.0000
  C   C76       1.0  0.92280  0.07690  0.67230  1.0000
  C   C77       1.0  0.49890  0.25510  0.18400  1.0000
  C   C78       1.0  0.00110  0.75510  0.31600  1.0000
  C   C79       1.0  0.50110  0.74490  0.81600  1.0000
  C   C80       1.0  0.99890  0.24490  0.68400  1.0000
  C   C81       1.0  0.01420  0.15700  0.05170  1.0000
  C   C82       1.0  0.48580  0.65700  0.44830  1.0000
  C   C83       1.0  0.98580  0.84300  0.94830  1.0000
  C   C84       1.0  0.51420  0.34300  0.55170  1.0000
  C   C85       1.0  0.03940  0.22820  0.97260  1.0000
  C   C86       1.0  0.46060  0.72820  0.52740  1.0000
  C   C87       1.0  0.96060  0.77180  0.02740  1.0000
  C   C88       1.0  0.53940  0.27180  0.47260  1.0000
  C   C89       1.0  0.04450  0.11730  0.09030  1.0000
  C   C90       1.0  0.45550  0.61730  0.40970  1.0000
  C   C91       1.0  0.95550  0.88270  0.90970  1.0000
  C   C92       1.0  0.54450  0.38270  0.59030  1.0000
  C   C93       1.0  0.05910  0.12160  0.15520  1.0000
  C   C94       1.0  0.44090  0.62160  0.34480  1.0000
  C   C95       1.0  0.94090  0.87840  0.84480  1.0000
  C   C96       1.0  0.55910  0.37840  0.65520  1.0000
  C   C97       1.0  0.09700  0.08440  0.18730  1.0000
  C   C98       1.0  0.40300  0.58440  0.31270  1.0000
  C   C99       1.0  0.90300  0.91560  0.81270  1.0000
  C   C100      1.0  0.59700  0.41560  0.68730  1.0000
  C   C101      1.0  0.11420  0.04230  0.15980  1.0000
  C   C102      1.0  0.38580  0.54230  0.34020  1.0000
  C   C103      1.0  0.88580  0.95770  0.84020  1.0000
  C   C104      1.0  0.61420  0.45770  0.65980  1.0000
  C   C105      1.0  0.09720  0.03810  0.09680  1.0000
  C   C106      1.0  0.40280  0.53810  0.40320  1.0000
  C   C107      1.0  0.90280  0.96190  0.90320  1.0000
  C   C108      1.0  0.59720  0.46190  0.59680  1.0000
  C   C109      1.0  0.06560  0.07550  0.06090  1.0000
  C   C110      1.0  0.43440  0.57550  0.43910  1.0000
  C   C111      1.0  0.93440  0.92450  0.93910  1.0000
  C   C112      1.0  0.56560  0.42450  0.56090  1.0000
  C   C113      1.0  0.04340  0.16570  0.18680  1.0000
  C   C114      1.0  0.45660  0.66570  0.31320  1.0000
  C   C115      1.0  0.95660  0.83430  0.81320  1.0000
  C   C116      1.0  0.54340  0.33430  0.68680  1.0000
  C   C117      1.0  0.14760  0.00110  0.19720  1.0000
  C   C118      1.0  0.35240  0.50110  0.30280  1.0000
  C   C119      1.0  0.85240  0.99890  0.80280  1.0000
  C   C120      1.0  0.64760  0.49890  0.69720  1.0000
  C   C121      1.0  0.05260  0.06990  0.99280  1.0000
  C   C122      1.0  0.44740  0.56990  0.50720  1.0000
  C   C123      1.0  0.94740  0.93010  0.00720  1.0000
  C   C124      1.0  0.55260  0.43010  0.49280  1.0000
  C   C125      1.0  0.10180  0.25950  0.93310  1.0000
  C   C126      1.0  0.39820  0.75950  0.56690  1.0000
  C   C127      1.0  0.89820  0.74050  0.06690  1.0000
  C   C128      1.0  0.60180  0.24050  0.43310  1.0000
  C   C129      1.0  0.13100  0.24570  0.87320  1.0000
  C   C130      1.0  0.36900  0.74570  0.62680  1.0000
  C   C131      1.0  0.86900  0.75430  0.12680  1.0000
  C   C132      1.0  0.63100  0.25430  0.37320  1.0000
  C   C133      1.0  0.19960  0.27350  0.83890  1.0000
  C   C134      1.0  0.30040  0.77350  0.66110  1.0000
  C   C135      1.0  0.80040  0.72650  0.16110  1.0000
  C   C136      1.0  0.69960  0.22650  0.33890  1.0000
  C   C137      1.0  0.23900  0.31270  0.86090  1.0000
  C   C138      1.0  0.26100  0.81270  0.63910  1.0000
  C   C139      1.0  0.76100  0.68730  0.13910  1.0000
  C   C140      1.0  0.73900  0.18730  0.36090  1.0000
  C   C141      1.0  0.20670  0.32750  0.92020  1.0000
  C   C142      1.0  0.29330  0.82750  0.57980  1.0000
  C   C143      1.0  0.79330  0.67250  0.07980  1.0000
  C   C144      1.0  0.70670  0.17250  0.42020  1.0000
  C   C145      1.0  0.13870  0.30130  0.95620  1.0000
  C   C146      1.0  0.36130  0.80130  0.54380  1.0000
  C   C147      1.0  0.86130  0.69870  0.04380  1.0000
  C   C148      1.0  0.63870  0.19870  0.45620  1.0000
  C   C149      1.0  0.09110  0.20190  0.84650  1.0000
  C   C150      1.0  0.40890  0.70190  0.65350  1.0000
  C   C151      1.0  0.90890  0.79810  0.15350  1.0000
  C   C152      1.0  0.59110  0.29810  0.34650  1.0000
  C   C153      1.0  0.31630  0.34160  0.82550  1.0000
  C   C154      1.0  0.18370  0.84160  0.67450  1.0000
  C   C155      1.0  0.68370  0.65840  0.17450  1.0000
  C   C156      1.0  0.81630  0.15840  0.32550  1.0000
  C   C157      1.0  0.10790  0.31960  0.01940  1.0000
  C   C158      1.0  0.39210  0.81960  0.48060  1.0000
  C   C159      1.0  0.89210  0.68040  0.98060  1.0000
  C   C160      1.0  0.60790  0.18040  0.51940  1.0000
  C   C161      1.0  0.20500  0.28180  0.16180  1.0000
  C   C162      1.0  0.29500  0.78180  0.33820  1.0000
  C   C163      1.0  0.79500  0.71820  0.83820  1.0000
  C   C164      1.0  0.70500  0.21820  0.66180  1.0000
  C   C165      1.0  0.16790  0.31790  0.20110  1.0000
  C   C166      1.0  0.33210  0.81790  0.29890  1.0000
  C   C167      1.0  0.83210  0.68210  0.79890  1.0000
  C   C168      1.0  0.66790  0.18210  0.70110  1.0000
  C   C169      1.0  0.33470  0.12240  0.15060  1.0000
  C   C170      1.0  0.16530  0.62240  0.34940  1.0000
  C   C171      1.0  0.66530  0.87760  0.84940  1.0000
  C   C172      1.0  0.83470  0.37760  0.65060  1.0000
  C   C173      1.0  0.37300  0.08040  0.17830  1.0000
  C   C174      1.0  0.12700  0.58040  0.32170  1.0000
  C   C175      1.0  0.62700  0.91960  0.82170  1.0000
  C   C176      1.0  0.87300  0.41960  0.67830  1.0000
  H   H1        1.0  0.31460  0.14890  0.79580  1.0000
  H   H2        1.0  0.18540  0.64890  0.70420  1.0000
  H   H3        1.0  0.68540  0.85110  0.20420  1.0000
  H   H4        1.0  0.81460  0.35110  0.29580  1.0000
  H   H5        1.0  0.28390  0.05540  0.92760  1.0000
  H   H6        1.0  0.21610  0.55540  0.57240  1.0000
  H   H7        1.0  0.71610  0.94460  0.07240  1.0000
  H   H8        1.0  0.78390  0.44460  0.42760  1.0000
  H   H9        1.0  0.51380  0.20830  0.84690  1.0000
  H   H10       1.0  0.98620  0.70830  0.65310  1.0000
  H   H11       1.0  0.48620  0.79170  0.15310  1.0000
  H   H12       1.0  0.01380  0.29170  0.34690  1.0000
  H   H13       1.0  0.41690  0.23230  0.87840  1.0000
  H   H14       1.0  0.08310  0.73230  0.62160  1.0000
  H   H15       1.0  0.58310  0.76770  0.12160  1.0000
  H   H16       1.0  0.91690  0.26770  0.37840  1.0000
  H   H17       1.0  0.40740  0.21530  0.81030  1.0000
  H   H18       1.0  0.09260  0.71530  0.68970  1.0000
  H   H19       1.0  0.59260  0.78470  0.18970  1.0000
  H   H20       1.0  0.90740  0.28470  0.31030  1.0000
  H   H21       1.0  0.13410  0.08260  0.82550  1.0000
  H   H22       1.0  0.36590  0.58260  0.67450  1.0000
  H   H23       1.0  0.86590  0.91740  0.17450  1.0000
  H   H24       1.0  0.63410  0.41740  0.32550  1.0000
  H   H25       1.0  0.21060  0.04050  0.82570  1.0000
  H   H26       1.0  0.28940  0.54050  0.67430  1.0000
  H   H27       1.0  0.78940  0.95950  0.17430  1.0000
  H   H28       1.0  0.71060  0.45950  0.32570  1.0000
  H   H29       1.0  0.22090  0.07760  0.77430  1.0000
  H   H30       1.0  0.27910  0.57760  0.72570  1.0000
  H   H31       1.0  0.77910  0.92240  0.22570  1.0000
  H   H32       1.0  0.72090  0.42240  0.27430  1.0000
  H   H33       1.0  0.35850  0.09240  0.04360  1.0000
  H   H34       1.0  0.14150  0.59240  0.45640  1.0000
  H   H35       1.0  0.64150  0.90760  0.95640  1.0000
  H   H36       1.0  0.85850  0.40760  0.54360  1.0000
  H   H37       1.0  0.47880  0.09980  0.02740  1.0000
  H   H38       1.0  0.02120  0.59980  0.47260  1.0000
  H   H39       1.0  0.52120  0.90020  0.97260  1.0000
  H   H40       1.0  0.97880  0.40020  0.52740  1.0000
  H   H41       1.0  0.42220  0.05410  0.00980  1.0000
  H   H42       1.0  0.07780  0.55410  0.49020  1.0000
  H   H43       1.0  0.57780  0.94590  0.99020  1.0000
  H   H44       1.0  0.92220  0.44590  0.50980  1.0000
  H   H45       1.0  0.43680  0.40240  0.05330  1.0000
  H   H46       1.0  0.06320  0.90240  0.44670  1.0000
  H   H47       1.0  0.56320  0.59760  0.94670  1.0000
  H   H48       1.0  0.93680  0.09760  0.55330  1.0000
  H   H49       1.0  0.45930  0.33960  0.21650  1.0000
  H   H50       1.0  0.04070  0.83960  0.28350  1.0000
  H   H51       1.0  0.54070  0.66040  0.78350  1.0000
  H   H52       1.0  0.95930  0.16040  0.71650  1.0000
  H   H53       1.0  0.45070  0.36360  0.96150  1.0000
  H   H54       1.0  0.04930  0.86360  0.53850  1.0000
  H   H55       1.0  0.54930  0.63640  0.03850  1.0000
  H   H56       1.0  0.95070  0.13640  0.46150  1.0000
  H   H57       1.0  0.43220  0.31100  0.96170  1.0000
  H   H58       1.0  0.06780  0.81100  0.53830  1.0000
  H   H59       1.0  0.56780  0.68900  0.03830  1.0000
  H   H60       1.0  0.93220  0.18900  0.46170  1.0000
  H   H61       1.0  0.54820  0.33050  0.96450  1.0000
  H   H62       1.0  0.95180  0.83050  0.53550  1.0000
  H   H63       1.0  0.45180  0.66950  0.03550  1.0000
  H   H64       1.0  0.04820  0.16950  0.46450  1.0000
  H   H65       1.0  0.38310  0.41770  0.20930  1.0000
  H   H66       1.0  0.11690  0.91770  0.29070  1.0000
  H   H67       1.0  0.61690  0.58230  0.79070  1.0000
  H   H68       1.0  0.88310  0.08230  0.70930  1.0000
  H   H69       1.0  0.38230  0.44240  0.14530  1.0000
  H   H70       1.0  0.11770  0.94240  0.35470  1.0000
  H   H71       1.0  0.61770  0.55760  0.85470  1.0000
  H   H72       1.0  0.88230  0.05760  0.64530  1.0000
  H   H73       1.0  0.48890  0.43780  0.18250  1.0000
  H   H74       1.0  0.01110  0.93780  0.31750  1.0000
  H   H75       1.0  0.51110  0.56220  0.81750  1.0000
  H   H76       1.0  0.98890  0.06220  0.68250  1.0000
  H   H77       1.0  0.57360  0.24920  0.18890  1.0000
  H   H78       1.0  0.92640  0.74920  0.31110  1.0000
  H   H79       1.0  0.42640  0.75080  0.81110  1.0000
  H   H80       1.0  0.07360  0.25080  0.68890  1.0000
  H   H81       1.0  0.46570  0.22980  0.16370  1.0000
  H   H82       1.0  0.03430  0.72980  0.33630  1.0000
  H   H83       1.0  0.53430  0.77020  0.83630  1.0000
  H   H84       1.0  0.96570  0.27020  0.66370  1.0000
  H   H85       1.0  0.46700  0.25950  0.22360  1.0000
  H   H86       1.0  0.03300  0.75950  0.27640  1.0000
  H   H87       1.0  0.53300  0.74050  0.77640  1.0000
  H   H88       1.0  0.96700  0.24050  0.72360  1.0000
  H   H89       1.0  0.11160  0.08760  0.22910  1.0000
  H   H90       1.0  0.38840  0.58760  0.27090  1.0000
  H   H91       1.0  0.88840  0.91240  0.77090  1.0000
  H   H92       1.0  0.61160  0.41240  0.72910  1.0000
  H   H93       1.0  0.10690  0.01000  0.07810  1.0000
  H   H94       1.0  0.39310  0.51000  0.42190  1.0000
  H   H95       1.0  0.89310  0.99000  0.92190  1.0000
  H   H96       1.0  0.60690  0.49000  0.57810  1.0000
  H   H97       1.0  0.05480  0.16190  0.23020  1.0000
  H   H98       1.0  0.44520  0.66190  0.26980  1.0000
  H   H99       1.0  0.94520  0.83810  0.76980  1.0000
  H   H100      1.0  0.55480  0.33810  0.73020  1.0000
  H   H101      1.0  0.97220  0.17620  0.17970  1.0000
  H   H102      1.0  0.52780  0.67620  0.32030  1.0000
  H   H103      1.0  0.02780  0.82380  0.82030  1.0000
  H   H104      1.0  0.47220  0.32380  0.67970  1.0000
  H   H105      1.0  0.09310  0.18750  0.17110  1.0000
  H   H106      1.0  0.40690  0.68750  0.32890  1.0000
  H   H107      1.0  0.90690  0.81250  0.82890  1.0000
  H   H108      1.0  0.59310  0.31250  0.67110  1.0000
  H   H109      1.0  0.17350  0.97790  0.17020  1.0000
  H   H110      1.0  0.32650  0.47790  0.32980  1.0000
  H   H111      1.0  0.82650  0.02210  0.82980  1.0000
  H   H112      1.0  0.67350  0.52210  0.67020  1.0000
  H   H113      1.0  0.08750  0.98980  0.21970  1.0000
  H   H114      1.0  0.41250  0.48980  0.28030  1.0000
  H   H115      1.0  0.91250  0.01020  0.78030  1.0000
  H   H116      1.0  0.58750  0.51020  0.71970  1.0000
  H   H117      1.0  0.20290  0.00970  0.22550  1.0000
  H   H118      1.0  0.29710  0.50970  0.27450  1.0000
  H   H119      1.0  0.79710  0.99030  0.77450  1.0000
  H   H120      1.0  0.70290  0.49030  0.72550  1.0000
  H   H121      1.0  0.06590  0.03880  0.98180  1.0000
  H   H122      1.0  0.43410  0.53880  0.51820  1.0000
  H   H123      1.0  0.93410  0.96120  0.01820  1.0000
  H   H124      1.0  0.56590  0.46120  0.48180  1.0000
  H   H125      1.0  0.10230  0.08920  0.97190  1.0000
  H   H126      1.0  0.39770  0.58920  0.52810  1.0000
  H   H127      1.0  0.89770  0.91080  0.02810  1.0000
  H   H128      1.0  0.60230  0.41080  0.47190  1.0000
  H   H129      1.0  0.98140  0.07800  0.98110  1.0000
  H   H130      1.0  0.51860  0.57800  0.51890  1.0000
  H   H131      1.0  0.01860  0.92200  0.01890  1.0000
  H   H132      1.0  0.48140  0.42200  0.48110  1.0000
  H   H133      1.0  0.21870  0.26430  0.79950  1.0000
  H   H134      1.0  0.28130  0.76430  0.70050  1.0000
  H   H135      1.0  0.78130  0.73570  0.20050  1.0000
  H   H136      1.0  0.71870  0.23570  0.29950  1.0000
  H   H137      1.0  0.23140  0.35510  0.93530  1.0000
  H   H138      1.0  0.26860  0.85510  0.56470  1.0000
  H   H139      1.0  0.76860  0.64490  0.06470  1.0000
  H   H140      1.0  0.73140  0.14490  0.43530  1.0000
  H   H141      1.0  0.12110  0.19760  0.80630  1.0000
  H   H142      1.0  0.37890  0.69760  0.69370  1.0000
  H   H143      1.0  0.87890  0.80240  0.19370  1.0000
  H   H144      1.0  0.62110  0.30240  0.30630  1.0000
  H   H145      1.0  0.01500  0.20280  0.84340  1.0000
  H   H146      1.0  0.48500  0.70280  0.65660  1.0000
  H   H147      1.0  0.98500  0.79720  0.15660  1.0000
  H   H148      1.0  0.51500  0.29720  0.34340  1.0000
  H   H149      1.0  0.11190  0.17720  0.87260  1.0000
  H   H150      1.0  0.38810  0.67720  0.62740  1.0000
  H   H151      1.0  0.88810  0.82280  0.12740  1.0000
  H   H152      1.0  0.61190  0.32280  0.37260  1.0000
  H   H153      1.0  0.38700  0.33650  0.84080  1.0000
  H   H154      1.0  0.11300  0.83650  0.65920  1.0000
  H   H155      1.0  0.61300  0.66350  0.15920  1.0000
  H   H156      1.0  0.88700  0.16350  0.34080  1.0000
  H   H157      1.0  0.29800  0.37300  0.83060  1.0000
  H   H158      1.0  0.20200  0.87300  0.66940  1.0000
  H   H159      1.0  0.70200  0.62700  0.16940  1.0000
  H   H160      1.0  0.79800  0.12700  0.33060  1.0000
  H   H161      1.0  0.31300  0.33370  0.78270  1.0000
  H   H162      1.0  0.18700  0.83370  0.71730  1.0000
  H   H163      1.0  0.68700  0.66630  0.21730  1.0000
  H   H164      1.0  0.81300  0.16630  0.28270  1.0000
  H   H165      1.0  0.16860  0.33390  0.03810  1.0000
  H   H166      1.0  0.33140  0.83390  0.46190  1.0000
  H   H167      1.0  0.83140  0.66610  0.96190  1.0000
  H   H168      1.0  0.66860  0.16610  0.53810  1.0000
  H   H169      1.0  0.08390  0.29510  0.04490  1.0000
  H   H170      1.0  0.41610  0.79510  0.45510  1.0000
  H   H171      1.0  0.91610  0.70490  0.95510  1.0000
  H   H172      1.0  0.58390  0.20490  0.54490  1.0000
  H   H173      1.0  0.05180  0.34150  0.01490  1.0000
  H   H174      1.0  0.44820  0.84150  0.48510  1.0000
  H   H175      1.0  0.94820  0.65850  0.98510  1.0000
  H   H176      1.0  0.55180  0.15850  0.51490  1.0000
  H   H177      1.0  0.18730  0.34670  0.18360  1.0000
  H   H178      1.0  0.31270  0.84670  0.31640  1.0000
  H   H179      1.0  0.81270  0.65330  0.81640  1.0000
  H   H180      1.0  0.68730  0.15330  0.68360  1.0000
  H   H181      1.0  0.19980  0.31490  0.24110  1.0000
  H   H182      1.0  0.30020  0.81490  0.25890  1.0000
  H   H183      1.0  0.80020  0.68510  0.75890  1.0000
  H   H184      1.0  0.69980  0.18510  0.74110  1.0000
  H   H185      1.0  0.09190  0.31620  0.20470  1.0000
  H   H186      1.0  0.40810  0.81620  0.29530  1.0000
  H   H187      1.0  0.90810  0.68380  0.79530  1.0000
  H   H188      1.0  0.59190  0.18380  0.70470  1.0000
  H   H189      1.0  0.34140  0.05500  0.15750  1.0000
  H   H190      1.0  0.15860  0.55500  0.34250  1.0000
  H   H191      1.0  0.65860  0.94500  0.84250  1.0000
  H   H192      1.0  0.84140  0.44500  0.65750  1.0000
  H   H193      1.0  0.35400  0.07970  0.22100  1.0000
  H   H194      1.0  0.14600  0.57970  0.27900  1.0000
  H   H195      1.0  0.64600  0.92030  0.77900  1.0000
  H   H196      1.0  0.85400  0.42030  0.72100  1.0000
  H   H197      1.0  0.44900  0.07890  0.17440  1.0000
  H   H198      1.0  0.05100  0.57890  0.32560  1.0000
  H   H199      1.0  0.55100  0.92110  0.82560  1.0000
  H   H200      1.0  0.94900  0.42110  0.67440  1.0000
