data_image0
_chemical_formula_structural       U18O108C36O36C18O18C18H36C18H36O18N54O18C18H36C18H36C72H36C18H36
_chemical_formula_sum              "U18 O198 C216 H216 N54"
_cell_length_a       15.8019
_cell_length_b       15.8019
_cell_length_c       45.068
_cell_angle_alpha    90
_cell_angle_beta     90
_cell_angle_gamma    120

_space_group_name_H-M_alt    "P 1"
_space_group_IT_number       1

loop_
  _space_group_symop_operation_xyz
  'x, y, z'

loop_
  _atom_site_type_symbol
  _atom_site_label
  _atom_site_symmetry_multiplicity
  _atom_site_fract_x
  _atom_site_fract_y
  _atom_site_fract_z
  _atom_site_occupancy
  U   U1        1.0  0.43574  0.43134  0.55626  1.0000
  U   U2        1.0  0.56866  0.00440  0.55626  1.0000
  U   U3        1.0  0.99560  0.56426  0.55626  1.0000
  U   U4        1.0  0.99560  0.43134  0.05626  1.0000
  U   U5        1.0  0.43574  0.00440  0.05626  1.0000
  U   U6        1.0  0.56866  0.56426  0.05626  1.0000
  U   U7        1.0  0.10240  0.76467  0.88959  1.0000
  U   U8        1.0  0.23533  0.33773  0.88959  1.0000
  U   U9        1.0  0.66227  0.89760  0.88959  1.0000
  U   U10       1.0  0.66227  0.76467  0.38959  1.0000
  U   U11       1.0  0.10240  0.33773  0.38959  1.0000
  U   U12       1.0  0.23533  0.89760  0.38959  1.0000
  U   U13       1.0  0.76907  0.09801  0.22293  1.0000
  U   U14       1.0  0.90199  0.67106  0.22293  1.0000
  U   U15       1.0  0.32894  0.23093  0.22293  1.0000
  U   U16       1.0  0.32894  0.09801  0.72293  1.0000
  U   U17       1.0  0.76907  0.67106  0.72293  1.0000
  U   U18       1.0  0.90199  0.23093  0.72293  1.0000
  O   O1        1.0  0.17590  0.66360  0.55562  1.0000
  O   O2        1.0  0.33640  0.51230  0.55562  1.0000
  O   O3        1.0  0.48770  0.82410  0.55562  1.0000
  O   O4        1.0  0.48770  0.66360  0.05562  1.0000
  O   O5        1.0  0.17590  0.51230  0.05562  1.0000
  O   O6        1.0  0.33640  0.82410  0.05562  1.0000
  O   O7        1.0  0.84257  0.99693  0.88895  1.0000
  O   O8        1.0  0.00307  0.84563  0.88895  1.0000
  O   O9        1.0  0.15437  0.15743  0.88895  1.0000
  O   O10       1.0  0.15437  0.99693  0.38895  1.0000
  O   O11       1.0  0.84257  0.84563  0.38895  1.0000
  O   O12       1.0  0.00307  0.15743  0.38895  1.0000
  O   O13       1.0  0.50923  0.33027  0.22229  1.0000
  O   O14       1.0  0.66973  0.17897  0.22229  1.0000
  O   O15       1.0  0.82103  0.49077  0.22229  1.0000
  O   O16       1.0  0.82103  0.33027  0.72229  1.0000
  O   O17       1.0  0.50923  0.17897  0.72229  1.0000
  O   O18       1.0  0.66973  0.49077  0.72229  1.0000
  O   O19       1.0  0.51770  0.33360  0.55040  1.0000
  O   O20       1.0  0.66640  0.18410  0.55040  1.0000
  O   O21       1.0  0.81590  0.48230  0.55040  1.0000
  O   O22       1.0  0.81590  0.33360  0.05040  1.0000
  O   O23       1.0  0.51770  0.18410  0.05040  1.0000
  O   O24       1.0  0.66640  0.48230  0.05040  1.0000
  O   O25       1.0  0.18437  0.66693  0.88373  1.0000
  O   O26       1.0  0.33307  0.51743  0.88373  1.0000
  O   O27       1.0  0.48257  0.81563  0.88373  1.0000
  O   O28       1.0  0.48257  0.66693  0.38373  1.0000
  O   O29       1.0  0.18437  0.51743  0.38373  1.0000
  O   O30       1.0  0.33307  0.81563  0.38373  1.0000
  O   O31       1.0  0.85103  0.00027  0.21707  1.0000
  O   O32       1.0  0.99973  0.85077  0.21707  1.0000
  O   O33       1.0  0.14923  0.14897  0.21707  1.0000
  O   O34       1.0  0.14923  0.00027  0.71707  1.0000
  O   O35       1.0  0.85103  0.85077  0.71707  1.0000
  O   O36       1.0  0.99973  0.14897  0.71707  1.0000
  O   O37       1.0  0.73390  0.90860  0.42385  1.0000
  O   O38       1.0  0.09140  0.82530  0.42385  1.0000
  O   O39       1.0  0.17470  0.26610  0.42385  1.0000
  O   O40       1.0  0.17470  0.90860  0.92385  1.0000
  O   O41       1.0  0.73390  0.82530  0.92385  1.0000
  O   O42       1.0  0.09140  0.26610  0.92385  1.0000
  O   O43       1.0  0.40057  0.24193  0.75718  1.0000
  O   O44       1.0  0.75807  0.15863  0.75718  1.0000
  O   O45       1.0  0.84137  0.59943  0.75718  1.0000
  O   O46       1.0  0.84137  0.24193  0.25718  1.0000
  O   O47       1.0  0.40057  0.15863  0.25718  1.0000
  O   O48       1.0  0.75807  0.59943  0.25718  1.0000
  O   O49       1.0  0.06723  0.57527  0.09052  1.0000
  O   O50       1.0  0.42473  0.49197  0.09052  1.0000
  O   O51       1.0  0.50803  0.93277  0.09052  1.0000
  O   O52       1.0  0.50803  0.57527  0.59052  1.0000
  O   O53       1.0  0.06723  0.49197  0.59052  1.0000
  O   O54       1.0  0.42473  0.93277  0.59052  1.0000
  O   O55       1.0  0.09570  0.70330  0.52423  1.0000
  O   O56       1.0  0.29670  0.39240  0.52423  1.0000
  O   O57       1.0  0.60760  0.90430  0.52423  1.0000
  O   O58       1.0  0.60760  0.70330  0.02423  1.0000
  O   O59       1.0  0.09570  0.39240  0.02423  1.0000
  O   O60       1.0  0.29670  0.90430  0.02423  1.0000
  O   O61       1.0  0.76237  0.03663  0.85756  1.0000
  O   O62       1.0  0.96337  0.72573  0.85756  1.0000
  O   O63       1.0  0.27427  0.23763  0.85756  1.0000
  O   O64       1.0  0.27427  0.03663  0.35756  1.0000
  O   O65       1.0  0.76237  0.72573  0.35756  1.0000
  O   O66       1.0  0.96337  0.23763  0.35756  1.0000
  O   O67       1.0  0.42903  0.36997  0.19090  1.0000
  O   O68       1.0  0.63003  0.05907  0.19090  1.0000
  O   O69       1.0  0.94093  0.57097  0.19090  1.0000
  O   O70       1.0  0.94093  0.36997  0.69090  1.0000
  O   O71       1.0  0.42903  0.05907  0.69090  1.0000
  O   O72       1.0  0.63003  0.57097  0.69090  1.0000
  O   O73       1.0  0.38790  0.28910  0.52348  1.0000
  O   O74       1.0  0.71090  0.09880  0.52348  1.0000
  O   O75       1.0  0.90120  0.61210  0.52348  1.0000
  O   O76       1.0  0.90120  0.28910  0.02348  1.0000
  O   O77       1.0  0.38790  0.09880  0.02348  1.0000
  O   O78       1.0  0.71090  0.61210  0.02348  1.0000
  O   O79       1.0  0.05457  0.62243  0.85681  1.0000
  O   O80       1.0  0.37757  0.43213  0.85681  1.0000
  O   O81       1.0  0.56787  0.94543  0.85681  1.0000
  O   O82       1.0  0.56787  0.62243  0.35681  1.0000
  O   O83       1.0  0.05457  0.43213  0.35681  1.0000
  O   O84       1.0  0.37757  0.94543  0.35681  1.0000
  O   O85       1.0  0.72123  0.95577  0.19015  1.0000
  O   O86       1.0  0.04423  0.76547  0.19015  1.0000
  O   O87       1.0  0.23453  0.27877  0.19015  1.0000
  O   O88       1.0  0.23453  0.95577  0.69015  1.0000
  O   O89       1.0  0.72123  0.76547  0.69015  1.0000
  O   O90       1.0  0.04423  0.27877  0.69015  1.0000
  O   O91       1.0  0.57520  0.82080  0.42078  1.0000
  O   O92       1.0  0.17920  0.75440  0.42078  1.0000
  O   O93       1.0  0.24560  0.42480  0.42078  1.0000
  O   O94       1.0  0.24560  0.82080  0.92078  1.0000
  O   O95       1.0  0.57520  0.75440  0.92078  1.0000
  O   O96       1.0  0.17920  0.42480  0.92078  1.0000
  O   O97       1.0  0.24187  0.15413  0.75411  1.0000
  O   O98       1.0  0.84587  0.08773  0.75411  1.0000
  O   O99       1.0  0.91227  0.75813  0.75411  1.0000
  O   O100      1.0  0.91227  0.15413  0.25411  1.0000
  O   O101      1.0  0.24187  0.08773  0.25411  1.0000
  O   O102      1.0  0.84587  0.75813  0.25411  1.0000
  O   O103      1.0  0.90853  0.48747  0.08745  1.0000
  O   O104      1.0  0.51253  0.42107  0.08745  1.0000
  O   O105      1.0  0.57893  0.09147  0.08745  1.0000
  O   O106      1.0  0.57893  0.48747  0.58745  1.0000
  O   O107      1.0  0.90853  0.42107  0.58745  1.0000
  O   O108      1.0  0.51253  0.09147  0.58745  1.0000
  C   C1        1.0  0.45980  0.28000  0.53070  1.0000
  C   C2        1.0  0.72000  0.17980  0.53070  1.0000
  C   C3        1.0  0.82020  0.54020  0.53070  1.0000
  C   C4        1.0  0.82020  0.28000  0.03070  1.0000
  C   C5        1.0  0.45980  0.17980  0.03070  1.0000
  C   C6        1.0  0.72000  0.54020  0.03070  1.0000
  C   C7        1.0  0.12647  0.61333  0.86403  1.0000
  C   C8        1.0  0.38667  0.51313  0.86403  1.0000
  C   C9        1.0  0.48687  0.87353  0.86403  1.0000
  C   C10       1.0  0.48687  0.61333  0.36403  1.0000
  C   C11       1.0  0.12647  0.51313  0.36403  1.0000
  C   C12       1.0  0.38667  0.87353  0.36403  1.0000
  C   C13       1.0  0.79313  0.94667  0.19737  1.0000
  C   C14       1.0  0.05333  0.84647  0.19737  1.0000
  C   C15       1.0  0.15353  0.20687  0.19737  1.0000
  C   C16       1.0  0.15353  0.94667  0.69737  1.0000
  C   C17       1.0  0.79313  0.84647  0.69737  1.0000
  C   C18       1.0  0.05333  0.20687  0.69737  1.0000
  C   C19       1.0  0.65010  0.89810  0.43000  1.0000
  C   C20       1.0  0.10190  0.75200  0.43000  1.0000
  C   C21       1.0  0.24800  0.34990  0.43000  1.0000
  C   C22       1.0  0.24800  0.89810  0.93000  1.0000
  C   C23       1.0  0.65010  0.75200  0.93000  1.0000
  C   C24       1.0  0.10190  0.34990  0.93000  1.0000
  C   C25       1.0  0.31677  0.23143  0.76333  1.0000
  C   C26       1.0  0.76857  0.08533  0.76333  1.0000
  C   C27       1.0  0.91467  0.68323  0.76333  1.0000
  C   C28       1.0  0.91467  0.23143  0.26333  1.0000
  C   C29       1.0  0.31677  0.08533  0.26333  1.0000
  C   C30       1.0  0.76857  0.68323  0.26333  1.0000
  C   C31       1.0  0.98343  0.56477  0.09667  1.0000
  C   C32       1.0  0.43523  0.41867  0.09667  1.0000
  C   C33       1.0  0.58133  0.01657  0.09667  1.0000
  C   C34       1.0  0.58133  0.56477  0.59667  1.0000
  C   C35       1.0  0.98343  0.41867  0.59667  1.0000
  C   C36       1.0  0.43523  0.01657  0.59667  1.0000
  O   O109      1.0  0.51250  0.51030  0.52813  1.0000
  O   O110      1.0  0.48970  0.00220  0.52813  1.0000
  O   O111      1.0  0.99780  0.48750  0.52813  1.0000
  O   O112      1.0  0.99780  0.51030  0.02813  1.0000
  O   O113      1.0  0.51250  0.00220  0.02813  1.0000
  O   O114      1.0  0.48970  0.48750  0.02813  1.0000
  O   O115      1.0  0.17917  0.84363  0.86146  1.0000
  O   O116      1.0  0.15637  0.33553  0.86146  1.0000
  O   O117      1.0  0.66447  0.82083  0.86146  1.0000
  O   O118      1.0  0.66447  0.84363  0.36146  1.0000
  O   O119      1.0  0.17917  0.33553  0.36146  1.0000
  O   O120      1.0  0.15637  0.82083  0.36146  1.0000
  O   O121      1.0  0.84583  0.17697  0.19480  1.0000
  O   O122      1.0  0.82303  0.66887  0.19480  1.0000
  O   O123      1.0  0.33113  0.15417  0.19480  1.0000
  O   O124      1.0  0.33113  0.17697  0.69480  1.0000
  O   O125      1.0  0.84583  0.66887  0.69480  1.0000
  O   O126      1.0  0.82303  0.15417  0.69480  1.0000
  O   O127      1.0  0.35890  0.35130  0.58428  1.0000
  O   O128      1.0  0.64870  0.00760  0.58428  1.0000
  O   O129      1.0  0.99240  0.64110  0.58428  1.0000
  O   O130      1.0  0.99240  0.35130  0.08428  1.0000
  O   O131      1.0  0.35890  0.00760  0.08428  1.0000
  O   O132      1.0  0.64870  0.64110  0.08428  1.0000
  O   O133      1.0  0.02557  0.68463  0.91761  1.0000
  O   O134      1.0  0.31537  0.34093  0.91761  1.0000
  O   O135      1.0  0.65907  0.97443  0.91761  1.0000
  O   O136      1.0  0.65907  0.68463  0.41761  1.0000
  O   O137      1.0  0.02557  0.34093  0.41761  1.0000
  O   O138      1.0  0.31537  0.97443  0.41761  1.0000
  O   O139      1.0  0.69223  0.01797  0.25095  1.0000
  O   O140      1.0  0.98203  0.67427  0.25095  1.0000
  O   O141      1.0  0.32573  0.30777  0.25095  1.0000
  O   O142      1.0  0.32573  0.01797  0.75095  1.0000
  O   O143      1.0  0.69223  0.67427  0.75095  1.0000
  O   O144      1.0  0.98203  0.30777  0.75095  1.0000
  C   C37       1.0  0.17570  0.71910  0.53470  1.0000
  C   C38       1.0  0.28090  0.45660  0.53470  1.0000
  C   C39       1.0  0.54340  0.82430  0.53470  1.0000
  C   C40       1.0  0.54340  0.71910  0.03470  1.0000
  C   C41       1.0  0.17570  0.45660  0.03470  1.0000
  C   C42       1.0  0.28090  0.82430  0.03470  1.0000
  C   C43       1.0  0.84237  0.05243  0.86803  1.0000
  C   C44       1.0  0.94757  0.78993  0.86803  1.0000
  C   C45       1.0  0.21007  0.15763  0.86803  1.0000
  C   C46       1.0  0.21007  0.05243  0.36803  1.0000
  C   C47       1.0  0.84237  0.78993  0.36803  1.0000
  C   C48       1.0  0.94757  0.15763  0.36803  1.0000
  C   C49       1.0  0.50903  0.38577  0.20137  1.0000
  C   C50       1.0  0.61423  0.12327  0.20137  1.0000
  C   C51       1.0  0.87673  0.49097  0.20137  1.0000
  C   C52       1.0  0.87673  0.38577  0.70137  1.0000
  C   C53       1.0  0.50903  0.12327  0.70137  1.0000
  C   C54       1.0  0.61423  0.49097  0.70137  1.0000
  O   O145      1.0  0.40780  0.82880  0.46221  1.0000
  O   O146      1.0  0.17120  0.57900  0.46221  1.0000
  O   O147      1.0  0.42100  0.59220  0.46221  1.0000
  O   O148      1.0  0.42100  0.82880  0.96221  1.0000
  O   O149      1.0  0.40780  0.57900  0.96221  1.0000
  O   O150      1.0  0.17120  0.59220  0.96221  1.0000
  O   O151      1.0  0.07447  0.16213  0.79554  1.0000
  O   O152      1.0  0.83787  0.91233  0.79554  1.0000
  O   O153      1.0  0.08767  0.92553  0.79554  1.0000
  O   O154      1.0  0.08767  0.16213  0.29554  1.0000
  O   O155      1.0  0.07447  0.91233  0.29554  1.0000
  O   O156      1.0  0.83787  0.92553  0.29554  1.0000
  O   O157      1.0  0.74113  0.49547  0.12888  1.0000
  O   O158      1.0  0.50453  0.24567  0.12888  1.0000
  O   O159      1.0  0.75433  0.25887  0.12888  1.0000
  O   O160      1.0  0.75433  0.49547  0.62888  1.0000
  O   O161      1.0  0.74113  0.24567  0.62888  1.0000
  O   O162      1.0  0.50453  0.25887  0.62888  1.0000
  C   C55       1.0  0.63710  0.97220  0.44740  1.0000
  C   C56       1.0  0.02780  0.66490  0.44740  1.0000
  C   C57       1.0  0.33510  0.36290  0.44740  1.0000
  C   C58       1.0  0.33510  0.97220  0.94740  1.0000
  C   C59       1.0  0.63710  0.66490  0.94740  1.0000
  C   C60       1.0  0.02780  0.36290  0.94740  1.0000
  C   C61       1.0  0.30377  0.30553  0.78073  1.0000
  C   C62       1.0  0.69447  0.99823  0.78073  1.0000
  C   C63       1.0  0.00177  0.69623  0.78073  1.0000
  C   C64       1.0  0.00177  0.30553  0.28073  1.0000
  C   C65       1.0  0.30377  0.99823  0.28073  1.0000
  C   C66       1.0  0.69447  0.69623  0.28073  1.0000
  C   C67       1.0  0.97043  0.63887  0.11407  1.0000
  C   C68       1.0  0.36113  0.33157  0.11407  1.0000
  C   C69       1.0  0.66843  0.02957  0.11407  1.0000
  C   C70       1.0  0.66843  0.63887  0.61407  1.0000
  C   C71       1.0  0.97043  0.33157  0.61407  1.0000
  C   C72       1.0  0.36113  0.02957  0.61407  1.0000
  H   H1        1.0  0.62060  0.95070  0.46780  1.0000
  H   H2        1.0  0.04930  0.66990  0.46780  1.0000
  H   H3        1.0  0.33010  0.37940  0.46780  1.0000
  H   H4        1.0  0.33010  0.95070  0.96780  1.0000
  H   H5        1.0  0.62060  0.66990  0.96780  1.0000
  H   H6        1.0  0.04930  0.37940  0.96780  1.0000
  H   H7        1.0  0.28727  0.28403  0.80113  1.0000
  H   H8        1.0  0.71597  0.00323  0.80113  1.0000
  H   H9        1.0  0.99677  0.71273  0.80113  1.0000
  H   H10       1.0  0.99677  0.28403  0.30113  1.0000
  H   H11       1.0  0.28727  0.00323  0.30113  1.0000
  H   H12       1.0  0.71597  0.71273  0.30113  1.0000
  H   H13       1.0  0.95393  0.61737  0.13447  1.0000
  H   H14       1.0  0.38263  0.33657  0.13447  1.0000
  H   H15       1.0  0.66343  0.04607  0.13447  1.0000
  H   H16       1.0  0.66343  0.61737  0.63447  1.0000
  H   H17       1.0  0.95393  0.33657  0.63447  1.0000
  H   H18       1.0  0.38263  0.04607  0.63447  1.0000
  H   H19       1.0  0.69750  0.03440  0.44740  1.0000
  H   H20       1.0  0.96560  0.66310  0.44740  1.0000
  H   H21       1.0  0.33690  0.30250  0.44740  1.0000
  H   H22       1.0  0.33690  0.03440  0.94740  1.0000
  H   H23       1.0  0.69750  0.66310  0.94740  1.0000
  H   H24       1.0  0.96560  0.30250  0.94740  1.0000
  H   H25       1.0  0.36417  0.36773  0.78073  1.0000
  H   H26       1.0  0.63227  0.99643  0.78073  1.0000
  H   H27       1.0  0.00357  0.63583  0.78073  1.0000
  H   H28       1.0  0.00357  0.36773  0.28073  1.0000
  H   H29       1.0  0.36417  0.99643  0.28073  1.0000
  H   H30       1.0  0.63227  0.63583  0.28073  1.0000
  H   H31       1.0  0.03083  0.70107  0.11407  1.0000
  H   H32       1.0  0.29893  0.32977  0.11407  1.0000
  H   H33       1.0  0.67023  0.96917  0.11407  1.0000
  H   H34       1.0  0.67023  0.70107  0.61407  1.0000
  H   H35       1.0  0.03083  0.32977  0.61407  1.0000
  H   H36       1.0  0.29893  0.96917  0.61407  1.0000
  C   C73       1.0  0.47520  0.20320  0.51600  1.0000
  C   C74       1.0  0.79680  0.27200  0.51600  1.0000
  C   C75       1.0  0.72800  0.52480  0.51600  1.0000
  C   C76       1.0  0.72800  0.20320  0.01600  1.0000
  C   C77       1.0  0.47520  0.27200  0.01600  1.0000
  C   C78       1.0  0.79680  0.52480  0.01600  1.0000
  C   C79       1.0  0.14187  0.53653  0.84933  1.0000
  C   C80       1.0  0.46347  0.60533  0.84933  1.0000
  C   C81       1.0  0.39467  0.85813  0.84933  1.0000
  C   C82       1.0  0.39467  0.53653  0.34933  1.0000
  C   C83       1.0  0.14187  0.60533  0.34933  1.0000
  C   C84       1.0  0.46347  0.85813  0.34933  1.0000
  C   C85       1.0  0.80853  0.86987  0.18267  1.0000
  C   C86       1.0  0.13013  0.93867  0.18267  1.0000
  C   C87       1.0  0.06133  0.19147  0.18267  1.0000
  C   C88       1.0  0.06133  0.86987  0.68267  1.0000
  C   C89       1.0  0.80853  0.93867  0.68267  1.0000
  C   C90       1.0  0.13013  0.19147  0.68267  1.0000
  H   H37       1.0  0.54460  0.22530  0.51580  1.0000
  H   H38       1.0  0.77470  0.31930  0.51580  1.0000
  H   H39       1.0  0.68070  0.45540  0.51580  1.0000
  H   H40       1.0  0.68070  0.22530  0.01580  1.0000
  H   H41       1.0  0.54460  0.31930  0.01580  1.0000
  H   H42       1.0  0.77470  0.45540  0.01580  1.0000
  H   H43       1.0  0.21127  0.55863  0.84913  1.0000
  H   H44       1.0  0.44137  0.65263  0.84913  1.0000
  H   H45       1.0  0.34737  0.78873  0.84913  1.0000
  H   H46       1.0  0.34737  0.55863  0.34913  1.0000
  H   H47       1.0  0.21127  0.65263  0.34913  1.0000
  H   H48       1.0  0.44137  0.78873  0.34913  1.0000
  H   H49       1.0  0.87793  0.89197  0.18247  1.0000
  H   H50       1.0  0.10803  0.98597  0.18247  1.0000
  H   H51       1.0  0.01403  0.12207  0.18247  1.0000
  H   H52       1.0  0.01403  0.89197  0.68247  1.0000
  H   H53       1.0  0.87793  0.98597  0.68247  1.0000
  H   H54       1.0  0.10803  0.12207  0.68247  1.0000
  H   H55       1.0  0.44310  0.14380  0.52770  1.0000
  H   H56       1.0  0.85620  0.29930  0.52770  1.0000
  H   H57       1.0  0.70070  0.55690  0.52770  1.0000
  H   H58       1.0  0.70070  0.14380  0.02770  1.0000
  H   H59       1.0  0.44310  0.29930  0.02770  1.0000
  H   H60       1.0  0.85620  0.55690  0.02770  1.0000
  H   H61       1.0  0.10977  0.47713  0.86103  1.0000
  H   H62       1.0  0.52287  0.63263  0.86103  1.0000
  H   H63       1.0  0.36737  0.89023  0.86103  1.0000
  H   H64       1.0  0.36737  0.47713  0.36103  1.0000
  H   H65       1.0  0.10977  0.63263  0.36103  1.0000
  H   H66       1.0  0.52287  0.89023  0.36103  1.0000
  H   H67       1.0  0.77643  0.81047  0.19437  1.0000
  H   H68       1.0  0.18953  0.96597  0.19437  1.0000
  H   H69       1.0  0.03403  0.22357  0.19437  1.0000
  H   H70       1.0  0.03403  0.81047  0.69437  1.0000
  H   H71       1.0  0.77643  0.96597  0.69437  1.0000
  H   H72       1.0  0.18953  0.22357  0.69437  1.0000
  O   O163      1.0  0.27850  0.00750  0.49850  1.0000
  O   O164      1.0  0.99250  0.27100  0.49850  1.0000
  O   O165      1.0  0.72900  0.72150  0.49850  1.0000
  O   O166      1.0  0.72900  0.00750  0.99850  1.0000
  O   O167      1.0  0.27850  0.27100  0.99850  1.0000
  O   O168      1.0  0.99250  0.72150  0.99850  1.0000
  O   O169      1.0  0.94517  0.34083  0.83183  1.0000
  O   O170      1.0  0.65917  0.60433  0.83183  1.0000
  O   O171      1.0  0.39567  0.05483  0.83183  1.0000
  O   O172      1.0  0.39567  0.34083  0.33183  1.0000
  O   O173      1.0  0.94517  0.60433  0.33183  1.0000
  O   O174      1.0  0.65917  0.05483  0.33183  1.0000
  O   O175      1.0  0.61183  0.67417  0.16517  1.0000
  O   O176      1.0  0.32583  0.93767  0.16517  1.0000
  O   O177      1.0  0.06233  0.38817  0.16517  1.0000
  O   O178      1.0  0.06233  0.67417  0.66517  1.0000
  O   O179      1.0  0.61183  0.93767  0.66517  1.0000
  O   O180      1.0  0.32583  0.38817  0.66517  1.0000
  N   N1        1.0  0.33950  0.91600  0.48007  1.0000
  N   N2        1.0  0.08400  0.42350  0.48007  1.0000
  N   N3        1.0  0.57650  0.66050  0.48007  1.0000
  N   N4        1.0  0.57650  0.91600  0.98007  1.0000
  N   N5        1.0  0.33950  0.42350  0.98007  1.0000
  N   N6        1.0  0.08400  0.66050  0.98007  1.0000
  N   N7        1.0  0.00617  0.24933  0.81340  1.0000
  N   N8        1.0  0.75067  0.75683  0.81340  1.0000
  N   N9        1.0  0.24317  0.99383  0.81340  1.0000
  N   N10       1.0  0.24317  0.24933  0.31340  1.0000
  N   N11       1.0  0.00617  0.75683  0.31340  1.0000
  N   N12       1.0  0.75067  0.99383  0.31340  1.0000
  N   N13       1.0  0.67283  0.58267  0.14674  1.0000
  N   N14       1.0  0.41733  0.09017  0.14674  1.0000
  N   N15       1.0  0.90983  0.32717  0.14674  1.0000
  N   N16       1.0  0.90983  0.58267  0.64674  1.0000
  N   N17       1.0  0.67283  0.09017  0.64674  1.0000
  N   N18       1.0  0.41733  0.32717  0.64674  1.0000
  N   N19       1.0  0.48890  0.99400  0.45452  1.0000
  N   N20       1.0  0.00600  0.49490  0.45452  1.0000
  N   N21       1.0  0.50510  0.51110  0.45452  1.0000
  N   N22       1.0  0.50510  0.99400  0.95452  1.0000
  N   N23       1.0  0.48890  0.49490  0.95452  1.0000
  N   N24       1.0  0.00600  0.51110  0.95452  1.0000
  N   N25       1.0  0.15557  0.32733  0.78785  1.0000
  N   N26       1.0  0.67267  0.82823  0.78785  1.0000
  N   N27       1.0  0.17177  0.84443  0.78785  1.0000
  N   N28       1.0  0.17177  0.32733  0.28785  1.0000
  N   N29       1.0  0.15557  0.82823  0.28785  1.0000
  N   N30       1.0  0.67267  0.84443  0.28785  1.0000
  N   N31       1.0  0.82223  0.66067  0.12119  1.0000
  N   N32       1.0  0.33933  0.16157  0.12119  1.0000
  N   N33       1.0  0.83843  0.17777  0.12119  1.0000
  N   N34       1.0  0.83843  0.66067  0.62119  1.0000
  N   N35       1.0  0.82223  0.16157  0.62119  1.0000
  N   N36       1.0  0.33933  0.17777  0.62119  1.0000
  N   N37       1.0  0.42630  0.08630  0.47567  1.0000
  N   N38       1.0  0.91370  0.34000  0.47567  1.0000
  N   N39       1.0  0.66000  0.57370  0.47567  1.0000
  N   N40       1.0  0.66000  0.08630  0.97567  1.0000
  N   N41       1.0  0.42630  0.34000  0.97567  1.0000
  N   N42       1.0  0.91370  0.57370  0.97567  1.0000
  N   N43       1.0  0.09297  0.41963  0.80900  1.0000
  N   N44       1.0  0.58037  0.67333  0.80900  1.0000
  N   N45       1.0  0.32667  0.90703  0.80900  1.0000
  N   N46       1.0  0.32667  0.41963  0.30900  1.0000
  N   N47       1.0  0.09297  0.67333  0.30900  1.0000
  N   N48       1.0  0.58037  0.90703  0.30900  1.0000
  N   N49       1.0  0.75963  0.75297  0.14234  1.0000
  N   N50       1.0  0.24703  0.00667  0.14234  1.0000
  N   N51       1.0  0.99333  0.24037  0.14234  1.0000
  N   N52       1.0  0.99333  0.75297  0.64234  1.0000
  N   N53       1.0  0.75963  0.00667  0.64234  1.0000
  N   N54       1.0  0.24703  0.24037  0.64234  1.0000
  O   O181      1.0  0.57600  0.16060  0.45306  1.0000
  O   O182      1.0  0.83940  0.41540  0.45306  1.0000
  O   O183      1.0  0.58460  0.42400  0.45306  1.0000
  O   O184      1.0  0.58460  0.16060  0.95306  1.0000
  O   O185      1.0  0.57600  0.41540  0.95306  1.0000
  O   O186      1.0  0.83940  0.42400  0.95306  1.0000
  O   O187      1.0  0.24267  0.49393  0.78639  1.0000
  O   O188      1.0  0.50607  0.74873  0.78639  1.0000
  O   O189      1.0  0.25127  0.75733  0.78639  1.0000
  O   O190      1.0  0.25127  0.49393  0.28639  1.0000
  O   O191      1.0  0.24267  0.74873  0.28639  1.0000
  O   O192      1.0  0.50607  0.75733  0.28639  1.0000
  O   O193      1.0  0.90933  0.82727  0.11973  1.0000
  O   O194      1.0  0.17273  0.08207  0.11973  1.0000
  O   O195      1.0  0.91793  0.09067  0.11973  1.0000
  O   O196      1.0  0.91793  0.82727  0.61973  1.0000
  O   O197      1.0  0.90933  0.08207  0.61973  1.0000
  O   O198      1.0  0.17273  0.09067  0.61973  1.0000
  C   C91       1.0  0.26820  0.80260  0.52340  1.0000
  C   C92       1.0  0.19740  0.46560  0.52340  1.0000
  C   C93       1.0  0.53440  0.73180  0.52340  1.0000
  C   C94       1.0  0.53440  0.80260  0.02340  1.0000
  C   C95       1.0  0.26820  0.46560  0.02340  1.0000
  C   C96       1.0  0.19740  0.73180  0.02340  1.0000
  C   C97       1.0  0.93487  0.13593  0.85673  1.0000
  C   C98       1.0  0.86407  0.79893  0.85673  1.0000
  C   C99       1.0  0.20107  0.06513  0.85673  1.0000
  C   C100      1.0  0.20107  0.13593  0.35673  1.0000
  C   C101      1.0  0.93487  0.79893  0.35673  1.0000
  C   C102      1.0  0.86407  0.06513  0.35673  1.0000
  C   C103      1.0  0.60153  0.46927  0.19007  1.0000
  C   C104      1.0  0.53073  0.13227  0.19007  1.0000
  C   C105      1.0  0.86773  0.39847  0.19007  1.0000
  C   C106      1.0  0.86773  0.46927  0.69007  1.0000
  C   C107      1.0  0.60153  0.13227  0.69007  1.0000
  C   C108      1.0  0.53073  0.39847  0.69007  1.0000
  H   H73       1.0  0.31970  0.78620  0.52410  1.0000
  H   H74       1.0  0.21380  0.53350  0.52410  1.0000
  H   H75       1.0  0.46650  0.68030  0.52410  1.0000
  H   H76       1.0  0.46650  0.78620  0.02410  1.0000
  H   H77       1.0  0.31970  0.53350  0.02410  1.0000
  H   H78       1.0  0.21380  0.68030  0.02410  1.0000
  H   H79       1.0  0.98637  0.11953  0.85743  1.0000
  H   H80       1.0  0.88047  0.86683  0.85743  1.0000
  H   H81       1.0  0.13317  0.01363  0.85743  1.0000
  H   H82       1.0  0.13317  0.11953  0.35743  1.0000
  H   H83       1.0  0.98637  0.86683  0.35743  1.0000
  H   H84       1.0  0.88047  0.01363  0.35743  1.0000
  H   H85       1.0  0.65303  0.45287  0.19077  1.0000
  H   H86       1.0  0.54713  0.20017  0.19077  1.0000
  H   H87       1.0  0.79983  0.34697  0.19077  1.0000
  H   H88       1.0  0.79983  0.45287  0.69077  1.0000
  H   H89       1.0  0.65303  0.20017  0.69077  1.0000
  H   H90       1.0  0.54713  0.34697  0.69077  1.0000
  H   H91       1.0  0.28750  0.85940  0.53590  1.0000
  H   H92       1.0  0.14060  0.42810  0.53590  1.0000
  H   H93       1.0  0.57190  0.71250  0.53590  1.0000
  H   H94       1.0  0.57190  0.85940  0.03590  1.0000
  H   H95       1.0  0.28750  0.42810  0.03590  1.0000
  H   H96       1.0  0.14060  0.71250  0.03590  1.0000
  H   H97       1.0  0.95417  0.19273  0.86923  1.0000
  H   H98       1.0  0.80727  0.76143  0.86923  1.0000
  H   H99       1.0  0.23857  0.04583  0.86923  1.0000
  H   H100      1.0  0.23857  0.19273  0.36923  1.0000
  H   H101      1.0  0.95417  0.76143  0.36923  1.0000
  H   H102      1.0  0.80727  0.04583  0.36923  1.0000
  H   H103      1.0  0.62083  0.52607  0.20257  1.0000
  H   H104      1.0  0.47393  0.09477  0.20257  1.0000
  H   H105      1.0  0.90523  0.37917  0.20257  1.0000
  H   H106      1.0  0.90523  0.52607  0.70257  1.0000
  H   H107      1.0  0.62083  0.09477  0.70257  1.0000
  H   H108      1.0  0.47393  0.37917  0.70257  1.0000
  C   C109      1.0  0.43700  0.18000  0.48470  1.0000
  C   C110      1.0  0.82000  0.25700  0.48470  1.0000
  C   C111      1.0  0.74300  0.56300  0.48470  1.0000
  C   C112      1.0  0.74300  0.18000  0.98470  1.0000
  C   C113      1.0  0.43700  0.25700  0.98470  1.0000
  C   C114      1.0  0.82000  0.56300  0.98470  1.0000
  C   C115      1.0  0.10367  0.51333  0.81803  1.0000
  C   C116      1.0  0.48667  0.59033  0.81803  1.0000
  C   C117      1.0  0.40967  0.89633  0.81803  1.0000
  C   C118      1.0  0.40967  0.51333  0.31803  1.0000
  C   C119      1.0  0.10367  0.59033  0.31803  1.0000
  C   C120      1.0  0.48667  0.89633  0.31803  1.0000
  C   C121      1.0  0.77033  0.84667  0.15137  1.0000
  C   C122      1.0  0.15333  0.92367  0.15137  1.0000
  C   C123      1.0  0.07633  0.22967  0.15137  1.0000
  C   C124      1.0  0.07633  0.84667  0.65137  1.0000
  C   C125      1.0  0.77033  0.92367  0.65137  1.0000
  C   C126      1.0  0.15333  0.22967  0.65137  1.0000
  H   H109      1.0  0.37430  0.17710  0.48350  1.0000
  H   H110      1.0  0.82290  0.19720  0.48350  1.0000
  H   H111      1.0  0.80280  0.62570  0.48350  1.0000
  H   H112      1.0  0.80280  0.17710  0.98350  1.0000
  H   H113      1.0  0.37430  0.19720  0.98350  1.0000
  H   H114      1.0  0.82290  0.62570  0.98350  1.0000
  H   H115      1.0  0.04097  0.51043  0.81683  1.0000
  H   H116      1.0  0.48957  0.53053  0.81683  1.0000
  H   H117      1.0  0.46947  0.95903  0.81683  1.0000
  H   H118      1.0  0.46947  0.51043  0.31683  1.0000
  H   H119      1.0  0.04097  0.53053  0.31683  1.0000
  H   H120      1.0  0.48957  0.95903  0.31683  1.0000
  H   H121      1.0  0.70763  0.84377  0.15017  1.0000
  H   H122      1.0  0.15623  0.86387  0.15017  1.0000
  H   H123      1.0  0.13613  0.29237  0.15017  1.0000
  H   H124      1.0  0.13613  0.84377  0.65017  1.0000
  H   H125      1.0  0.70763  0.86387  0.65017  1.0000
  H   H126      1.0  0.15623  0.29237  0.65017  1.0000
  H   H127      1.0  0.48200  0.23120  0.47140  1.0000
  H   H128      1.0  0.76880  0.25080  0.47140  1.0000
  H   H129      1.0  0.74920  0.51800  0.47140  1.0000
  H   H130      1.0  0.74920  0.23120  0.97140  1.0000
  H   H131      1.0  0.48200  0.25080  0.97140  1.0000
  H   H132      1.0  0.76880  0.51800  0.97140  1.0000
  H   H133      1.0  0.14867  0.56453  0.80473  1.0000
  H   H134      1.0  0.43547  0.58413  0.80473  1.0000
  H   H135      1.0  0.41587  0.85133  0.80473  1.0000
  H   H136      1.0  0.41587  0.56453  0.30473  1.0000
  H   H137      1.0  0.14867  0.58413  0.30473  1.0000
  H   H138      1.0  0.43547  0.85133  0.30473  1.0000
  H   H139      1.0  0.81533  0.89787  0.13807  1.0000
  H   H140      1.0  0.10213  0.91747  0.13807  1.0000
  H   H141      1.0  0.08253  0.18467  0.13807  1.0000
  H   H142      1.0  0.08253  0.89787  0.63807  1.0000
  H   H143      1.0  0.81533  0.91747  0.63807  1.0000
  H   H144      1.0  0.10213  0.18467  0.63807  1.0000
  C   C127      1.0  0.50220  0.08520  0.46070  1.0000
  C   C128      1.0  0.91480  0.41700  0.46070  1.0000
  C   C129      1.0  0.58300  0.49780  0.46070  1.0000
  C   C130      1.0  0.58300  0.08520  0.96070  1.0000
  C   C131      1.0  0.50220  0.41700  0.96070  1.0000
  C   C132      1.0  0.91480  0.49780  0.96070  1.0000
  C   C133      1.0  0.16887  0.41853  0.79403  1.0000
  C   C134      1.0  0.58147  0.75033  0.79403  1.0000
  C   C135      1.0  0.24967  0.83113  0.79403  1.0000
  C   C136      1.0  0.24967  0.41853  0.29403  1.0000
  C   C137      1.0  0.16887  0.75033  0.29403  1.0000
  C   C138      1.0  0.58147  0.83113  0.29403  1.0000
  C   C139      1.0  0.83553  0.75187  0.12737  1.0000
  C   C140      1.0  0.24813  0.08367  0.12737  1.0000
  C   C141      1.0  0.91633  0.16447  0.12737  1.0000
  C   C142      1.0  0.91633  0.75187  0.62737  1.0000
  C   C143      1.0  0.83553  0.08367  0.62737  1.0000
  C   C144      1.0  0.24813  0.16447  0.62737  1.0000
  C   C145      1.0  0.41170  0.90770  0.46590  1.0000
  C   C146      1.0  0.09230  0.50400  0.46590  1.0000
  C   C147      1.0  0.49600  0.58830  0.46590  1.0000
  C   C148      1.0  0.49600  0.90770  0.96590  1.0000
  C   C149      1.0  0.41170  0.50400  0.96590  1.0000
  C   C150      1.0  0.09230  0.58830  0.96590  1.0000
  C   C151      1.0  0.07837  0.24103  0.79923  1.0000
  C   C152      1.0  0.75897  0.83733  0.79923  1.0000
  C   C153      1.0  0.16267  0.92163  0.79923  1.0000
  C   C154      1.0  0.16267  0.24103  0.29923  1.0000
  C   C155      1.0  0.07837  0.83733  0.29923  1.0000
  C   C156      1.0  0.75897  0.92163  0.29923  1.0000
  C   C157      1.0  0.74503  0.57437  0.13257  1.0000
  C   C158      1.0  0.42563  0.17067  0.13257  1.0000
  C   C159      1.0  0.82933  0.25497  0.13257  1.0000
  C   C160      1.0  0.82933  0.57437  0.63257  1.0000
  C   C161      1.0  0.74503  0.17067  0.63257  1.0000
  C   C162      1.0  0.42563  0.25497  0.63257  1.0000
  C   C163      1.0  0.34310  0.00420  0.48540  1.0000
  C   C164      1.0  0.99580  0.33890  0.48540  1.0000
  C   C165      1.0  0.66110  0.65690  0.48540  1.0000
  C   C166      1.0  0.66110  0.00420  0.98540  1.0000
  C   C167      1.0  0.34310  0.33890  0.98540  1.0000
  C   C168      1.0  0.99580  0.65690  0.98540  1.0000
  C   C169      1.0  0.00977  0.33753  0.81873  1.0000
  C   C170      1.0  0.66247  0.67223  0.81873  1.0000
  C   C171      1.0  0.32777  0.99023  0.81873  1.0000
  C   C172      1.0  0.32777  0.33753  0.31873  1.0000
  C   C173      1.0  0.00977  0.67223  0.31873  1.0000
  C   C174      1.0  0.66247  0.99023  0.31873  1.0000
  C   C175      1.0  0.67643  0.67087  0.15207  1.0000
  C   C176      1.0  0.32913  0.00557  0.15207  1.0000
  C   C177      1.0  0.99443  0.32357  0.15207  1.0000
  C   C178      1.0  0.99443  0.67087  0.65207  1.0000
  C   C179      1.0  0.67643  0.00557  0.65207  1.0000
  C   C180      1.0  0.32913  0.32357  0.65207  1.0000
  C   C181      1.0  0.55400  0.98430  0.43320  1.0000
  C   C182      1.0  0.01570  0.56970  0.43320  1.0000
  C   C183      1.0  0.43030  0.44600  0.43320  1.0000
  C   C184      1.0  0.43030  0.98430  0.93320  1.0000
  C   C185      1.0  0.55400  0.56970  0.93320  1.0000
  C   C186      1.0  0.01570  0.44600  0.93320  1.0000
  C   C187      1.0  0.22067  0.31763  0.76653  1.0000
  C   C188      1.0  0.68237  0.90303  0.76653  1.0000
  C   C189      1.0  0.09697  0.77933  0.76653  1.0000
  C   C190      1.0  0.09697  0.31763  0.26653  1.0000
  C   C191      1.0  0.22067  0.90303  0.26653  1.0000
  C   C192      1.0  0.68237  0.77933  0.26653  1.0000
  C   C193      1.0  0.88733  0.65097  0.09987  1.0000
  C   C194      1.0  0.34903  0.23637  0.09987  1.0000
  C   C195      1.0  0.76363  0.11267  0.09987  1.0000
  C   C196      1.0  0.76363  0.65097  0.59987  1.0000
  C   C197      1.0  0.88733  0.23637  0.59987  1.0000
  C   C198      1.0  0.34903  0.11267  0.59987  1.0000
  H   H145      1.0  0.51500  0.92820  0.42070  1.0000
  H   H146      1.0  0.07180  0.58680  0.42070  1.0000
  H   H147      1.0  0.41320  0.48500  0.42070  1.0000
  H   H148      1.0  0.41320  0.92820  0.92070  1.0000
  H   H149      1.0  0.51500  0.58680  0.92070  1.0000
  H   H150      1.0  0.07180  0.48500  0.92070  1.0000
  H   H151      1.0  0.18167  0.26153  0.75403  1.0000
  H   H152      1.0  0.73847  0.92013  0.75403  1.0000
  H   H153      1.0  0.07987  0.81833  0.75403  1.0000
  H   H154      1.0  0.07987  0.26153  0.25403  1.0000
  H   H155      1.0  0.18167  0.92013  0.25403  1.0000
  H   H156      1.0  0.73847  0.81833  0.25403  1.0000
  H   H157      1.0  0.84833  0.59487  0.08737  1.0000
  H   H158      1.0  0.40513  0.25347  0.08737  1.0000
  H   H159      1.0  0.74653  0.15167  0.08737  1.0000
  H   H160      1.0  0.74653  0.59487  0.58737  1.0000
  H   H161      1.0  0.84833  0.25347  0.58737  1.0000
  H   H162      1.0  0.40513  0.15167  0.58737  1.0000
  H   H163      1.0  0.58330  0.04170  0.42060  1.0000
  H   H164      1.0  0.95830  0.54160  0.42060  1.0000
  H   H165      1.0  0.45840  0.41670  0.42060  1.0000
  H   H166      1.0  0.45840  0.04170  0.92060  1.0000
  H   H167      1.0  0.58330  0.54160  0.92060  1.0000
  H   H168      1.0  0.95830  0.41670  0.92060  1.0000
  H   H169      1.0  0.24997  0.37503  0.75393  1.0000
  H   H170      1.0  0.62497  0.87493  0.75393  1.0000
  H   H171      1.0  0.12507  0.75003  0.75393  1.0000
  H   H172      1.0  0.12507  0.37503  0.25393  1.0000
  H   H173      1.0  0.24997  0.87493  0.25393  1.0000
  H   H174      1.0  0.62497  0.75003  0.25393  1.0000
  H   H175      1.0  0.91663  0.70837  0.08727  1.0000
  H   H176      1.0  0.29163  0.20827  0.08727  1.0000
  H   H177      1.0  0.79173  0.08337  0.08727  1.0000
  H   H178      1.0  0.79173  0.70837  0.58727  1.0000
  H   H179      1.0  0.91663  0.20827  0.58727  1.0000
  H   H180      1.0  0.29163  0.08337  0.58727  1.0000
  C   C199      1.0  0.25460  0.82650  0.49140  1.0000
  C   C200      1.0  0.17350  0.42810  0.49140  1.0000
  C   C201      1.0  0.57190  0.74540  0.49140  1.0000
  C   C202      1.0  0.57190  0.82650  0.99140  1.0000
  C   C203      1.0  0.25460  0.42810  0.99140  1.0000
  C   C204      1.0  0.17350  0.74540  0.99140  1.0000
  C   C205      1.0  0.92127  0.15983  0.82473  1.0000
  C   C206      1.0  0.84017  0.76143  0.82473  1.0000
  C   C207      1.0  0.23857  0.07873  0.82473  1.0000
  C   C208      1.0  0.23857  0.15983  0.32473  1.0000
  C   C209      1.0  0.92127  0.76143  0.32473  1.0000
  C   C210      1.0  0.84017  0.07873  0.32473  1.0000
  C   C211      1.0  0.58793  0.49317  0.15807  1.0000
  C   C212      1.0  0.50683  0.09477  0.15807  1.0000
  C   C213      1.0  0.90523  0.41207  0.15807  1.0000
  C   C214      1.0  0.90523  0.49317  0.65807  1.0000
  C   C215      1.0  0.58793  0.09477  0.65807  1.0000
  C   C216      1.0  0.50683  0.41207  0.65807  1.0000
  H   H181      1.0  0.24270  0.77210  0.47870  1.0000
  H   H182      1.0  0.22790  0.47060  0.47870  1.0000
  H   H183      1.0  0.52940  0.75730  0.47870  1.0000
  H   H184      1.0  0.52940  0.77210  0.97870  1.0000
  H   H185      1.0  0.24270  0.47060  0.97870  1.0000
  H   H186      1.0  0.22790  0.75730  0.97870  1.0000
  H   H187      1.0  0.90937  0.10543  0.81203  1.0000
  H   H188      1.0  0.89457  0.80393  0.81203  1.0000
  H   H189      1.0  0.19607  0.09063  0.81203  1.0000
  H   H190      1.0  0.19607  0.10543  0.31203  1.0000
  H   H191      1.0  0.90937  0.80393  0.31203  1.0000
  H   H192      1.0  0.89457  0.09063  0.31203  1.0000
  H   H193      1.0  0.57603  0.43877  0.14537  1.0000
  H   H194      1.0  0.56123  0.13727  0.14537  1.0000
  H   H195      1.0  0.86273  0.42397  0.14537  1.0000
  H   H196      1.0  0.86273  0.43877  0.64537  1.0000
  H   H197      1.0  0.57603  0.13727  0.64537  1.0000
  H   H198      1.0  0.56123  0.42397  0.64537  1.0000
  H   H199      1.0  0.19730  0.83400  0.49050  1.0000
  H   H200      1.0  0.16600  0.36330  0.49050  1.0000
  H   H201      1.0  0.63670  0.80270  0.49050  1.0000
  H   H202      1.0  0.63670  0.83400  0.99050  1.0000
  H   H203      1.0  0.19730  0.36330  0.99050  1.0000
  H   H204      1.0  0.16600  0.80270  0.99050  1.0000
  H   H205      1.0  0.86397  0.16733  0.82383  1.0000
  H   H206      1.0  0.83267  0.69663  0.82383  1.0000
  H   H207      1.0  0.30337  0.13603  0.82383  1.0000
  H   H208      1.0  0.30337  0.16733  0.32383  1.0000
  H   H209      1.0  0.86397  0.69663  0.32383  1.0000
  H   H210      1.0  0.83267  0.13603  0.32383  1.0000
  H   H211      1.0  0.53063  0.50067  0.15717  1.0000
  H   H212      1.0  0.49933  0.02997  0.15717  1.0000
  H   H213      1.0  0.97003  0.46937  0.15717  1.0000
  H   H214      1.0  0.97003  0.50067  0.65717  1.0000
  H   H215      1.0  0.53063  0.02997  0.65717  1.0000
  H   H216      1.0  0.49933  0.46937  0.65717  1.0000
