data_image0
_chemical_formula_structural       U18N54O198C72H36C18H36C36H36C18H36C36H36C18H36C18
_chemical_formula_sum              "U18 N54 O198 C216 H216"
_cell_length_a       15.8993
_cell_length_b       15.8993
_cell_length_c       45.128
_cell_angle_alpha    90
_cell_angle_beta     90
_cell_angle_gamma    120

_space_group_name_H-M_alt    "P 1"
_space_group_IT_number       1

loop_
  _space_group_symop_operation_xyz
  'x, y, z'

loop_
  _atom_site_type_symbol
  _atom_site_label
  _atom_site_symmetry_multiplicity
  _atom_site_fract_x
  _atom_site_fract_y
  _atom_site_fract_z
  _atom_site_occupancy
  U   U1        1.0  0.23649  0.89693  0.90030  1.0000
  U   U2        1.0  0.10307  0.33956  0.90030  1.0000
  U   U3        1.0  0.66044  0.76351  0.90030  1.0000
  U   U4        1.0  0.66044  0.89693  0.40030  1.0000
  U   U5        1.0  0.23649  0.33956  0.40030  1.0000
  U   U6        1.0  0.10307  0.76351  0.40030  1.0000
  U   U7        1.0  0.90316  0.23026  0.23363  1.0000
  U   U8        1.0  0.76974  0.67289  0.23363  1.0000
  U   U9        1.0  0.32711  0.09684  0.23363  1.0000
  U   U10       1.0  0.32711  0.23026  0.73363  1.0000
  U   U11       1.0  0.90316  0.67289  0.73363  1.0000
  U   U12       1.0  0.76974  0.09684  0.73363  1.0000
  U   U13       1.0  0.56982  0.56360  0.56697  1.0000
  U   U14       1.0  0.43640  0.00623  0.56697  1.0000
  U   U15       1.0  0.99377  0.43018  0.56697  1.0000
  U   U16       1.0  0.99377  0.56360  0.06697  1.0000
  U   U17       1.0  0.56982  0.00623  0.06697  1.0000
  U   U18       1.0  0.43640  0.43018  0.06697  1.0000
  N   N1        1.0  0.01050  0.49700  0.96634  1.0000
  N   N2        1.0  0.50300  0.51350  0.96634  1.0000
  N   N3        1.0  0.48650  0.98950  0.96634  1.0000
  N   N4        1.0  0.48650  0.49700  0.46634  1.0000
  N   N5        1.0  0.01050  0.51350  0.46634  1.0000
  N   N6        1.0  0.50300  0.98950  0.46634  1.0000
  N   N7        1.0  0.67717  0.83033  0.29967  1.0000
  N   N8        1.0  0.16967  0.84683  0.29967  1.0000
  N   N9        1.0  0.15317  0.32283  0.29967  1.0000
  N   N10       1.0  0.15317  0.83033  0.79967  1.0000
  N   N11       1.0  0.67717  0.84683  0.79967  1.0000
  N   N12       1.0  0.16967  0.32283  0.79967  1.0000
  N   N13       1.0  0.34383  0.16367  0.63301  1.0000
  N   N14       1.0  0.83633  0.18017  0.63301  1.0000
  N   N15       1.0  0.81983  0.65617  0.63301  1.0000
  N   N16       1.0  0.81983  0.16367  0.13301  1.0000
  N   N17       1.0  0.34383  0.18017  0.13301  1.0000
  N   N18       1.0  0.83633  0.65617  0.13301  1.0000
  N   N19       1.0  0.08620  0.42710  0.99231  1.0000
  N   N20       1.0  0.57290  0.65910  0.99231  1.0000
  N   N21       1.0  0.34090  0.91380  0.99231  1.0000
  N   N22       1.0  0.34090  0.42710  0.49231  1.0000
  N   N23       1.0  0.08620  0.65910  0.49231  1.0000
  N   N24       1.0  0.57290  0.91380  0.49231  1.0000
  N   N25       1.0  0.75287  0.76043  0.32564  1.0000
  N   N26       1.0  0.23957  0.99243  0.32564  1.0000
  N   N27       1.0  0.00757  0.24713  0.32564  1.0000
  N   N28       1.0  0.00757  0.76043  0.82564  1.0000
  N   N29       1.0  0.75287  0.99243  0.82564  1.0000
  N   N30       1.0  0.23957  0.24713  0.82564  1.0000
  N   N31       1.0  0.41953  0.09377  0.65898  1.0000
  N   N32       1.0  0.90623  0.32577  0.65898  1.0000
  N   N33       1.0  0.67423  0.58047  0.65898  1.0000
  N   N34       1.0  0.67423  0.09377  0.15898  1.0000
  N   N35       1.0  0.41953  0.32577  0.15898  1.0000
  N   N36       1.0  0.90623  0.58047  0.15898  1.0000
  N   N37       1.0  0.91870  0.34460  0.98823  1.0000
  N   N38       1.0  0.65540  0.57410  0.98823  1.0000
  N   N39       1.0  0.42590  0.08130  0.98823  1.0000
  N   N40       1.0  0.42590  0.34460  0.48823  1.0000
  N   N41       1.0  0.91870  0.57410  0.48823  1.0000
  N   N42       1.0  0.65540  0.08130  0.48823  1.0000
  N   N43       1.0  0.58537  0.67793  0.32156  1.0000
  N   N44       1.0  0.32207  0.90743  0.32156  1.0000
  N   N45       1.0  0.09257  0.41463  0.32156  1.0000
  N   N46       1.0  0.09257  0.67793  0.82156  1.0000
  N   N47       1.0  0.58537  0.90743  0.82156  1.0000
  N   N48       1.0  0.32207  0.41463  0.82156  1.0000
  N   N49       1.0  0.25203  0.01127  0.65490  1.0000
  N   N50       1.0  0.98873  0.24077  0.65490  1.0000
  N   N51       1.0  0.75923  0.74797  0.65490  1.0000
  N   N52       1.0  0.75923  0.01127  0.15490  1.0000
  N   N53       1.0  0.25203  0.24077  0.15490  1.0000
  N   N54       1.0  0.98873  0.74797  0.15490  1.0000
  O   O1        1.0  0.84510  0.41740  0.96419  1.0000
  O   O2        1.0  0.58260  0.42770  0.96419  1.0000
  O   O3        1.0  0.57230  0.15490  0.96419  1.0000
  O   O4        1.0  0.57230  0.41740  0.46419  1.0000
  O   O5        1.0  0.84510  0.42770  0.46419  1.0000
  O   O6        1.0  0.58260  0.15490  0.46419  1.0000
  O   O7        1.0  0.51177  0.75073  0.29752  1.0000
  O   O8        1.0  0.24927  0.76103  0.29752  1.0000
  O   O9        1.0  0.23897  0.48823  0.29752  1.0000
  O   O10       1.0  0.23897  0.75073  0.79752  1.0000
  O   O11       1.0  0.51177  0.76103  0.79752  1.0000
  O   O12       1.0  0.24927  0.48823  0.79752  1.0000
  O   O13       1.0  0.17843  0.08407  0.63086  1.0000
  O   O14       1.0  0.91593  0.09437  0.63086  1.0000
  O   O15       1.0  0.90563  0.82157  0.63086  1.0000
  O   O16       1.0  0.90563  0.08407  0.13086  1.0000
  O   O17       1.0  0.17843  0.09437  0.13086  1.0000
  O   O18       1.0  0.91593  0.82157  0.13086  1.0000
  O   O19       1.0  0.17330  0.57950  0.97377  1.0000
  O   O20       1.0  0.42050  0.59380  0.97377  1.0000
  O   O21       1.0  0.40620  0.82670  0.97377  1.0000
  O   O22       1.0  0.40620  0.57950  0.47377  1.0000
  O   O23       1.0  0.17330  0.59380  0.47377  1.0000
  O   O24       1.0  0.42050  0.82670  0.47377  1.0000
  O   O25       1.0  0.83997  0.91283  0.30710  1.0000
  O   O26       1.0  0.08717  0.92713  0.30710  1.0000
  O   O27       1.0  0.07287  0.16003  0.30710  1.0000
  O   O28       1.0  0.07287  0.91283  0.80710  1.0000
  O   O29       1.0  0.83997  0.92713  0.80710  1.0000
  O   O30       1.0  0.08717  0.16003  0.80710  1.0000
  O   O31       1.0  0.50663  0.24617  0.64044  1.0000
  O   O32       1.0  0.75383  0.26047  0.64044  1.0000
  O   O33       1.0  0.73953  0.49337  0.64044  1.0000
  O   O34       1.0  0.73953  0.24617  0.14044  1.0000
  O   O35       1.0  0.50663  0.26047  0.14044  1.0000
  O   O36       1.0  0.75383  0.49337  0.14044  1.0000
  O   O37       1.0  0.99420  0.27900  0.01321  1.0000
  O   O38       1.0  0.72100  0.71520  0.01321  1.0000
  O   O39       1.0  0.28480  0.00580  0.01321  1.0000
  O   O40       1.0  0.28480  0.27900  0.51321  1.0000
  O   O41       1.0  0.99420  0.71520  0.51321  1.0000
  O   O42       1.0  0.72100  0.00580  0.51321  1.0000
  O   O43       1.0  0.66087  0.61233  0.34654  1.0000
  O   O44       1.0  0.38767  0.04853  0.34654  1.0000
  O   O45       1.0  0.95147  0.33913  0.34654  1.0000
  O   O46       1.0  0.95147  0.61233  0.84654  1.0000
  O   O47       1.0  0.66087  0.04853  0.84654  1.0000
  O   O48       1.0  0.38767  0.33913  0.84654  1.0000
  O   O49       1.0  0.32753  0.94567  0.67988  1.0000
  O   O50       1.0  0.05433  0.38187  0.67988  1.0000
  O   O51       1.0  0.61813  0.67247  0.67988  1.0000
  O   O52       1.0  0.61813  0.94567  0.17988  1.0000
  O   O53       1.0  0.32753  0.38187  0.17988  1.0000
  O   O54       1.0  0.05433  0.67247  0.17988  1.0000
  O   O55       1.0  0.18110  0.75160  0.93074  1.0000
  O   O56       1.0  0.24840  0.42950  0.93074  1.0000
  O   O57       1.0  0.57050  0.81890  0.93074  1.0000
  O   O58       1.0  0.57050  0.75160  0.43074  1.0000
  O   O59       1.0  0.18110  0.42950  0.43074  1.0000
  O   O60       1.0  0.24840  0.81890  0.43074  1.0000
  O   O61       1.0  0.84777  0.08493  0.26407  1.0000
  O   O62       1.0  0.91507  0.76283  0.26407  1.0000
  O   O63       1.0  0.23717  0.15223  0.26407  1.0000
  O   O64       1.0  0.23717  0.08493  0.76407  1.0000
  O   O65       1.0  0.84777  0.76283  0.76407  1.0000
  O   O66       1.0  0.91507  0.15223  0.76407  1.0000
  O   O67       1.0  0.51443  0.41827  0.59741  1.0000
  O   O68       1.0  0.58173  0.09617  0.59741  1.0000
  O   O69       1.0  0.90383  0.48557  0.59741  1.0000
  O   O70       1.0  0.90383  0.41827  0.09741  1.0000
  O   O71       1.0  0.51443  0.09617  0.09741  1.0000
  O   O72       1.0  0.58173  0.48557  0.09741  1.0000
  O   O73       1.0  0.09320  0.82160  0.93439  1.0000
  O   O74       1.0  0.17840  0.27160  0.93439  1.0000
  O   O75       1.0  0.72840  0.90680  0.93439  1.0000
  O   O76       1.0  0.72840  0.82160  0.43439  1.0000
  O   O77       1.0  0.09320  0.27160  0.43439  1.0000
  O   O78       1.0  0.17840  0.90680  0.43439  1.0000
  O   O79       1.0  0.75987  0.15493  0.26772  1.0000
  O   O80       1.0  0.84507  0.60493  0.26772  1.0000
  O   O81       1.0  0.39507  0.24013  0.26772  1.0000
  O   O82       1.0  0.39507  0.15493  0.76772  1.0000
  O   O83       1.0  0.75987  0.60493  0.76772  1.0000
  O   O84       1.0  0.84507  0.24013  0.76772  1.0000
  O   O85       1.0  0.42653  0.48827  0.60106  1.0000
  O   O86       1.0  0.51173  0.93827  0.60106  1.0000
  O   O87       1.0  0.06173  0.57347  0.60106  1.0000
  O   O88       1.0  0.06173  0.48827  0.10106  1.0000
  O   O89       1.0  0.42653  0.93827  0.10106  1.0000
  O   O90       1.0  0.51173  0.57347  0.10106  1.0000
  O   O91       1.0  0.33960  0.51410  0.06634  1.0000
  O   O92       1.0  0.48590  0.82550  0.06634  1.0000
  O   O93       1.0  0.17450  0.66040  0.06634  1.0000
  O   O94       1.0  0.17450  0.51410  0.56634  1.0000
  O   O95       1.0  0.33960  0.82550  0.56634  1.0000
  O   O96       1.0  0.48590  0.66040  0.56634  1.0000
  O   O97       1.0  0.00627  0.84743  0.39967  1.0000
  O   O98       1.0  0.15257  0.15883  0.39967  1.0000
  O   O99       1.0  0.84117  0.99373  0.39967  1.0000
  O   O100      1.0  0.84117  0.84743  0.89967  1.0000
  O   O101      1.0  0.00627  0.15883  0.89967  1.0000
  O   O102      1.0  0.15257  0.99373  0.89967  1.0000
  O   O103      1.0  0.67293  0.18077  0.73301  1.0000
  O   O104      1.0  0.81923  0.49217  0.73301  1.0000
  O   O105      1.0  0.50783  0.32707  0.73301  1.0000
  O   O106      1.0  0.50783  0.18077  0.23301  1.0000
  O   O107      1.0  0.67293  0.49217  0.23301  1.0000
  O   O108      1.0  0.81923  0.32707  0.23301  1.0000
  O   O109      1.0  0.29710  0.39410  0.03602  1.0000
  O   O110      1.0  0.60590  0.90300  0.03602  1.0000
  O   O111      1.0  0.09700  0.70290  0.03602  1.0000
  O   O112      1.0  0.09700  0.39410  0.53602  1.0000
  O   O113      1.0  0.29710  0.90300  0.53602  1.0000
  O   O114      1.0  0.60590  0.70290  0.53602  1.0000
  O   O115      1.0  0.96377  0.72743  0.36935  1.0000
  O   O116      1.0  0.27257  0.23633  0.36935  1.0000
  O   O117      1.0  0.76367  0.03623  0.36935  1.0000
  O   O118      1.0  0.76367  0.72743  0.86935  1.0000
  O   O119      1.0  0.96377  0.23633  0.86935  1.0000
  O   O120      1.0  0.27257  0.03623  0.86935  1.0000
  O   O121      1.0  0.63043  0.06077  0.70269  1.0000
  O   O122      1.0  0.93923  0.56967  0.70269  1.0000
  O   O123      1.0  0.43033  0.36957  0.70269  1.0000
  O   O124      1.0  0.43033  0.06077  0.20269  1.0000
  O   O125      1.0  0.63043  0.56967  0.20269  1.0000
  O   O126      1.0  0.93923  0.36957  0.20269  1.0000
  O   O127      1.0  0.66630  0.18340  0.06092  1.0000
  O   O128      1.0  0.81660  0.48290  0.06092  1.0000
  O   O129      1.0  0.51710  0.33370  0.06092  1.0000
  O   O130      1.0  0.51710  0.18340  0.56092  1.0000
  O   O131      1.0  0.66630  0.48290  0.56092  1.0000
  O   O132      1.0  0.81660  0.33370  0.56092  1.0000
  O   O133      1.0  0.33297  0.51673  0.39425  1.0000
  O   O134      1.0  0.48327  0.81623  0.39425  1.0000
  O   O135      1.0  0.18377  0.66703  0.39425  1.0000
  O   O136      1.0  0.18377  0.51673  0.89425  1.0000
  O   O137      1.0  0.33297  0.81623  0.89425  1.0000
  O   O138      1.0  0.48327  0.66703  0.89425  1.0000
  O   O139      1.0  0.99963  0.85007  0.72759  1.0000
  O   O140      1.0  0.14993  0.14957  0.72759  1.0000
  O   O141      1.0  0.85043  0.00037  0.72759  1.0000
  O   O142      1.0  0.85043  0.85007  0.22759  1.0000
  O   O143      1.0  0.99963  0.14957  0.22759  1.0000
  O   O144      1.0  0.14993  0.00037  0.22759  1.0000
  O   O145      1.0  0.70500  0.10000  0.03206  1.0000
  O   O146      1.0  0.90000  0.60500  0.03206  1.0000
  O   O147      1.0  0.39500  0.29500  0.03206  1.0000
  O   O148      1.0  0.39500  0.10000  0.53206  1.0000
  O   O149      1.0  0.70500  0.60500  0.53206  1.0000
  O   O150      1.0  0.90000  0.29500  0.53206  1.0000
  O   O151      1.0  0.37167  0.43333  0.36539  1.0000
  O   O152      1.0  0.56667  0.93833  0.36539  1.0000
  O   O153      1.0  0.06167  0.62833  0.36539  1.0000
  O   O154      1.0  0.06167  0.43333  0.86539  1.0000
  O   O155      1.0  0.37167  0.93833  0.86539  1.0000
  O   O156      1.0  0.56667  0.62833  0.86539  1.0000
  O   O157      1.0  0.03833  0.76667  0.69873  1.0000
  O   O158      1.0  0.23333  0.27167  0.69873  1.0000
  O   O159      1.0  0.72833  0.96167  0.69873  1.0000
  O   O160      1.0  0.72833  0.76667  0.19873  1.0000
  O   O161      1.0  0.03833  0.27167  0.19873  1.0000
  O   O162      1.0  0.23333  0.96167  0.19873  1.0000
  O   O163      1.0  0.15720  0.82130  0.87223  1.0000
  O   O164      1.0  0.17870  0.33590  0.87223  1.0000
  O   O165      1.0  0.66410  0.84280  0.87223  1.0000
  O   O166      1.0  0.66410  0.82130  0.37223  1.0000
  O   O167      1.0  0.15720  0.33590  0.37223  1.0000
  O   O168      1.0  0.17870  0.84280  0.37223  1.0000
  O   O169      1.0  0.82387  0.15463  0.20556  1.0000
  O   O170      1.0  0.84537  0.66923  0.20556  1.0000
  O   O171      1.0  0.33077  0.17613  0.20556  1.0000
  O   O172      1.0  0.33077  0.15463  0.70556  1.0000
  O   O173      1.0  0.82387  0.66923  0.70556  1.0000
  O   O174      1.0  0.84537  0.17613  0.70556  1.0000
  O   O175      1.0  0.49053  0.48797  0.53890  1.0000
  O   O176      1.0  0.51203  0.00257  0.53890  1.0000
  O   O177      1.0  0.99743  0.50947  0.53890  1.0000
  O   O178      1.0  0.99743  0.48797  0.03890  1.0000
  O   O179      1.0  0.49053  0.00257  0.03890  1.0000
  O   O180      1.0  0.51203  0.50947  0.03890  1.0000
  O   O181      1.0  0.31510  0.97370  0.92817  1.0000
  O   O182      1.0  0.02630  0.34140  0.92817  1.0000
  O   O183      1.0  0.65860  0.68490  0.92817  1.0000
  O   O184      1.0  0.65860  0.97370  0.42817  1.0000
  O   O185      1.0  0.31510  0.34140  0.42817  1.0000
  O   O186      1.0  0.02630  0.68490  0.42817  1.0000
  O   O187      1.0  0.98177  0.30703  0.26150  1.0000
  O   O188      1.0  0.69297  0.67473  0.26150  1.0000
  O   O189      1.0  0.32527  0.01823  0.26150  1.0000
  O   O190      1.0  0.32527  0.30703  0.76150  1.0000
  O   O191      1.0  0.98177  0.67473  0.76150  1.0000
  O   O192      1.0  0.69297  0.01823  0.76150  1.0000
  O   O193      1.0  0.64843  0.64037  0.59484  1.0000
  O   O194      1.0  0.35963  0.00807  0.59484  1.0000
  O   O195      1.0  0.99193  0.35157  0.59484  1.0000
  O   O196      1.0  0.99193  0.64037  0.09484  1.0000
  O   O197      1.0  0.64843  0.00807  0.09484  1.0000
  O   O198      1.0  0.35963  0.35157  0.09484  1.0000
  C   C1        1.0  0.91860  0.41980  0.97261  1.0000
  C   C2        1.0  0.58020  0.49880  0.97261  1.0000
  C   C3        1.0  0.50120  0.08140  0.97261  1.0000
  C   C4        1.0  0.50120  0.41980  0.47261  1.0000
  C   C5        1.0  0.91860  0.49880  0.47261  1.0000
  C   C6        1.0  0.58020  0.08140  0.47261  1.0000
  C   C7        1.0  0.58527  0.75313  0.30594  1.0000
  C   C8        1.0  0.24687  0.83213  0.30594  1.0000
  C   C9        1.0  0.16787  0.41473  0.30594  1.0000
  C   C10       1.0  0.16787  0.75313  0.80594  1.0000
  C   C11       1.0  0.58527  0.83213  0.80594  1.0000
  C   C12       1.0  0.24687  0.41473  0.80594  1.0000
  C   C13       1.0  0.25193  0.08647  0.63928  1.0000
  C   C14       1.0  0.91353  0.16547  0.63928  1.0000
  C   C15       1.0  0.83453  0.74807  0.63928  1.0000
  C   C16       1.0  0.83453  0.08647  0.13928  1.0000
  C   C17       1.0  0.25193  0.16547  0.13928  1.0000
  C   C18       1.0  0.91353  0.74807  0.13928  1.0000
  C   C19       1.0  0.09590  0.50740  0.97757  1.0000
  C   C20       1.0  0.49260  0.58850  0.97757  1.0000
  C   C21       1.0  0.41150  0.90410  0.97757  1.0000
  C   C22       1.0  0.41150  0.50740  0.47757  1.0000
  C   C23       1.0  0.09590  0.58850  0.47757  1.0000
  C   C24       1.0  0.49260  0.90410  0.47757  1.0000
  C   C25       1.0  0.76257  0.84073  0.31090  1.0000
  C   C26       1.0  0.15927  0.92183  0.31090  1.0000
  C   C27       1.0  0.07817  0.23743  0.31090  1.0000
  C   C28       1.0  0.07817  0.84073  0.81090  1.0000
  C   C29       1.0  0.76257  0.92183  0.81090  1.0000
  C   C30       1.0  0.15927  0.23743  0.81090  1.0000
  C   C31       1.0  0.42923  0.17407  0.64424  1.0000
  C   C32       1.0  0.82593  0.25517  0.64424  1.0000
  C   C33       1.0  0.74483  0.57077  0.64424  1.0000
  C   C34       1.0  0.74483  0.17407  0.14424  1.0000
  C   C35       1.0  0.42923  0.25517  0.14424  1.0000
  C   C36       1.0  0.82593  0.57077  0.14424  1.0000
  C   C37       1.0  0.99860  0.34550  0.99834  1.0000
  C   C38       1.0  0.65450  0.65310  0.99834  1.0000
  C   C39       1.0  0.34690  0.00140  0.99834  1.0000
  C   C40       1.0  0.34690  0.34550  0.49834  1.0000
  C   C41       1.0  0.99860  0.65310  0.49834  1.0000
  C   C42       1.0  0.65450  0.00140  0.49834  1.0000
  C   C43       1.0  0.66527  0.67883  0.33167  1.0000
  C   C44       1.0  0.32117  0.98643  0.33167  1.0000
  C   C45       1.0  0.01357  0.33473  0.33167  1.0000
  C   C46       1.0  0.01357  0.67883  0.83167  1.0000
  C   C47       1.0  0.66527  0.98643  0.83167  1.0000
  C   C48       1.0  0.32117  0.33473  0.83167  1.0000
  C   C49       1.0  0.33193  0.01217  0.66501  1.0000
  C   C50       1.0  0.98783  0.31977  0.66501  1.0000
  C   C51       1.0  0.68023  0.66807  0.66501  1.0000
  C   C52       1.0  0.68023  0.01217  0.16501  1.0000
  C   C53       1.0  0.33193  0.31977  0.16501  1.0000
  C   C54       1.0  0.98783  0.66807  0.16501  1.0000
  C   C55       1.0  0.01850  0.56930  0.94430  1.0000
  C   C56       1.0  0.43070  0.44920  0.94430  1.0000
  C   C57       1.0  0.55080  0.98150  0.94430  1.0000
  C   C58       1.0  0.55080  0.56930  0.44430  1.0000
  C   C59       1.0  0.01850  0.44920  0.44430  1.0000
  C   C60       1.0  0.43070  0.98150  0.44430  1.0000
  C   C61       1.0  0.68517  0.90263  0.27763  1.0000
  C   C62       1.0  0.09737  0.78253  0.27763  1.0000
  C   C63       1.0  0.21747  0.31483  0.27763  1.0000
  C   C64       1.0  0.21747  0.90263  0.77763  1.0000
  C   C65       1.0  0.68517  0.78253  0.77763  1.0000
  C   C66       1.0  0.09737  0.31483  0.77763  1.0000
  C   C67       1.0  0.35183  0.23597  0.61097  1.0000
  C   C68       1.0  0.76403  0.11587  0.61097  1.0000
  C   C69       1.0  0.88413  0.64817  0.61097  1.0000
  C   C70       1.0  0.88413  0.23597  0.11097  1.0000
  C   C71       1.0  0.35183  0.11587  0.11097  1.0000
  C   C72       1.0  0.76403  0.64817  0.11097  1.0000
  H   H1        1.0  0.96000  0.54070  0.93240  1.0000
  H   H2        1.0  0.45930  0.41930  0.93240  1.0000
  H   H3        1.0  0.58070  0.04000  0.93240  1.0000
  H   H4        1.0  0.58070  0.54070  0.43240  1.0000
  H   H5        1.0  0.96000  0.41930  0.43240  1.0000
  H   H6        1.0  0.45930  0.04000  0.43240  1.0000
  H   H7        1.0  0.62667  0.87403  0.26573  1.0000
  H   H8        1.0  0.12597  0.75263  0.26573  1.0000
  H   H9        1.0  0.24737  0.37333  0.26573  1.0000
  H   H10       1.0  0.24737  0.87403  0.76573  1.0000
  H   H11       1.0  0.62667  0.75263  0.76573  1.0000
  H   H12       1.0  0.12597  0.37333  0.76573  1.0000
  H   H13       1.0  0.29333  0.20737  0.59907  1.0000
  H   H14       1.0  0.79263  0.08597  0.59907  1.0000
  H   H15       1.0  0.91403  0.70667  0.59907  1.0000
  H   H16       1.0  0.91403  0.20737  0.09907  1.0000
  H   H17       1.0  0.29333  0.08597  0.09907  1.0000
  H   H18       1.0  0.79263  0.70667  0.09907  1.0000
  H   H19       1.0  0.07270  0.58430  0.93130  1.0000
  H   H20       1.0  0.41570  0.48840  0.93130  1.0000
  H   H21       1.0  0.51160  0.92730  0.93130  1.0000
  H   H22       1.0  0.51160  0.58430  0.43130  1.0000
  H   H23       1.0  0.07270  0.48840  0.43130  1.0000
  H   H24       1.0  0.41570  0.92730  0.43130  1.0000
  H   H25       1.0  0.73937  0.91763  0.26463  1.0000
  H   H26       1.0  0.08237  0.82173  0.26463  1.0000
  H   H27       1.0  0.17827  0.26063  0.26463  1.0000
  H   H28       1.0  0.17827  0.91763  0.76463  1.0000
  H   H29       1.0  0.73937  0.82173  0.76463  1.0000
  H   H30       1.0  0.08237  0.26063  0.76463  1.0000
  H   H31       1.0  0.40603  0.25097  0.59797  1.0000
  H   H32       1.0  0.74903  0.15507  0.59797  1.0000
  H   H33       1.0  0.84493  0.59397  0.59797  1.0000
  H   H34       1.0  0.84493  0.25097  0.09797  1.0000
  H   H35       1.0  0.40603  0.15507  0.09797  1.0000
  H   H36       1.0  0.74903  0.59397  0.09797  1.0000
  C   C73       1.0  0.03320  0.66560  0.95795  1.0000
  C   C74       1.0  0.33440  0.36760  0.95795  1.0000
  C   C75       1.0  0.63240  0.96680  0.95795  1.0000
  C   C76       1.0  0.63240  0.66560  0.45795  1.0000
  C   C77       1.0  0.03320  0.36760  0.45795  1.0000
  C   C78       1.0  0.33440  0.96680  0.45795  1.0000
  C   C79       1.0  0.69987  0.99893  0.29128  1.0000
  C   C80       1.0  0.00107  0.70093  0.29128  1.0000
  C   C81       1.0  0.29907  0.30013  0.29128  1.0000
  C   C82       1.0  0.29907  0.99893  0.79128  1.0000
  C   C83       1.0  0.69987  0.70093  0.79128  1.0000
  C   C84       1.0  0.00107  0.30013  0.79128  1.0000
  C   C85       1.0  0.36653  0.33227  0.62462  1.0000
  C   C86       1.0  0.66773  0.03427  0.62462  1.0000
  C   C87       1.0  0.96573  0.63347  0.62462  1.0000
  C   C88       1.0  0.96573  0.33227  0.12462  1.0000
  C   C89       1.0  0.36653  0.03427  0.12462  1.0000
  C   C90       1.0  0.66773  0.63347  0.12462  1.0000
  H   H37       1.0  0.97180  0.66480  0.95810  1.0000
  H   H38       1.0  0.33520  0.30700  0.95810  1.0000
  H   H39       1.0  0.69300  0.02820  0.95810  1.0000
  H   H40       1.0  0.69300  0.66480  0.45810  1.0000
  H   H41       1.0  0.97180  0.30700  0.45810  1.0000
  H   H42       1.0  0.33520  0.02820  0.45810  1.0000
  H   H43       1.0  0.63847  0.99813  0.29143  1.0000
  H   H44       1.0  0.00187  0.64033  0.29143  1.0000
  H   H45       1.0  0.35967  0.36153  0.29143  1.0000
  H   H46       1.0  0.35967  0.99813  0.79143  1.0000
  H   H47       1.0  0.63847  0.64033  0.79143  1.0000
  H   H48       1.0  0.00187  0.36153  0.79143  1.0000
  H   H49       1.0  0.30513  0.33147  0.62477  1.0000
  H   H50       1.0  0.66853  0.97367  0.62477  1.0000
  H   H51       1.0  0.02633  0.69487  0.62477  1.0000
  H   H52       1.0  0.02633  0.33147  0.12477  1.0000
  H   H53       1.0  0.30513  0.97367  0.12477  1.0000
  H   H54       1.0  0.66853  0.69487  0.12477  1.0000
  H   H55       1.0  0.05530  0.67130  0.97830  1.0000
  H   H56       1.0  0.32870  0.38400  0.97830  1.0000
  H   H57       1.0  0.61600  0.94470  0.97830  1.0000
  H   H58       1.0  0.61600  0.67130  0.47830  1.0000
  H   H59       1.0  0.05530  0.38400  0.47830  1.0000
  H   H60       1.0  0.32870  0.94470  0.47830  1.0000
  H   H61       1.0  0.72197  0.00463  0.31163  1.0000
  H   H62       1.0  0.99537  0.71733  0.31163  1.0000
  H   H63       1.0  0.28267  0.27803  0.31163  1.0000
  H   H64       1.0  0.28267  0.00463  0.81163  1.0000
  H   H65       1.0  0.72197  0.71733  0.81163  1.0000
  H   H66       1.0  0.99537  0.27803  0.81163  1.0000
  H   H67       1.0  0.38863  0.33797  0.64497  1.0000
  H   H68       1.0  0.66203  0.05067  0.64497  1.0000
  H   H69       1.0  0.94933  0.61137  0.64497  1.0000
  H   H70       1.0  0.94933  0.33797  0.14497  1.0000
  H   H71       1.0  0.38863  0.05067  0.14497  1.0000
  H   H72       1.0  0.66203  0.61137  0.14497  1.0000
  C   C91       1.0  0.10630  0.75120  0.94040  1.0000
  C   C92       1.0  0.24880  0.35510  0.94040  1.0000
  C   C93       1.0  0.64490  0.89370  0.94040  1.0000
  C   C94       1.0  0.64490  0.75120  0.44040  1.0000
  C   C95       1.0  0.10630  0.35510  0.44040  1.0000
  C   C96       1.0  0.24880  0.89370  0.44040  1.0000
  C   C97       1.0  0.77297  0.08453  0.27373  1.0000
  C   C98       1.0  0.91547  0.68843  0.27373  1.0000
  C   C99       1.0  0.31157  0.22703  0.27373  1.0000
  C   C100      1.0  0.31157  0.08453  0.77373  1.0000
  C   C101      1.0  0.77297  0.68843  0.77373  1.0000
  C   C102      1.0  0.91547  0.22703  0.77373  1.0000
  C   C103      1.0  0.43963  0.41787  0.60707  1.0000
  C   C104      1.0  0.58213  0.02177  0.60707  1.0000
  C   C105      1.0  0.97823  0.56037  0.60707  1.0000
  C   C106      1.0  0.97823  0.41787  0.10707  1.0000
  C   C107      1.0  0.43963  0.02177  0.10707  1.0000
  C   C108      1.0  0.58213  0.56037  0.10707  1.0000
  C   C109      1.0  0.81980  0.25900  0.99569  1.0000
  C   C110      1.0  0.74100  0.56080  0.99569  1.0000
  C   C111      1.0  0.43920  0.18020  0.99569  1.0000
  C   C112      1.0  0.43920  0.25900  0.49569  1.0000
  C   C113      1.0  0.81980  0.56080  0.49569  1.0000
  C   C114      1.0  0.74100  0.18020  0.49569  1.0000
  C   C115      1.0  0.48647  0.59233  0.32902  1.0000
  C   C116      1.0  0.40767  0.89413  0.32902  1.0000
  C   C117      1.0  0.10587  0.51353  0.32902  1.0000
  C   C118      1.0  0.10587  0.59233  0.82902  1.0000
  C   C119      1.0  0.48647  0.89413  0.82902  1.0000
  C   C120      1.0  0.40767  0.51353  0.82902  1.0000
  C   C121      1.0  0.15313  0.92567  0.66236  1.0000
  C   C122      1.0  0.07433  0.22747  0.66236  1.0000
  C   C123      1.0  0.77253  0.84687  0.66236  1.0000
  C   C124      1.0  0.77253  0.92567  0.16236  1.0000
  C   C125      1.0  0.15313  0.22747  0.16236  1.0000
  C   C126      1.0  0.07433  0.84687  0.16236  1.0000
  H   H73       1.0  0.77220  0.25450  0.98140  1.0000
  H   H74       1.0  0.74550  0.51770  0.98140  1.0000
  H   H75       1.0  0.48230  0.22780  0.98140  1.0000
  H   H76       1.0  0.48230  0.25450  0.48140  1.0000
  H   H77       1.0  0.77220  0.51770  0.48140  1.0000
  H   H78       1.0  0.74550  0.22780  0.48140  1.0000
  H   H79       1.0  0.43887  0.58783  0.31473  1.0000
  H   H80       1.0  0.41217  0.85103  0.31473  1.0000
  H   H81       1.0  0.14897  0.56113  0.31473  1.0000
  H   H82       1.0  0.14897  0.58783  0.81473  1.0000
  H   H83       1.0  0.43887  0.85103  0.81473  1.0000
  H   H84       1.0  0.41217  0.56113  0.81473  1.0000
  H   H85       1.0  0.10553  0.92117  0.64807  1.0000
  H   H86       1.0  0.07883  0.18437  0.64807  1.0000
  H   H87       1.0  0.81563  0.89447  0.64807  1.0000
  H   H88       1.0  0.81563  0.92117  0.14807  1.0000
  H   H89       1.0  0.10553  0.18437  0.14807  1.0000
  H   H90       1.0  0.07883  0.89447  0.14807  1.0000
  H   H91       1.0  0.82220  0.19930  0.99480  1.0000
  H   H92       1.0  0.80070  0.62290  0.99480  1.0000
  H   H93       1.0  0.37710  0.17780  0.99480  1.0000
  H   H94       1.0  0.37710  0.19930  0.49480  1.0000
  H   H95       1.0  0.82220  0.62290  0.49480  1.0000
  H   H96       1.0  0.80070  0.17780  0.49480  1.0000
  H   H97       1.0  0.48887  0.53263  0.32813  1.0000
  H   H98       1.0  0.46737  0.95623  0.32813  1.0000
  H   H99       1.0  0.04377  0.51113  0.32813  1.0000
  H   H100      1.0  0.04377  0.53263  0.82813  1.0000
  H   H101      1.0  0.48887  0.95623  0.82813  1.0000
  H   H102      1.0  0.46737  0.51113  0.82813  1.0000
  H   H103      1.0  0.15553  0.86597  0.66147  1.0000
  H   H104      1.0  0.13403  0.28957  0.66147  1.0000
  H   H105      1.0  0.71043  0.84447  0.66147  1.0000
  H   H106      1.0  0.71043  0.86597  0.16147  1.0000
  H   H107      1.0  0.15553  0.28957  0.16147  1.0000
  H   H108      1.0  0.13403  0.84447  0.16147  1.0000
  C   C127      1.0  0.79180  0.27220  0.02560  1.0000
  C   C128      1.0  0.72780  0.51960  0.02560  1.0000
  C   C129      1.0  0.48040  0.20820  0.02560  1.0000
  C   C130      1.0  0.48040  0.27220  0.52560  1.0000
  C   C131      1.0  0.79180  0.51960  0.52560  1.0000
  C   C132      1.0  0.72780  0.20820  0.52560  1.0000
  C   C133      1.0  0.45847  0.60553  0.35893  1.0000
  C   C134      1.0  0.39447  0.85293  0.35893  1.0000
  C   C135      1.0  0.14707  0.54153  0.35893  1.0000
  C   C136      1.0  0.14707  0.60553  0.85893  1.0000
  C   C137      1.0  0.45847  0.85293  0.85893  1.0000
  C   C138      1.0  0.39447  0.54153  0.85893  1.0000
  C   C139      1.0  0.12513  0.93887  0.69227  1.0000
  C   C140      1.0  0.06113  0.18627  0.69227  1.0000
  C   C141      1.0  0.81373  0.87487  0.69227  1.0000
  C   C142      1.0  0.81373  0.93887  0.19227  1.0000
  C   C143      1.0  0.12513  0.18627  0.19227  1.0000
  C   C144      1.0  0.06113  0.87487  0.19227  1.0000
  H   H109      1.0  0.76650  0.31640  0.02450  1.0000
  H   H110      1.0  0.68360  0.45010  0.02450  1.0000
  H   H111      1.0  0.54990  0.23350  0.02450  1.0000
  H   H112      1.0  0.54990  0.31640  0.52450  1.0000
  H   H113      1.0  0.76650  0.45010  0.52450  1.0000
  H   H114      1.0  0.68360  0.23350  0.52450  1.0000
  H   H115      1.0  0.43317  0.64973  0.35783  1.0000
  H   H116      1.0  0.35027  0.78343  0.35783  1.0000
  H   H117      1.0  0.21657  0.56683  0.35783  1.0000
  H   H118      1.0  0.21657  0.64973  0.85783  1.0000
  H   H119      1.0  0.43317  0.78343  0.85783  1.0000
  H   H120      1.0  0.35027  0.56683  0.85783  1.0000
  H   H121      1.0  0.09983  0.98307  0.69117  1.0000
  H   H122      1.0  0.01693  0.11677  0.69117  1.0000
  H   H123      1.0  0.88323  0.90017  0.69117  1.0000
  H   H124      1.0  0.88323  0.98307  0.19117  1.0000
  H   H125      1.0  0.09983  0.11677  0.19117  1.0000
  H   H126      1.0  0.01693  0.90017  0.19117  1.0000
  H   H127      1.0  0.84940  0.30230  0.03800  1.0000
  H   H128      1.0  0.69770  0.54710  0.03800  1.0000
  H   H129      1.0  0.45290  0.15060  0.03800  1.0000
  H   H130      1.0  0.45290  0.30230  0.53800  1.0000
  H   H131      1.0  0.84940  0.54710  0.53800  1.0000
  H   H132      1.0  0.69770  0.15060  0.53800  1.0000
  H   H133      1.0  0.51607  0.63563  0.37133  1.0000
  H   H134      1.0  0.36437  0.88043  0.37133  1.0000
  H   H135      1.0  0.11957  0.48393  0.37133  1.0000
  H   H136      1.0  0.11957  0.63563  0.87133  1.0000
  H   H137      1.0  0.51607  0.88043  0.87133  1.0000
  H   H138      1.0  0.36437  0.48393  0.87133  1.0000
  H   H139      1.0  0.18273  0.96897  0.70467  1.0000
  H   H140      1.0  0.03103  0.21377  0.70467  1.0000
  H   H141      1.0  0.78623  0.81727  0.70467  1.0000
  H   H142      1.0  0.78623  0.96897  0.20467  1.0000
  H   H143      1.0  0.18273  0.21377  0.20467  1.0000
  H   H144      1.0  0.03103  0.81727  0.20467  1.0000
  C   C145      1.0  0.71770  0.18060  0.04002  1.0000
  C   C146      1.0  0.81940  0.53710  0.04002  1.0000
  C   C147      1.0  0.46290  0.28230  0.04002  1.0000
  C   C148      1.0  0.46290  0.18060  0.54002  1.0000
  C   C149      1.0  0.71770  0.53710  0.54002  1.0000
  C   C150      1.0  0.81940  0.28230  0.54002  1.0000
  C   C151      1.0  0.38437  0.51393  0.37335  1.0000
  C   C152      1.0  0.48607  0.87043  0.37335  1.0000
  C   C153      1.0  0.12957  0.61563  0.37335  1.0000
  C   C154      1.0  0.12957  0.51393  0.87335  1.0000
  C   C155      1.0  0.38437  0.87043  0.87335  1.0000
  C   C156      1.0  0.48607  0.61563  0.87335  1.0000
  C   C157      1.0  0.05103  0.84727  0.70669  1.0000
  C   C158      1.0  0.15273  0.20377  0.70669  1.0000
  C   C159      1.0  0.79623  0.94897  0.70669  1.0000
  C   C160      1.0  0.79623  0.84727  0.20669  1.0000
  C   C161      1.0  0.05103  0.20377  0.20669  1.0000
  C   C162      1.0  0.15273  0.94897  0.20669  1.0000
  C   C163      1.0  0.17710  0.43220  0.00368  1.0000
  C   C164      1.0  0.56780  0.74490  0.00368  1.0000
  C   C165      1.0  0.25510  0.82290  0.00368  1.0000
  C   C166      1.0  0.25510  0.43220  0.50368  1.0000
  C   C167      1.0  0.17710  0.74490  0.50368  1.0000
  C   C168      1.0  0.56780  0.82290  0.50368  1.0000
  C   C169      1.0  0.84377  0.76553  0.33701  1.0000
  C   C170      1.0  0.23447  0.07823  0.33701  1.0000
  C   C171      1.0  0.92177  0.15623  0.33701  1.0000
  C   C172      1.0  0.92177  0.76553  0.83701  1.0000
  C   C173      1.0  0.84377  0.07823  0.83701  1.0000
  C   C174      1.0  0.23447  0.15623  0.83701  1.0000
  C   C175      1.0  0.51043  0.09887  0.67035  1.0000
  C   C176      1.0  0.90113  0.41157  0.67035  1.0000
  C   C177      1.0  0.58843  0.48957  0.67035  1.0000
  C   C178      1.0  0.58843  0.09887  0.17035  1.0000
  C   C179      1.0  0.51043  0.41157  0.17035  1.0000
  C   C180      1.0  0.90113  0.48957  0.17035  1.0000
  H   H145      1.0  0.16870  0.36740  0.00360  1.0000
  H   H146      1.0  0.63260  0.80130  0.00360  1.0000
  H   H147      1.0  0.19870  0.83130  0.00360  1.0000
  H   H148      1.0  0.19870  0.36740  0.50360  1.0000
  H   H149      1.0  0.16870  0.80130  0.50360  1.0000
  H   H150      1.0  0.63260  0.83130  0.50360  1.0000
  H   H151      1.0  0.83537  0.70073  0.33693  1.0000
  H   H152      1.0  0.29927  0.13463  0.33693  1.0000
  H   H153      1.0  0.86537  0.16463  0.33693  1.0000
  H   H154      1.0  0.86537  0.70073  0.83693  1.0000
  H   H155      1.0  0.83537  0.13463  0.83693  1.0000
  H   H156      1.0  0.29927  0.16463  0.83693  1.0000
  H   H157      1.0  0.50203  0.03407  0.67027  1.0000
  H   H158      1.0  0.96593  0.46797  0.67027  1.0000
  H   H159      1.0  0.53203  0.49797  0.67027  1.0000
  H   H160      1.0  0.53203  0.03407  0.17027  1.0000
  H   H161      1.0  0.50203  0.46797  0.17027  1.0000
  H   H162      1.0  0.96593  0.49797  0.17027  1.0000
  H   H163      1.0  0.23020  0.47220  0.99040  1.0000
  H   H164      1.0  0.52780  0.75800  0.99040  1.0000
  H   H165      1.0  0.24200  0.76980  0.99040  1.0000
  H   H166      1.0  0.24200  0.47220  0.49040  1.0000
  H   H167      1.0  0.23020  0.75800  0.49040  1.0000
  H   H168      1.0  0.52780  0.76980  0.49040  1.0000
  H   H169      1.0  0.89687  0.80553  0.32373  1.0000
  H   H170      1.0  0.19447  0.09133  0.32373  1.0000
  H   H171      1.0  0.90867  0.10313  0.32373  1.0000
  H   H172      1.0  0.90867  0.80553  0.82373  1.0000
  H   H173      1.0  0.89687  0.09133  0.82373  1.0000
  H   H174      1.0  0.19447  0.10313  0.82373  1.0000
  H   H175      1.0  0.56353  0.13887  0.65707  1.0000
  H   H176      1.0  0.86113  0.42467  0.65707  1.0000
  H   H177      1.0  0.57533  0.43647  0.65707  1.0000
  H   H178      1.0  0.57533  0.13887  0.15707  1.0000
  H   H179      1.0  0.56353  0.42467  0.15707  1.0000
  H   H180      1.0  0.86113  0.43647  0.15707  1.0000
  C   C181      1.0  0.20340  0.47240  0.03398  1.0000
  C   C182      1.0  0.52760  0.73100  0.03398  1.0000
  C   C183      1.0  0.26900  0.79660  0.03398  1.0000
  C   C184      1.0  0.26900  0.47240  0.53398  1.0000
  C   C185      1.0  0.20340  0.73100  0.53398  1.0000
  C   C186      1.0  0.52760  0.79660  0.53398  1.0000
  C   C187      1.0  0.87007  0.80573  0.36731  1.0000
  C   C188      1.0  0.19427  0.06433  0.36731  1.0000
  C   C189      1.0  0.93567  0.12993  0.36731  1.0000
  C   C190      1.0  0.93567  0.80573  0.86731  1.0000
  C   C191      1.0  0.87007  0.06433  0.86731  1.0000
  C   C192      1.0  0.19427  0.12993  0.86731  1.0000
  C   C193      1.0  0.53673  0.13907  0.70065  1.0000
  C   C194      1.0  0.86093  0.39767  0.70065  1.0000
  C   C195      1.0  0.60233  0.46327  0.70065  1.0000
  C   C196      1.0  0.60233  0.13907  0.20065  1.0000
  C   C197      1.0  0.53673  0.39767  0.20065  1.0000
  C   C198      1.0  0.86093  0.46327  0.20065  1.0000
  H   H181      1.0  0.14720  0.43960  0.04680  1.0000
  H   H182      1.0  0.56040  0.70760  0.04680  1.0000
  H   H183      1.0  0.29240  0.85280  0.04680  1.0000
  H   H184      1.0  0.29240  0.43960  0.54680  1.0000
  H   H185      1.0  0.14720  0.70760  0.54680  1.0000
  H   H186      1.0  0.56040  0.85280  0.54680  1.0000
  H   H187      1.0  0.81387  0.77293  0.38013  1.0000
  H   H188      1.0  0.22707  0.04093  0.38013  1.0000
  H   H189      1.0  0.95907  0.18613  0.38013  1.0000
  H   H190      1.0  0.95907  0.77293  0.88013  1.0000
  H   H191      1.0  0.81387  0.04093  0.88013  1.0000
  H   H192      1.0  0.22707  0.18613  0.88013  1.0000
  H   H193      1.0  0.48053  0.10627  0.71347  1.0000
  H   H194      1.0  0.89373  0.37427  0.71347  1.0000
  H   H195      1.0  0.62573  0.51947  0.71347  1.0000
  H   H196      1.0  0.62573  0.10627  0.21347  1.0000
  H   H197      1.0  0.48053  0.37427  0.21347  1.0000
  H   H198      1.0  0.89373  0.51947  0.21347  1.0000
  H   H199      1.0  0.22350  0.54090  0.03360  1.0000
  H   H200      1.0  0.45910  0.68260  0.03360  1.0000
  H   H201      1.0  0.31740  0.77650  0.03360  1.0000
  H   H202      1.0  0.31740  0.54090  0.53360  1.0000
  H   H203      1.0  0.22350  0.68260  0.53360  1.0000
  H   H204      1.0  0.45910  0.77650  0.53360  1.0000
  H   H205      1.0  0.89017  0.87423  0.36693  1.0000
  H   H206      1.0  0.12577  0.01593  0.36693  1.0000
  H   H207      1.0  0.98407  0.10983  0.36693  1.0000
  H   H208      1.0  0.98407  0.87423  0.86693  1.0000
  H   H209      1.0  0.89017  0.01593  0.86693  1.0000
  H   H210      1.0  0.12577  0.10983  0.86693  1.0000
  H   H211      1.0  0.55683  0.20757  0.70027  1.0000
  H   H212      1.0  0.79243  0.34927  0.70027  1.0000
  H   H213      1.0  0.65073  0.44317  0.70027  1.0000
  H   H214      1.0  0.65073  0.20757  0.20027  1.0000
  H   H215      1.0  0.55683  0.34927  0.20027  1.0000
  H   H216      1.0  0.79243  0.44317  0.20027  1.0000
  C   C199      1.0  0.28500  0.45960  0.04601  1.0000
  C   C200      1.0  0.54040  0.82540  0.04601  1.0000
  C   C201      1.0  0.17460  0.71500  0.04601  1.0000
  C   C202      1.0  0.17460  0.45960  0.54601  1.0000
  C   C203      1.0  0.28500  0.82540  0.54601  1.0000
  C   C204      1.0  0.54040  0.71500  0.54601  1.0000
  C   C205      1.0  0.95167  0.79293  0.37934  1.0000
  C   C206      1.0  0.20707  0.15873  0.37934  1.0000
  C   C207      1.0  0.84127  0.04833  0.37934  1.0000
  C   C208      1.0  0.84127  0.79293  0.87934  1.0000
  C   C209      1.0  0.95167  0.15873  0.87934  1.0000
  C   C210      1.0  0.20707  0.04833  0.87934  1.0000
  C   C211      1.0  0.61833  0.12627  0.71268  1.0000
  C   C212      1.0  0.87373  0.49207  0.71268  1.0000
  C   C213      1.0  0.50793  0.38167  0.71268  1.0000
  C   C214      1.0  0.50793  0.12627  0.21268  1.0000
  C   C215      1.0  0.61833  0.49207  0.21268  1.0000
  C   C216      1.0  0.87373  0.38167  0.21268  1.0000
