data_image0
_chemical_formula_structural       U4O44N12C8H8C4H8C16H8C4H8C8H8C4H8C4
_chemical_formula_sum              "U4 O44 N12 C48 H48"
_cell_length_a       8.9863
_cell_length_b       20.6215
_cell_length_c       13.6414
_cell_angle_alpha    90
_cell_angle_beta     92.654
_cell_angle_gamma    90

_space_group_name_H-M_alt    "P 1"
_space_group_IT_number       1

loop_
  _space_group_symop_operation_xyz
  'x, y, z'

loop_
  _atom_site_type_symbol
  _atom_site_label
  _atom_site_symmetry_multiplicity
  _atom_site_fract_x
  _atom_site_fract_y
  _atom_site_fract_z
  _atom_site_occupancy
  U   U1        1.0  0.39042  0.66185  0.40949  1.0000
  U   U2        1.0  0.10958  0.16185  0.09051  1.0000
  U   U3        1.0  0.60958  0.33815  0.59051  1.0000
  U   U4        1.0  0.89042  0.83815  0.90949  1.0000
  O   O1        1.0  0.52420  0.57610  0.32880  1.0000
  O   O2        1.0  0.97580  0.07610  0.17120  1.0000
  O   O3        1.0  0.47580  0.42390  0.67120  1.0000
  O   O4        1.0  0.02420  0.92390  0.82880  1.0000
  O   O5        1.0  0.54640  0.57550  0.48720  1.0000
  O   O6        1.0  0.95360  0.07550  0.01280  1.0000
  O   O7        1.0  0.45360  0.42450  0.51280  1.0000
  O   O8        1.0  0.04640  0.92450  0.98720  1.0000
  O   O9        1.0  0.76420  0.75800  0.00930  1.0000
  O   O10       1.0  0.73580  0.25800  0.49070  1.0000
  O   O11       1.0  0.23580  0.24200  0.99070  1.0000
  O   O12       1.0  0.26420  0.74200  0.50930  1.0000
  O   O13       1.0  0.88660  0.83200  0.09130  1.0000
  O   O14       1.0  0.61340  0.33200  0.40870  1.0000
  O   O15       1.0  0.11340  0.16800  0.90870  1.0000
  O   O16       1.0  0.38660  0.66800  0.59130  1.0000
  O   O17       1.0  0.86390  0.83200  0.72720  1.0000
  O   O18       1.0  0.63610  0.33200  0.77280  1.0000
  O   O19       1.0  0.13610  0.16800  0.27280  1.0000
  O   O20       1.0  0.36390  0.66800  0.22720  1.0000
  O   O21       1.0  0.76620  0.75340  0.80670  1.0000
  O   O22       1.0  0.73380  0.25340  0.69330  1.0000
  O   O23       1.0  0.23380  0.24660  0.19330  1.0000
  O   O24       1.0  0.26620  0.74660  0.30670  1.0000
  O   O25       1.0  0.89030  0.59460  0.24750  1.0000
  O   O26       1.0  0.60970  0.09460  0.25250  1.0000
  O   O27       1.0  0.10970  0.40540  0.75250  1.0000
  O   O28       1.0  0.39030  0.90540  0.74750  1.0000
  O   O29       1.0  0.90670  0.78590  0.41130  1.0000
  O   O30       1.0  0.59330  0.28590  0.08870  1.0000
  O   O31       1.0  0.09330  0.21410  0.58870  1.0000
  O   O32       1.0  0.40670  0.71410  0.91130  1.0000
  O   O33       1.0  0.90300  0.59610  0.57830  1.0000
  O   O34       1.0  0.59700  0.09610  0.92170  1.0000
  O   O35       1.0  0.09700  0.40390  0.42170  1.0000
  O   O36       1.0  0.40300  0.90390  0.07830  1.0000
  O   O37       1.0  0.22910  0.61300  0.40810  1.0000
  O   O38       1.0  0.27090  0.11300  0.09190  1.0000
  O   O39       1.0  0.77090  0.38700  0.59190  1.0000
  O   O40       1.0  0.72910  0.88700  0.90810  1.0000
  O   O41       1.0  0.55190  0.71070  0.40970  1.0000
  O   O42       1.0  0.94810  0.21070  0.09030  1.0000
  O   O43       1.0  0.44810  0.28930  0.59030  1.0000
  O   O44       1.0  0.05190  0.78930  0.90970  1.0000
  N   N1        1.0  0.87770  0.59490  0.41170  1.0000
  N   N2        1.0  0.62230  0.09490  0.08830  1.0000
  N   N3        1.0  0.12230  0.40510  0.58830  1.0000
  N   N4        1.0  0.37770  0.90510  0.91170  1.0000
  N   N5        1.0  0.90810  0.69190  0.32680  1.0000
  N   N6        1.0  0.59190  0.19190  0.17320  1.0000
  N   N7        1.0  0.09190  0.30810  0.67320  1.0000
  N   N8        1.0  0.40810  0.80810  0.82680  1.0000
  N   N9        1.0  0.90780  0.69200  0.49630  1.0000
  N   N10       1.0  0.59220  0.19200  0.00370  1.0000
  N   N11       1.0  0.09220  0.30800  0.50370  1.0000
  N   N12       1.0  0.40780  0.80800  0.99630  1.0000
  C   C1        1.0  0.59170  0.55440  0.40790  1.0000
  C   C2        1.0  0.90830  0.05440  0.09210  1.0000
  C   C3        1.0  0.40830  0.44560  0.59210  1.0000
  C   C4        1.0  0.09170  0.94560  0.90790  1.0000
  C   C5        1.0  0.69850  0.50080  0.39230  1.0000
  C   C6        1.0  0.80150  0.00080  0.10770  1.0000
  C   C7        1.0  0.30150  0.49920  0.60770  1.0000
  C   C8        1.0  0.19850  0.99920  0.89230  1.0000
  H   H1        1.0  0.67810  0.46460  0.43510  1.0000
  H   H2        1.0  0.82190  0.96460  0.06490  1.0000
  H   H3        1.0  0.32190  0.53540  0.56490  1.0000
  H   H4        1.0  0.17810  0.03540  0.93510  1.0000
  H   H5        1.0  0.68940  0.48590  0.32480  1.0000
  H   H6        1.0  0.81060  0.98590  0.17520  1.0000
  H   H7        1.0  0.31060  0.51410  0.67520  1.0000
  H   H8        1.0  0.18940  0.01410  0.82480  1.0000
  C   C9        1.0  0.84880  0.52590  0.41460  1.0000
  C   C10       1.0  0.65120  0.02590  0.08540  1.0000
  C   C11       1.0  0.15120  0.47410  0.58540  1.0000
  C   C12       1.0  0.34880  0.97410  0.91460  1.0000
  H   H9        1.0  0.87940  0.51090  0.47980  1.0000
  H   H10       1.0  0.62060  0.01090  0.02020  1.0000
  H   H11       1.0  0.12060  0.48910  0.52020  1.0000
  H   H12       1.0  0.37940  0.98910  0.97980  1.0000
  H   H13       1.0  0.91450  0.50540  0.36930  1.0000
  H   H14       1.0  0.58550  0.00540  0.13070  1.0000
  H   H15       1.0  0.08550  0.49460  0.63070  1.0000
  H   H16       1.0  0.41450  0.99460  0.86930  1.0000
  C   C13       1.0  0.89250  0.62470  0.32310  1.0000
  C   C14       1.0  0.60750  0.12470  0.17690  1.0000
  C   C15       1.0  0.10750  0.37530  0.67690  1.0000
  C   C16       1.0  0.39250  0.87530  0.82310  1.0000
  C   C17       1.0  0.90720  0.72830  0.41200  1.0000
  C   C18       1.0  0.59280  0.22830  0.08800  1.0000
  C   C19       1.0  0.09280  0.27170  0.58800  1.0000
  C   C20       1.0  0.40720  0.77170  0.91200  1.0000
  C   C21       1.0  0.89760  0.62570  0.50080  1.0000
  C   C22       1.0  0.60240  0.12570  0.99920  1.0000
  C   C23       1.0  0.10240  0.37430  0.49920  1.0000
  C   C24       1.0  0.39760  0.87430  0.00080  1.0000
  C   C25       1.0  0.92670  0.72830  0.23240  1.0000
  C   C26       1.0  0.57330  0.22830  0.26760  1.0000
  C   C27       1.0  0.07330  0.27170  0.76760  1.0000
  C   C28       1.0  0.42670  0.77170  0.73240  1.0000
  H   H17       1.0  0.98570  0.76700  0.24560  1.0000
  H   H18       1.0  0.51430  0.26700  0.25440  1.0000
  H   H19       1.0  0.01430  0.23300  0.75440  1.0000
  H   H20       1.0  0.48570  0.73300  0.74560  1.0000
  H   H21       1.0  0.97970  0.70140  0.18730  1.0000
  H   H22       1.0  0.52030  0.20140  0.31270  1.0000
  H   H23       1.0  0.02030  0.29860  0.81270  1.0000
  H   H24       1.0  0.47970  0.79860  0.68730  1.0000
  C   C29       1.0  0.77950  0.74710  0.18600  1.0000
  C   C30       1.0  0.72050  0.24710  0.31400  1.0000
  C   C31       1.0  0.22050  0.25290  0.81400  1.0000
  C   C32       1.0  0.27950  0.75290  0.68600  1.0000
  H   H25       1.0  0.72810  0.77690  0.22790  1.0000
  H   H26       1.0  0.77190  0.27690  0.27210  1.0000
  H   H27       1.0  0.27190  0.22310  0.77210  1.0000
  H   H28       1.0  0.22810  0.72310  0.72790  1.0000
  H   H29       1.0  0.71740  0.70910  0.17450  1.0000
  H   H30       1.0  0.78260  0.20910  0.32550  1.0000
  H   H31       1.0  0.28260  0.29090  0.82550  1.0000
  H   H32       1.0  0.21740  0.79090  0.67450  1.0000
  C   C33       1.0  0.81240  0.77900  0.09120  1.0000
  C   C34       1.0  0.68760  0.27900  0.40880  1.0000
  C   C35       1.0  0.18760  0.22100  0.90880  1.0000
  C   C36       1.0  0.31240  0.72100  0.59120  1.0000
  C   C37       1.0  0.92260  0.72780  0.59310  1.0000
  C   C38       1.0  0.57740  0.22780  0.90690  1.0000
  C   C39       1.0  0.07740  0.27220  0.40690  1.0000
  C   C40       1.0  0.42260  0.77220  0.09310  1.0000
  H   H33       1.0  0.97820  0.70150  0.64090  1.0000
  H   H34       1.0  0.52180  0.20150  0.85910  1.0000
  H   H35       1.0  0.02180  0.29850  0.35910  1.0000
  H   H36       1.0  0.47820  0.79850  0.14090  1.0000
  H   H37       1.0  0.97710  0.76790  0.58450  1.0000
  H   H38       1.0  0.52290  0.26790  0.91550  1.0000
  H   H39       1.0  0.02290  0.23210  0.41550  1.0000
  H   H40       1.0  0.47710  0.73210  0.08450  1.0000
  C   C41       1.0  0.77200  0.74280  0.63000  1.0000
  C   C42       1.0  0.72800  0.24280  0.87000  1.0000
  C   C43       1.0  0.22800  0.25720  0.37000  1.0000
  C   C44       1.0  0.27200  0.75720  0.13000  1.0000
  H   H41       1.0  0.71600  0.77040  0.58410  1.0000
  H   H42       1.0  0.78400  0.27040  0.91590  1.0000
  H   H43       1.0  0.28400  0.22960  0.41590  1.0000
  H   H44       1.0  0.21600  0.72960  0.08410  1.0000
  H   H45       1.0  0.71610  0.70330  0.63950  1.0000
  H   H46       1.0  0.78390  0.20330  0.86050  1.0000
  H   H47       1.0  0.28390  0.29670  0.36050  1.0000
  H   H48       1.0  0.21610  0.79670  0.13950  1.0000
  C   C45       1.0  0.80150  0.77690  0.72530  1.0000
  C   C46       1.0  0.69850  0.27690  0.77470  1.0000
  C   C47       1.0  0.19850  0.22310  0.27470  1.0000
  C   C48       1.0  0.30150  0.72310  0.22530  1.0000
