data_image0
_chemical_formula_structural       Zn4I12C44H12C4H12C4H12N4O28
_chemical_formula_sum              "Zn4 I12 C52 H36 N4 O28"
_cell_length_a       17.4401
_cell_length_b       8.4179
_cell_length_c       15.6455
_cell_angle_alpha    90
_cell_angle_beta     90
_cell_angle_gamma    90

_space_group_name_H-M_alt    "P 1"
_space_group_IT_number       1

loop_
  _space_group_symop_operation_xyz
  'x, y, z'

loop_
  _atom_site_type_symbol
  _atom_site_label
  _atom_site_symmetry_multiplicity
  _atom_site_fract_x
  _atom_site_fract_y
  _atom_site_fract_z
  _atom_site_occupancy
  Zn  Zn1       1.0  0.38828  0.97374  0.70705  1.0000
  Zn  Zn2       1.0  0.61172  0.02626  0.20705  1.0000
  Zn  Zn3       1.0  0.88828  0.02626  0.70705  1.0000
  Zn  Zn4       1.0  0.11172  0.97374  0.20705  1.0000
  I   I1        1.0  0.39468  0.82344  0.13665  1.0000
  I   I2        1.0  0.60532  0.17656  0.63665  1.0000
  I   I3        1.0  0.89468  0.17656  0.13665  1.0000
  I   I4        1.0  0.10532  0.82344  0.63665  1.0000
  I   I5        1.0  0.55027  0.72537  0.47521  1.0000
  I   I6        1.0  0.44973  0.27463  0.97521  1.0000
  I   I7        1.0  0.05027  0.27463  0.47521  1.0000
  I   I8        1.0  0.94973  0.72537  0.97521  1.0000
  I   I9        1.0  0.23506  0.02323  0.45986  1.0000
  I   I10       1.0  0.76494  0.97677  0.95986  1.0000
  I   I11       1.0  0.73506  0.97677  0.45986  1.0000
  I   I12       1.0  0.26494  0.02323  0.95986  1.0000
  C   C1        1.0  0.38610  0.86590  0.54330  1.0000
  C   C2        1.0  0.61390  0.13410  0.04330  1.0000
  C   C3        1.0  0.88610  0.13410  0.54330  1.0000
  C   C4        1.0  0.11390  0.86590  0.04330  1.0000
  C   C5        1.0  0.39280  0.86960  0.44720  1.0000
  C   C6        1.0  0.60720  0.13040  0.94720  1.0000
  C   C7        1.0  0.89280  0.13040  0.44720  1.0000
  C   C8        1.0  0.10720  0.86960  0.94720  1.0000
  C   C9        1.0  0.33130  0.92500  0.39920  1.0000
  C   C10       1.0  0.66870  0.07500  0.89920  1.0000
  C   C11       1.0  0.83130  0.07500  0.39920  1.0000
  C   C12       1.0  0.16870  0.92500  0.89920  1.0000
  C   C13       1.0  0.33130  0.91350  0.30850  1.0000
  C   C14       1.0  0.66870  0.08650  0.80850  1.0000
  C   C15       1.0  0.83130  0.08650  0.30850  1.0000
  C   C16       1.0  0.16870  0.91350  0.80850  1.0000
  C   C17       1.0  0.39630  0.85320  0.26980  1.0000
  C   C18       1.0  0.60370  0.14680  0.76980  1.0000
  C   C19       1.0  0.89630  0.14680  0.26980  1.0000
  C   C20       1.0  0.10370  0.85320  0.76980  1.0000
  C   C21       1.0  0.45990  0.80290  0.31590  1.0000
  C   C22       1.0  0.54010  0.19710  0.81590  1.0000
  C   C23       1.0  0.95990  0.19710  0.31590  1.0000
  C   C24       1.0  0.04010  0.80290  0.81590  1.0000
  C   C25       1.0  0.45580  0.81070  0.40290  1.0000
  C   C26       1.0  0.54420  0.18930  0.90290  1.0000
  C   C27       1.0  0.95580  0.18930  0.40290  1.0000
  C   C28       1.0  0.04420  0.81070  0.90290  1.0000
  C   C29       1.0  0.26250  0.97760  0.25930  1.0000
  C   C30       1.0  0.73750  0.02240  0.75930  1.0000
  C   C31       1.0  0.76250  0.02240  0.25930  1.0000
  C   C32       1.0  0.23750  0.97760  0.75930  1.0000
  C   C33       1.0  0.52870  0.72660  0.27160  1.0000
  C   C34       1.0  0.47130  0.27340  0.77160  1.0000
  C   C35       1.0  0.02870  0.27340  0.27160  1.0000
  C   C36       1.0  0.97130  0.72660  0.77160  1.0000
  C   C37       1.0  0.50880  0.76660  0.79480  1.0000
  C   C38       1.0  0.49120  0.23340  0.29480  1.0000
  C   C39       1.0  0.00880  0.23340  0.79480  1.0000
  C   C40       1.0  0.99120  0.76660  0.29480  1.0000
  C   C41       1.0  0.56490  0.71700  0.71730  1.0000
  C   C42       1.0  0.43510  0.28300  0.21730  1.0000
  C   C43       1.0  0.06490  0.28300  0.71730  1.0000
  C   C44       1.0  0.93510  0.71700  0.21730  1.0000
  H   H1        1.0  0.55880  0.79020  0.67090  1.0000
  H   H2        1.0  0.44120  0.20980  0.17090  1.0000
  H   H3        1.0  0.05880  0.20980  0.67090  1.0000
  H   H4        1.0  0.94120  0.79020  0.17090  1.0000
  H   H5        1.0  0.55210  0.61150  0.69830  1.0000
  H   H6        1.0  0.44790  0.38850  0.19830  1.0000
  H   H7        1.0  0.05210  0.38850  0.69830  1.0000
  H   H8        1.0  0.94790  0.61150  0.19830  1.0000
  H   H9        1.0  0.61710  0.71850  0.73670  1.0000
  H   H10       1.0  0.38290  0.28150  0.23670  1.0000
  H   H11       1.0  0.11710  0.28150  0.73670  1.0000
  H   H12       1.0  0.88290  0.71850  0.23670  1.0000
  C   C45       1.0  0.60690  0.63900  0.87820  1.0000
  C   C46       1.0  0.39310  0.36100  0.37820  1.0000
  C   C47       1.0  0.10690  0.36100  0.87820  1.0000
  C   C48       1.0  0.89310  0.63900  0.37820  1.0000
  H   H13       1.0  0.62580  0.58950  0.82700  1.0000
  H   H14       1.0  0.37420  0.41050  0.32700  1.0000
  H   H15       1.0  0.12580  0.41050  0.82700  1.0000
  H   H16       1.0  0.87420  0.58950  0.32700  1.0000
  H   H17       1.0  0.59560  0.55890  0.92000  1.0000
  H   H18       1.0  0.40440  0.44110  0.42000  1.0000
  H   H19       1.0  0.09560  0.44110  0.92000  1.0000
  H   H20       1.0  0.90440  0.55890  0.42000  1.0000
  H   H21       1.0  0.64510  0.71000  0.90030  1.0000
  H   H22       1.0  0.35490  0.29000  0.40030  1.0000
  H   H23       1.0  0.14510  0.29000  0.90030  1.0000
  H   H24       1.0  0.85490  0.71000  0.40030  1.0000
  C   C49       1.0  0.48290  0.77100  0.92660  1.0000
  C   C50       1.0  0.51710  0.22900  0.42660  1.0000
  C   C51       1.0  0.98290  0.22900  0.92660  1.0000
  C   C52       1.0  0.01710  0.77100  0.42660  1.0000
  H   H25       1.0  0.44680  0.84360  0.90190  1.0000
  H   H26       1.0  0.55320  0.15640  0.40190  1.0000
  H   H27       1.0  0.94680  0.15640  0.90190  1.0000
  H   H28       1.0  0.05320  0.84360  0.40190  1.0000
  H   H29       1.0  0.50860  0.82110  0.97360  1.0000
  H   H30       1.0  0.49140  0.17890  0.47360  1.0000
  H   H31       1.0  0.00860  0.17890  0.97360  1.0000
  H   H32       1.0  0.99140  0.82110  0.47360  1.0000
  H   H33       1.0  0.45640  0.67810  0.94660  1.0000
  H   H34       1.0  0.54360  0.32190  0.44660  1.0000
  H   H35       1.0  0.95640  0.32190  0.94660  1.0000
  H   H36       1.0  0.04360  0.67810  0.44660  1.0000
  N   N1        1.0  0.54130  0.72310  0.85970  1.0000
  N   N2        1.0  0.45870  0.27690  0.35970  1.0000
  N   N3        1.0  0.04130  0.27690  0.85970  1.0000
  N   N4        1.0  0.95870  0.72310  0.35970  1.0000
  O   O1        1.0  0.45330  0.83110  0.77850  1.0000
  O   O2        1.0  0.54670  0.16890  0.27850  1.0000
  O   O3        1.0  0.95330  0.16890  0.77850  1.0000
  O   O4        1.0  0.04670  0.83110  0.27850  1.0000
  O   O5        1.0  0.40470  0.99070  0.58400  1.0000
  O   O6        1.0  0.59530  0.00930  0.08400  1.0000
  O   O7        1.0  0.90470  0.00930  0.58400  1.0000
  O   O8        1.0  0.09530  0.99070  0.08400  1.0000
  O   O9        1.0  0.36960  0.73960  0.57630  1.0000
  O   O10       1.0  0.63040  0.26040  0.07630  1.0000
  O   O11       1.0  0.86960  0.26040  0.57630  1.0000
  O   O12       1.0  0.13040  0.73960  0.07630  1.0000
  O   O13       1.0  0.20740  0.88370  0.25160  1.0000
  O   O14       1.0  0.79260  0.11630  0.75160  1.0000
  O   O15       1.0  0.70740  0.11630  0.25160  1.0000
  O   O16       1.0  0.29260  0.88370  0.75160  1.0000
  O   O17       1.0  0.26620  0.11150  0.22930  1.0000
  O   O18       1.0  0.73380  0.88850  0.72930  1.0000
  O   O19       1.0  0.76620  0.88850  0.22930  1.0000
  O   O20       1.0  0.23380  0.11150  0.72930  1.0000
  O   O21       1.0  0.58220  0.81580  0.24700  1.0000
  O   O22       1.0  0.41780  0.18420  0.74700  1.0000
  O   O23       1.0  0.08220  0.18420  0.24700  1.0000
  O   O24       1.0  0.91780  0.81580  0.74700  1.0000
  O   O25       1.0  0.52810  0.58290  0.26360  1.0000
  O   O26       1.0  0.47190  0.41710  0.76360  1.0000
  O   O27       1.0  0.02810  0.41710  0.26360  1.0000
  O   O28       1.0  0.97190  0.58290  0.76360  1.0000
