data_image0
_chemical_formula_structural       Zn8Ca4C8H8C8O32C8H8C8H8C24H8C8H8C32H16C8H16C8O8C16H8C8H16C16O40
_chemical_formula_sum              "Zn8 Ca4 C152 H96 O80"
_cell_length_a       27.761
_cell_length_b       15.927
_cell_length_c       13.7189
_cell_angle_alpha    90
_cell_angle_beta     116.167
_cell_angle_gamma    90

_space_group_name_H-M_alt    "P 1"
_space_group_IT_number       1

loop_
  _space_group_symop_operation_xyz
  'x, y, z'

loop_
  _atom_site_type_symbol
  _atom_site_label
  _atom_site_symmetry_multiplicity
  _atom_site_fract_x
  _atom_site_fract_y
  _atom_site_fract_z
  _atom_site_occupancy
  Zn  Zn1       1.0  0.13339  0.32589  0.24595  1.0000
  Zn  Zn2       1.0  0.86661  0.32589  0.25405  1.0000
  Zn  Zn3       1.0  0.63339  0.82589  0.24595  1.0000
  Zn  Zn4       1.0  0.36661  0.82589  0.25405  1.0000
  Zn  Zn5       1.0  0.86661  0.67411  0.75405  1.0000
  Zn  Zn6       1.0  0.13339  0.67411  0.74595  1.0000
  Zn  Zn7       1.0  0.36661  0.17411  0.75405  1.0000
  Zn  Zn8       1.0  0.63339  0.17411  0.74595  1.0000
  Ca  Ca1       1.0  0.25000  0.25000  0.50000  1.0000
  Ca  Ca2       1.0  0.75000  0.25000  0.00000  1.0000
  Ca  Ca3       1.0  0.75000  0.75000  0.50000  1.0000
  Ca  Ca4       1.0  0.25000  0.75000  0.00000  1.0000
  C   C1        1.0  0.00584  0.17338  0.54145  1.0000
  C   C2        1.0  0.99416  0.17338  0.95855  1.0000
  C   C3        1.0  0.50584  0.67338  0.54145  1.0000
  C   C4        1.0  0.49416  0.67338  0.95855  1.0000
  C   C5        1.0  0.99416  0.82662  0.45855  1.0000
  C   C6        1.0  0.00584  0.82662  0.04145  1.0000
  C   C7        1.0  0.49416  0.32662  0.45855  1.0000
  C   C8        1.0  0.50584  0.32662  0.04145  1.0000
  H   H1        1.0  0.98400  0.15680  0.57350  1.0000
  H   H2        1.0  0.01600  0.15680  0.92650  1.0000
  H   H3        1.0  0.48400  0.65680  0.57350  1.0000
  H   H4        1.0  0.51600  0.65680  0.92650  1.0000
  H   H5        1.0  0.01600  0.84320  0.42650  1.0000
  H   H6        1.0  0.98400  0.84320  0.07350  1.0000
  H   H7        1.0  0.51600  0.34320  0.42650  1.0000
  H   H8        1.0  0.48400  0.34320  0.07350  1.0000
  C   C9        1.0  0.19375  0.17303  0.24196  1.0000
  C   C10       1.0  0.80625  0.17303  0.25804  1.0000
  C   C11       1.0  0.69375  0.67303  0.24196  1.0000
  C   C12       1.0  0.30625  0.67303  0.25804  1.0000
  C   C13       1.0  0.80625  0.82697  0.75804  1.0000
  C   C14       1.0  0.19375  0.82697  0.74196  1.0000
  C   C15       1.0  0.30625  0.32697  0.75804  1.0000
  C   C16       1.0  0.69375  0.32697  0.74196  1.0000
  O   O1        1.0  0.09479  0.30844  0.33305  1.0000
  O   O2        1.0  0.90521  0.30844  0.16695  1.0000
  O   O3        1.0  0.59479  0.80844  0.33305  1.0000
  O   O4        1.0  0.40521  0.80844  0.16695  1.0000
  O   O5        1.0  0.90521  0.69156  0.66695  1.0000
  O   O6        1.0  0.09479  0.69156  0.83305  1.0000
  O   O7        1.0  0.40521  0.19156  0.66695  1.0000
  O   O8        1.0  0.59479  0.19156  0.83305  1.0000
  O   O9        1.0  0.15914  0.22900  0.45632  1.0000
  O   O10       1.0  0.84086  0.22900  0.04368  1.0000
  O   O11       1.0  0.65914  0.72900  0.45632  1.0000
  O   O12       1.0  0.34086  0.72900  0.04368  1.0000
  O   O13       1.0  0.84086  0.77100  0.54368  1.0000
  O   O14       1.0  0.15914  0.77100  0.95632  1.0000
  O   O15       1.0  0.34086  0.27100  0.54368  1.0000
  O   O16       1.0  0.65914  0.27100  0.95632  1.0000
  O   O17       1.0  0.06502  0.05223  0.61224  1.0000
  O   O18       1.0  0.93498  0.05223  0.88776  1.0000
  O   O19       1.0  0.56502  0.55223  0.61224  1.0000
  O   O20       1.0  0.43498  0.55223  0.88776  1.0000
  O   O21       1.0  0.93498  0.94777  0.38776  1.0000
  O   O22       1.0  0.06502  0.94777  0.11224  1.0000
  O   O23       1.0  0.43498  0.44777  0.38776  1.0000
  O   O24       1.0  0.56502  0.44777  0.11224  1.0000
  O   O25       1.0  0.11484  0.02790  0.89376  1.0000
  O   O26       1.0  0.88516  0.02790  0.60624  1.0000
  O   O27       1.0  0.61484  0.52790  0.89376  1.0000
  O   O28       1.0  0.38516  0.52790  0.60624  1.0000
  O   O29       1.0  0.88516  0.97210  0.10624  1.0000
  O   O30       1.0  0.11484  0.97210  0.39376  1.0000
  O   O31       1.0  0.38516  0.47210  0.10624  1.0000
  O   O32       1.0  0.61484  0.47210  0.39376  1.0000
  C   C17       1.0  0.20207  0.98263  0.02852  1.0000
  C   C18       1.0  0.79793  0.98263  0.47148  1.0000
  C   C19       1.0  0.70207  0.48263  0.02852  1.0000
  C   C20       1.0  0.29793  0.48263  0.47148  1.0000
  C   C21       1.0  0.79793  0.01737  0.97148  1.0000
  C   C22       1.0  0.20207  0.01737  0.52852  1.0000
  C   C23       1.0  0.29793  0.51737  0.97148  1.0000
  C   C24       1.0  0.70207  0.51737  0.52852  1.0000
  H   H9        1.0  0.20490  0.94280  0.98170  1.0000
  H   H10       1.0  0.79510  0.94280  0.51830  1.0000
  H   H11       1.0  0.70490  0.44280  0.98170  1.0000
  H   H12       1.0  0.29510  0.44280  0.51830  1.0000
  H   H13       1.0  0.79510  0.05720  0.01830  1.0000
  H   H14       1.0  0.20490  0.05720  0.48170  1.0000
  H   H15       1.0  0.29510  0.55720  0.01830  1.0000
  H   H16       1.0  0.70490  0.55720  0.48170  1.0000
  C   C25       1.0  0.15509  0.09723  0.06268  1.0000
  C   C26       1.0  0.84491  0.09723  0.43732  1.0000
  C   C27       1.0  0.65509  0.59723  0.06268  1.0000
  C   C28       1.0  0.34491  0.59723  0.43732  1.0000
  C   C29       1.0  0.84491  0.90277  0.93732  1.0000
  C   C30       1.0  0.15509  0.90277  0.56268  1.0000
  C   C31       1.0  0.34491  0.40277  0.93732  1.0000
  C   C32       1.0  0.65509  0.40277  0.56268  1.0000
  H   H17       1.0  0.12590  0.13350  0.03870  1.0000
  H   H18       1.0  0.87410  0.13350  0.46130  1.0000
  H   H19       1.0  0.62590  0.63350  0.03870  1.0000
  H   H20       1.0  0.37410  0.63350  0.46130  1.0000
  H   H21       1.0  0.87410  0.86650  0.96130  1.0000
  H   H22       1.0  0.12590  0.86650  0.53870  1.0000
  H   H23       1.0  0.37410  0.36650  0.96130  1.0000
  H   H24       1.0  0.62590  0.36650  0.53870  1.0000
  C   C33       1.0  0.24233  0.98986  0.13371  1.0000
  C   C34       1.0  0.75767  0.98986  0.36629  1.0000
  C   C35       1.0  0.74233  0.48986  0.13371  1.0000
  C   C36       1.0  0.25767  0.48986  0.36629  1.0000
  C   C37       1.0  0.75767  0.01014  0.86629  1.0000
  C   C38       1.0  0.24233  0.01014  0.63371  1.0000
  C   C39       1.0  0.25767  0.51014  0.86629  1.0000
  C   C40       1.0  0.74233  0.51014  0.63371  1.0000
  C   C41       1.0  0.28666  0.92675  0.16859  1.0000
  C   C42       1.0  0.71334  0.92675  0.33141  1.0000
  C   C43       1.0  0.78666  0.42675  0.16859  1.0000
  C   C44       1.0  0.21334  0.42675  0.33141  1.0000
  C   C45       1.0  0.71334  0.07325  0.83141  1.0000
  C   C46       1.0  0.28666  0.07325  0.66859  1.0000
  C   C47       1.0  0.21334  0.57325  0.83141  1.0000
  C   C48       1.0  0.78666  0.57325  0.66859  1.0000
  C   C49       1.0  0.02602  0.27077  0.42945  1.0000
  C   C50       1.0  0.97398  0.27077  0.07055  1.0000
  C   C51       1.0  0.52602  0.77077  0.42945  1.0000
  C   C52       1.0  0.47398  0.77077  0.07055  1.0000
  C   C53       1.0  0.97398  0.72923  0.57055  1.0000
  C   C54       1.0  0.02602  0.72923  0.92945  1.0000
  C   C55       1.0  0.47398  0.22923  0.57055  1.0000
  C   C56       1.0  0.52602  0.22923  0.92945  1.0000
  H   H25       1.0  0.01640  0.31680  0.38290  1.0000
  H   H26       1.0  0.98360  0.31680  0.11710  1.0000
  H   H27       1.0  0.51640  0.81680  0.38290  1.0000
  H   H28       1.0  0.48360  0.81680  0.11710  1.0000
  H   H29       1.0  0.98360  0.68320  0.61710  1.0000
  H   H30       1.0  0.01640  0.68320  0.88290  1.0000
  H   H31       1.0  0.48360  0.18320  0.61710  1.0000
  H   H32       1.0  0.51640  0.18320  0.88290  1.0000
  C   C57       1.0  0.23981  0.05052  0.20381  1.0000
  C   C58       1.0  0.76019  0.05052  0.29619  1.0000
  C   C59       1.0  0.73981  0.55052  0.20381  1.0000
  C   C60       1.0  0.26019  0.55052  0.29619  1.0000
  C   C61       1.0  0.76019  0.94948  0.79619  1.0000
  C   C62       1.0  0.23981  0.94948  0.70381  1.0000
  C   C63       1.0  0.26019  0.44948  0.79619  1.0000
  C   C64       1.0  0.73981  0.44948  0.70381  1.0000
  H   H33       1.0  0.26690  0.05480  0.27430  1.0000
  H   H34       1.0  0.73310  0.05480  0.22570  1.0000
  H   H35       1.0  0.76690  0.55480  0.27430  1.0000
  H   H36       1.0  0.23310  0.55480  0.22570  1.0000
  H   H37       1.0  0.73310  0.94520  0.72570  1.0000
  H   H38       1.0  0.26690  0.94520  0.77430  1.0000
  H   H39       1.0  0.23310  0.44520  0.72570  1.0000
  H   H40       1.0  0.76690  0.44520  0.77430  1.0000
  C   C65       1.0  0.19600  0.10509  0.16708  1.0000
  C   C66       1.0  0.80400  0.10509  0.33292  1.0000
  C   C67       1.0  0.69600  0.60509  0.16708  1.0000
  C   C68       1.0  0.30400  0.60509  0.33292  1.0000
  C   C69       1.0  0.80400  0.89491  0.83292  1.0000
  C   C70       1.0  0.19600  0.89491  0.66708  1.0000
  C   C71       1.0  0.30400  0.39491  0.83292  1.0000
  C   C72       1.0  0.69600  0.39491  0.66708  1.0000
  C   C73       1.0  0.07265  0.22561  0.45004  1.0000
  C   C74       1.0  0.92735  0.22561  0.04996  1.0000
  C   C75       1.0  0.57265  0.72561  0.45004  1.0000
  C   C76       1.0  0.42735  0.72561  0.04996  1.0000
  C   C77       1.0  0.92735  0.77439  0.54996  1.0000
  C   C78       1.0  0.07265  0.77439  0.95004  1.0000
  C   C79       1.0  0.42735  0.27439  0.54996  1.0000
  C   C80       1.0  0.57265  0.27439  0.95004  1.0000
  C   C81       1.0  0.11256  0.25595  0.41089  1.0000
  C   C82       1.0  0.88744  0.25595  0.08911  1.0000
  C   C83       1.0  0.61256  0.75595  0.41089  1.0000
  C   C84       1.0  0.38744  0.75595  0.08911  1.0000
  C   C85       1.0  0.88744  0.74405  0.58911  1.0000
  C   C86       1.0  0.11256  0.74405  0.91089  1.0000
  C   C87       1.0  0.38744  0.24405  0.58911  1.0000
  C   C88       1.0  0.61256  0.24405  0.91089  1.0000
  C   C89       1.0  0.06344  0.94898  0.73284  1.0000
  C   C90       1.0  0.93656  0.94898  0.76716  1.0000
  C   C91       1.0  0.56344  0.44898  0.73284  1.0000
  C   C92       1.0  0.43656  0.44898  0.76716  1.0000
  C   C93       1.0  0.93656  0.05102  0.26716  1.0000
  C   C94       1.0  0.06344  0.05102  0.23284  1.0000
  C   C95       1.0  0.43656  0.55102  0.26716  1.0000
  C   C96       1.0  0.56344  0.55102  0.23284  1.0000
  H   H41       1.0  0.06610  0.90730  0.68400  1.0000
  H   H42       1.0  0.93390  0.90730  0.81600  1.0000
  H   H43       1.0  0.56610  0.40730  0.68400  1.0000
  H   H44       1.0  0.43390  0.40730  0.81600  1.0000
  H   H45       1.0  0.93390  0.09270  0.31600  1.0000
  H   H46       1.0  0.06610  0.09270  0.18400  1.0000
  H   H47       1.0  0.43390  0.59270  0.31600  1.0000
  H   H48       1.0  0.56610  0.59270  0.18400  1.0000
  H   H49       1.0  0.04200  0.92510  0.76570  1.0000
  H   H50       1.0  0.95800  0.92510  0.73430  1.0000
  H   H51       1.0  0.54200  0.42510  0.76570  1.0000
  H   H52       1.0  0.45800  0.42510  0.73430  1.0000
  H   H53       1.0  0.95800  0.07490  0.23430  1.0000
  H   H54       1.0  0.04200  0.07490  0.26570  1.0000
  H   H55       1.0  0.45800  0.57490  0.23430  1.0000
  H   H56       1.0  0.54200  0.57490  0.26570  1.0000
  C   C97       1.0  0.11872  0.96685  0.82073  1.0000
  C   C98       1.0  0.88128  0.96685  0.67927  1.0000
  C   C99       1.0  0.61872  0.46685  0.82073  1.0000
  C   C100      1.0  0.38128  0.46685  0.67927  1.0000
  C   C101      1.0  0.88128  0.03315  0.17927  1.0000
  C   C102      1.0  0.11872  0.03315  0.32073  1.0000
  C   C103      1.0  0.38128  0.53315  0.17927  1.0000
  C   C104      1.0  0.61872  0.53315  0.32073  1.0000
  H   H57       1.0  0.13470  0.91560  0.85990  1.0000
  H   H58       1.0  0.86530  0.91560  0.64010  1.0000
  H   H59       1.0  0.63470  0.41560  0.85990  1.0000
  H   H60       1.0  0.36530  0.41560  0.64010  1.0000
  H   H61       1.0  0.86530  0.08440  0.14010  1.0000
  H   H62       1.0  0.13470  0.08440  0.35990  1.0000
  H   H63       1.0  0.36530  0.58440  0.14010  1.0000
  H   H64       1.0  0.63470  0.58440  0.35990  1.0000
  H   H65       1.0  0.14140  0.98810  0.78900  1.0000
  H   H66       1.0  0.85860  0.98810  0.71100  1.0000
  H   H67       1.0  0.64140  0.48810  0.78900  1.0000
  H   H68       1.0  0.35860  0.48810  0.71100  1.0000
  H   H69       1.0  0.85860  0.01190  0.21100  1.0000
  H   H70       1.0  0.14140  0.01190  0.28900  1.0000
  H   H71       1.0  0.35860  0.51190  0.21100  1.0000
  H   H72       1.0  0.64140  0.51190  0.28900  1.0000
  C   C105      1.0  0.05011  0.12587  0.55522  1.0000
  C   C106      1.0  0.94989  0.12587  0.94478  1.0000
  C   C107      1.0  0.55011  0.62587  0.55522  1.0000
  C   C108      1.0  0.44989  0.62587  0.94478  1.0000
  C   C109      1.0  0.94989  0.87413  0.44478  1.0000
  C   C110      1.0  0.05011  0.87413  0.05522  1.0000
  C   C111      1.0  0.44989  0.37413  0.44478  1.0000
  C   C112      1.0  0.55011  0.37413  0.05522  1.0000
  O   O33       1.0  0.93385  0.29564  0.54455  1.0000
  O   O34       1.0  0.06615  0.29564  0.95545  1.0000
  O   O35       1.0  0.43385  0.79564  0.54455  1.0000
  O   O36       1.0  0.56615  0.79564  0.95545  1.0000
  O   O37       1.0  0.06615  0.70436  0.45545  1.0000
  O   O38       1.0  0.93385  0.70436  0.04455  1.0000
  O   O39       1.0  0.56615  0.20436  0.45545  1.0000
  O   O40       1.0  0.43385  0.20436  0.04455  1.0000
  C   C113      1.0  0.94896  0.30178  0.47261  1.0000
  C   C114      1.0  0.05104  0.30178  0.02739  1.0000
  C   C115      1.0  0.44896  0.80178  0.47261  1.0000
  C   C116      1.0  0.55104  0.80178  0.02739  1.0000
  C   C117      1.0  0.05104  0.69822  0.52739  1.0000
  C   C118      1.0  0.94896  0.69822  0.97261  1.0000
  C   C119      1.0  0.55104  0.19822  0.52739  1.0000
  C   C120      1.0  0.44896  0.19822  0.97261  1.0000
  C   C121      1.0  0.08429  0.15320  0.51214  1.0000
  C   C122      1.0  0.91571  0.15320  0.98786  1.0000
  C   C123      1.0  0.58429  0.65320  0.51214  1.0000
  C   C124      1.0  0.41571  0.65320  0.98786  1.0000
  C   C125      1.0  0.91571  0.84680  0.48786  1.0000
  C   C126      1.0  0.08429  0.84680  0.01214  1.0000
  C   C127      1.0  0.41571  0.34680  0.48786  1.0000
  C   C128      1.0  0.58429  0.34680  0.01214  1.0000
  H   H73       1.0  0.11510  0.12270  0.52510  1.0000
  H   H74       1.0  0.88490  0.12270  0.97490  1.0000
  H   H75       1.0  0.61510  0.62270  0.52510  1.0000
  H   H76       1.0  0.38490  0.62270  0.97490  1.0000
  H   H77       1.0  0.88490  0.87730  0.47490  1.0000
  H   H78       1.0  0.11510  0.87730  0.02510  1.0000
  H   H79       1.0  0.38490  0.37730  0.47490  1.0000
  H   H80       1.0  0.61510  0.37730  0.02510  1.0000
  C   C129      1.0  0.03482  0.02532  0.66749  1.0000
  C   C130      1.0  0.96518  0.02532  0.83251  1.0000
  C   C131      1.0  0.53482  0.52532  0.66749  1.0000
  C   C132      1.0  0.46518  0.52532  0.83251  1.0000
  C   C133      1.0  0.96518  0.97468  0.33251  1.0000
  C   C134      1.0  0.03482  0.97468  0.16749  1.0000
  C   C135      1.0  0.46518  0.47468  0.33251  1.0000
  C   C136      1.0  0.53482  0.47468  0.16749  1.0000
  H   H81       1.0  0.99850  0.01110  0.61590  1.0000
  H   H82       1.0  0.00150  0.01110  0.88410  1.0000
  H   H83       1.0  0.49850  0.51110  0.61590  1.0000
  H   H84       1.0  0.50150  0.51110  0.88410  1.0000
  H   H85       1.0  0.00150  0.98890  0.38410  1.0000
  H   H86       1.0  0.99850  0.98890  0.11590  1.0000
  H   H87       1.0  0.50150  0.48890  0.38410  1.0000
  H   H88       1.0  0.49850  0.48890  0.11590  1.0000
  H   H89       1.0  0.03330  0.06930  0.71500  1.0000
  H   H90       1.0  0.96670  0.06930  0.78500  1.0000
  H   H91       1.0  0.53330  0.56930  0.71500  1.0000
  H   H92       1.0  0.46670  0.56930  0.78500  1.0000
  H   H93       1.0  0.96670  0.93070  0.28500  1.0000
  H   H94       1.0  0.03330  0.93070  0.21500  1.0000
  H   H95       1.0  0.46670  0.43070  0.28500  1.0000
  H   H96       1.0  0.53330  0.43070  0.21500  1.0000
  C   C137      1.0  0.99424  0.24643  0.47903  1.0000
  C   C138      1.0  0.00576  0.24643  0.02097  1.0000
  C   C139      1.0  0.49424  0.74643  0.47903  1.0000
  C   C140      1.0  0.50576  0.74643  0.02097  1.0000
  C   C141      1.0  0.00576  0.75357  0.52097  1.0000
  C   C142      1.0  0.99424  0.75357  0.97903  1.0000
  C   C143      1.0  0.50576  0.25357  0.52097  1.0000
  C   C144      1.0  0.49424  0.25357  0.97903  1.0000
  C   C145      1.0  0.15768  0.03483  0.99328  1.0000
  C   C146      1.0  0.84232  0.03483  0.50672  1.0000
  C   C147      1.0  0.65768  0.53483  0.99328  1.0000
  C   C148      1.0  0.34232  0.53483  0.50672  1.0000
  C   C149      1.0  0.84232  0.96517  0.00672  1.0000
  C   C150      1.0  0.15768  0.96517  0.49328  1.0000
  C   C151      1.0  0.34232  0.46517  0.00672  1.0000
  C   C152      1.0  0.65768  0.46517  0.49328  1.0000
  O   O41       1.0  0.15404  0.22270  0.19898  1.0000
  O   O42       1.0  0.84596  0.22270  0.30102  1.0000
  O   O43       1.0  0.65404  0.72270  0.19898  1.0000
  O   O44       1.0  0.34596  0.72270  0.30102  1.0000
  O   O45       1.0  0.84596  0.77730  0.80102  1.0000
  O   O46       1.0  0.15404  0.77730  0.69898  1.0000
  O   O47       1.0  0.34596  0.27730  0.80102  1.0000
  O   O48       1.0  0.65404  0.27730  0.69898  1.0000
  O   O49       1.0  0.28358  0.86696  0.10795  1.0000
  O   O50       1.0  0.71642  0.86696  0.39205  1.0000
  O   O51       1.0  0.78358  0.36696  0.10795  1.0000
  O   O52       1.0  0.21642  0.36696  0.39205  1.0000
  O   O53       1.0  0.71642  0.13304  0.89205  1.0000
  O   O54       1.0  0.28358  0.13304  0.60795  1.0000
  O   O55       1.0  0.21642  0.63304  0.89205  1.0000
  O   O56       1.0  0.78358  0.63304  0.60795  1.0000
  O   O57       1.0  0.92939  0.35470  0.39467  1.0000
  O   O58       1.0  0.07061  0.35470  0.10533  1.0000
  O   O59       1.0  0.42939  0.85470  0.39467  1.0000
  O   O60       1.0  0.57061  0.85470  0.10533  1.0000
  O   O61       1.0  0.07061  0.64530  0.60533  1.0000
  O   O62       1.0  0.92939  0.64530  0.89467  1.0000
  O   O63       1.0  0.57061  0.14530  0.60533  1.0000
  O   O64       1.0  0.42939  0.14530  0.89467  1.0000
  O   O65       1.0  0.22886  0.17578  0.33679  1.0000
  O   O66       1.0  0.77114  0.17578  0.16321  1.0000
  O   O67       1.0  0.72886  0.67578  0.33679  1.0000
  O   O68       1.0  0.27114  0.67578  0.16321  1.0000
  O   O69       1.0  0.77114  0.82422  0.66321  1.0000
  O   O70       1.0  0.22886  0.82422  0.83679  1.0000
  O   O71       1.0  0.27114  0.32422  0.66321  1.0000
  O   O72       1.0  0.72886  0.32422  0.83679  1.0000
  O   O73       1.0  0.32692  0.93392  0.25884  1.0000
  O   O74       1.0  0.67308  0.93392  0.24116  1.0000
  O   O75       1.0  0.82692  0.43392  0.25884  1.0000
  O   O76       1.0  0.17308  0.43392  0.24116  1.0000
  O   O77       1.0  0.67308  0.06608  0.74116  1.0000
  O   O78       1.0  0.32692  0.06608  0.75884  1.0000
  O   O79       1.0  0.17308  0.56608  0.74116  1.0000
  O   O80       1.0  0.82692  0.56608  0.75884  1.0000
