data_image0
_chemical_formula_structural       U12O104C16H8C4H12C4H8C4H12C16H8C4H12C4H8C4H12C16H8C4H12C4H8C4H12C16H8C4H12C4H8C4H12C16H8C4H12C4H8C4H12
_chemical_formula_sum              "U12 O104 C140 H200"
_cell_length_a       22.325
_cell_length_b       12.309
_cell_length_c       27.316
_cell_angle_alpha    90
_cell_angle_beta     99.21
_cell_angle_gamma    90

_space_group_name_H-M_alt    "P 1"
_space_group_IT_number       1

loop_
  _space_group_symop_operation_xyz
  'x, y, z'

loop_
  _atom_site_type_symbol
  _atom_site_label
  _atom_site_symmetry_multiplicity
  _atom_site_fract_x
  _atom_site_fract_y
  _atom_site_fract_z
  _atom_site_occupancy
  U   U1        1.0  0.04238  0.01973  0.23350  1.0000
  U   U2        1.0  0.54238  0.48027  0.73350  1.0000
  U   U3        1.0  0.95762  0.98027  0.76650  1.0000
  U   U4        1.0  0.45762  0.51973  0.26650  1.0000
  U   U5        1.0  0.21783  0.80035  0.01281  1.0000
  U   U6        1.0  0.71783  0.69965  0.51281  1.0000
  U   U7        1.0  0.78217  0.19965  0.98719  1.0000
  U   U8        1.0  0.28217  0.30035  0.48719  1.0000
  U   U9        1.0  0.83995  0.77050  0.40621  1.0000
  U   U10       1.0  0.33995  0.72950  0.90621  1.0000
  U   U11       1.0  0.16005  0.22950  0.59379  1.0000
  U   U12       1.0  0.66005  0.27050  0.09379  1.0000
  O   O1        1.0  0.11220  0.97660  0.26600  1.0000
  O   O2        1.0  0.61220  0.52340  0.76600  1.0000
  O   O3        1.0  0.88780  0.02340  0.73400  1.0000
  O   O4        1.0  0.38780  0.47660  0.23400  1.0000
  O   O5        1.0  0.97090  0.06140  0.20220  1.0000
  O   O6        1.0  0.47090  0.43860  0.70220  1.0000
  O   O7        1.0  0.02910  0.93860  0.79780  1.0000
  O   O8        1.0  0.52910  0.56140  0.29780  1.0000
  O   O9        1.0  0.04040  0.15100  0.29440  1.0000
  O   O10       1.0  0.54040  0.34900  0.79440  1.0000
  O   O11       1.0  0.95960  0.84900  0.70560  1.0000
  O   O12       1.0  0.45960  0.65100  0.20560  1.0000
  O   O13       1.0  0.08550  0.17890  0.20850  1.0000
  O   O14       1.0  0.58550  0.32110  0.70850  1.0000
  O   O15       1.0  0.91450  0.82110  0.79150  1.0000
  O   O16       1.0  0.41450  0.67890  0.29150  1.0000
  O   O17       1.0  0.02300  0.29760  0.33420  1.0000
  O   O18       1.0  0.52300  0.20240  0.83420  1.0000
  O   O19       1.0  0.97700  0.70240  0.66580  1.0000
  O   O20       1.0  0.47700  0.79760  0.16580  1.0000
  O   O21       1.0  0.15600  0.30270  0.21770  1.0000
  O   O22       1.0  0.65600  0.19730  0.71770  1.0000
  O   O23       1.0  0.84400  0.69730  0.78230  1.0000
  O   O24       1.0  0.34400  0.80270  0.28230  1.0000
  O   O25       1.0  0.99210  0.93300  0.29780  1.0000
  O   O26       1.0  0.49210  0.56700  0.79780  1.0000
  O   O27       1.0  0.00790  0.06700  0.70220  1.0000
  O   O28       1.0  0.50790  0.43300  0.20220  1.0000
  O   O29       1.0  0.00440  0.83340  0.23460  1.0000
  O   O30       1.0  0.50440  0.66660  0.73460  1.0000
  O   O31       1.0  0.99560  0.16660  0.76540  1.0000
  O   O32       1.0  0.49560  0.33340  0.26540  1.0000
  O   O33       1.0  0.92530  0.68950  0.37160  1.0000
  O   O34       1.0  0.42530  0.81050  0.87160  1.0000
  O   O35       1.0  0.07470  0.31050  0.62840  1.0000
  O   O36       1.0  0.57470  0.18950  0.12840  1.0000
  O   O37       1.0  0.89500  0.84580  0.34110  1.0000
  O   O38       1.0  0.39500  0.65420  0.84110  1.0000
  O   O39       1.0  0.10500  0.15420  0.65890  1.0000
  O   O40       1.0  0.60500  0.34580  0.15890  1.0000
  O   O41       1.0  0.06900  0.95430  0.16080  1.0000
  O   O42       1.0  0.56900  0.54570  0.66080  1.0000
  O   O43       1.0  0.93100  0.04570  0.83920  1.0000
  O   O44       1.0  0.43100  0.45430  0.33920  1.0000
  O   O45       1.0  0.03780  0.94500  0.07980  1.0000
  O   O46       1.0  0.53780  0.55500  0.57980  1.0000
  O   O47       1.0  0.96220  0.05500  0.92020  1.0000
  O   O48       1.0  0.46220  0.44500  0.42020  1.0000
  O   O49       1.0  0.13230  0.72250  0.04800  1.0000
  O   O50       1.0  0.63230  0.77750  0.54800  1.0000
  O   O51       1.0  0.86770  0.27750  0.95200  1.0000
  O   O52       1.0  0.36770  0.22250  0.45200  1.0000
  O   O53       1.0  0.17020  0.87200  0.08190  1.0000
  O   O54       1.0  0.67020  0.62800  0.58190  1.0000
  O   O55       1.0  0.82980  0.12800  0.91810  1.0000
  O   O56       1.0  0.32980  0.37200  0.41810  1.0000
  O   O57       1.0  0.27090  0.72950  0.05620  1.0000
  O   O58       1.0  0.77090  0.77050  0.55620  1.0000
  O   O59       1.0  0.72910  0.27050  0.94380  1.0000
  O   O60       1.0  0.22910  0.22950  0.44380  1.0000
  O   O61       1.0  0.16420  0.86550  0.96980  1.0000
  O   O62       1.0  0.66420  0.63450  0.46980  1.0000
  O   O63       1.0  0.83580  0.13450  0.03020  1.0000
  O   O64       1.0  0.33580  0.36550  0.53020  1.0000
  O   O65       1.0  0.25940  0.96590  0.03550  1.0000
  O   O66       1.0  0.75940  0.53410  0.53550  1.0000
  O   O67       1.0  0.74060  0.03410  0.96450  1.0000
  O   O68       1.0  0.24060  0.46590  0.46450  1.0000
  O   O69       1.0  0.29950  0.85380  0.96580  1.0000
  O   O70       1.0  0.79950  0.64620  0.46580  1.0000
  O   O71       1.0  0.70050  0.14620  0.03420  1.0000
  O   O72       1.0  0.20050  0.35380  0.53420  1.0000
  O   O73       1.0  0.27800  0.14010  0.03930  1.0000
  O   O74       1.0  0.77800  0.35990  0.53930  1.0000
  O   O75       1.0  0.72200  0.85990  0.96070  1.0000
  O   O76       1.0  0.22200  0.64010  0.46070  1.0000
  O   O77       1.0  0.37520  0.91420  0.93740  1.0000
  O   O78       1.0  0.87520  0.58580  0.43740  1.0000
  O   O79       1.0  0.62480  0.08580  0.06260  1.0000
  O   O80       1.0  0.12480  0.41420  0.56260  1.0000
  O   O81       1.0  0.25410  0.67760  0.94630  1.0000
  O   O82       1.0  0.75410  0.82240  0.44630  1.0000
  O   O83       1.0  0.74590  0.32240  0.05370  1.0000
  O   O84       1.0  0.24590  0.17760  0.55370  1.0000
  O   O85       1.0  0.30220  0.55630  0.88360  1.0000
  O   O86       1.0  0.80220  0.94370  0.38360  1.0000
  O   O87       1.0  0.69780  0.44370  0.11640  1.0000
  O   O88       1.0  0.19780  0.05630  0.61640  1.0000
  O   O89       1.0  0.17890  0.61720  0.97900  1.0000
  O   O90       1.0  0.67890  0.88280  0.47900  1.0000
  O   O91       1.0  0.82110  0.38280  0.02100  1.0000
  O   O92       1.0  0.32110  0.11720  0.52100  1.0000
  O   O93       1.0  0.26570  0.39330  0.86800  1.0000
  O   O94       1.0  0.76570  0.10670  0.36800  1.0000
  O   O95       1.0  0.73430  0.60670  0.13200  1.0000
  O   O96       1.0  0.23430  0.89330  0.63200  1.0000
  O   O97       1.0  0.89090  0.82930  0.45310  1.0000
  O   O98       1.0  0.39090  0.67070  0.95310  1.0000
  O   O99       1.0  0.10910  0.17070  0.54690  1.0000
  O   O100      1.0  0.60910  0.32930  0.04690  1.0000
  O   O101      1.0  0.78950  0.71020  0.35750  1.0000
  O   O102      1.0  0.28950  0.78980  0.85750  1.0000
  O   O103      1.0  0.21050  0.28980  0.64250  1.0000
  O   O104      1.0  0.71050  0.21020  0.14250  1.0000
  C   C1        1.0  0.04590  0.25150  0.30170  1.0000
  C   C2        1.0  0.54590  0.24850  0.80170  1.0000
  C   C3        1.0  0.95410  0.74850  0.69830  1.0000
  C   C4        1.0  0.45410  0.75150  0.19830  1.0000
  C   C5        1.0  0.08000  0.32300  0.26870  1.0000
  C   C6        1.0  0.58000  0.17700  0.76870  1.0000
  C   C7        1.0  0.92000  0.67700  0.73130  1.0000
  C   C8        1.0  0.42000  0.82300  0.23130  1.0000
  C   C9        1.0  0.11120  0.26200  0.22990  1.0000
  C   C10       1.0  0.61120  0.23800  0.72990  1.0000
  C   C11       1.0  0.88880  0.73800  0.77010  1.0000
  C   C12       1.0  0.38880  0.76200  0.27010  1.0000
  C   C13       1.0  0.11520  0.40180  0.29900  1.0000
  C   C14       1.0  0.61520  0.09820  0.79900  1.0000
  C   C15       1.0  0.88480  0.59820  0.70100  1.0000
  C   C16       1.0  0.38480  0.90180  0.20100  1.0000
  H   H1        1.0  0.09070  0.44040  0.31970  1.0000
  H   H2        1.0  0.59070  0.05960  0.81970  1.0000
  H   H3        1.0  0.90930  0.55960  0.68030  1.0000
  H   H4        1.0  0.40930  0.94040  0.18030  1.0000
  H   H5        1.0  0.13330  0.45370  0.27900  1.0000
  H   H6        1.0  0.63330  0.04630  0.77900  1.0000
  H   H7        1.0  0.86670  0.54630  0.72100  1.0000
  H   H8        1.0  0.36670  0.95370  0.22100  1.0000
  C   C17       1.0  0.16540  0.32980  0.33140  1.0000
  C   C18       1.0  0.66540  0.17020  0.83140  1.0000
  C   C19       1.0  0.83460  0.67020  0.66860  1.0000
  C   C20       1.0  0.33460  0.82980  0.16860  1.0000
  H   H9        1.0  0.19240  0.37580  0.35310  1.0000
  H   H10       1.0  0.69240  0.12420  0.85310  1.0000
  H   H11       1.0  0.80760  0.62420  0.64690  1.0000
  H   H12       1.0  0.30760  0.87580  0.14690  1.0000
  H   H13       1.0  0.18790  0.29060  0.31000  1.0000
  H   H14       1.0  0.68790  0.20940  0.81000  1.0000
  H   H15       1.0  0.81210  0.70940  0.69000  1.0000
  H   H16       1.0  0.31210  0.79060  0.19000  1.0000
  H   H17       1.0  0.14620  0.27920  0.35080  1.0000
  H   H18       1.0  0.64620  0.22080  0.85080  1.0000
  H   H19       1.0  0.85380  0.72080  0.64920  1.0000
  H   H20       1.0  0.35380  0.77920  0.14920  1.0000
  C   C21       1.0  0.02440  0.39610  0.23350  1.0000
  C   C22       1.0  0.52440  0.10390  0.73350  1.0000
  C   C23       1.0  0.97560  0.60390  0.76650  1.0000
  C   C24       1.0  0.47560  0.89610  0.26650  1.0000
  H   H21       1.0  0.99380  0.34620  0.21740  1.0000
  H   H22       1.0  0.49380  0.15380  0.71740  1.0000
  H   H23       1.0  0.00620  0.65380  0.78260  1.0000
  H   H24       1.0  0.50620  0.84620  0.28260  1.0000
  H   H25       1.0  0.00520  0.44230  0.25520  1.0000
  H   H26       1.0  0.50520  0.05770  0.75520  1.0000
  H   H27       1.0  0.99480  0.55770  0.74480  1.0000
  H   H28       1.0  0.49480  0.94230  0.24480  1.0000
  C   C25       1.0  0.04430  0.46230  0.19650  1.0000
  C   C26       1.0  0.54430  0.03770  0.69650  1.0000
  C   C27       1.0  0.95570  0.53770  0.80350  1.0000
  C   C28       1.0  0.45570  0.96230  0.30350  1.0000
  H   H29       1.0  0.01030  0.50030  0.17830  1.0000
  H   H30       1.0  0.51030  0.99970  0.67830  1.0000
  H   H31       1.0  0.98970  0.49970  0.82170  1.0000
  H   H32       1.0  0.48970  0.00030  0.32170  1.0000
  H   H33       1.0  0.06250  0.41730  0.17410  1.0000
  H   H34       1.0  0.56250  0.08270  0.67410  1.0000
  H   H35       1.0  0.93750  0.58270  0.82590  1.0000
  H   H36       1.0  0.43750  0.91730  0.32590  1.0000
  H   H37       1.0  0.07370  0.51380  0.21200  1.0000
  H   H38       1.0  0.57370  0.98620  0.71200  1.0000
  H   H39       1.0  0.92630  0.48620  0.78800  1.0000
  H   H40       1.0  0.42630  0.01380  0.28800  1.0000
  C   C29       1.0  0.98740  0.84210  0.27600  1.0000
  C   C30       1.0  0.48740  0.65790  0.77600  1.0000
  C   C31       1.0  0.01260  0.15790  0.72400  1.0000
  C   C32       1.0  0.51260  0.34210  0.22400  1.0000
  C   C33       1.0  0.96500  0.74260  0.29900  1.0000
  C   C34       1.0  0.46500  0.75740  0.79900  1.0000
  C   C35       1.0  0.03500  0.25740  0.70100  1.0000
  C   C36       1.0  0.53500  0.24260  0.20100  1.0000
  C   C37       1.0  0.92770  0.76270  0.34090  1.0000
  C   C38       1.0  0.42770  0.73730  0.84090  1.0000
  C   C39       1.0  0.07230  0.23730  0.65910  1.0000
  C   C40       1.0  0.57230  0.26270  0.15910  1.0000
  C   C41       1.0  0.92490  0.67170  0.25960  1.0000
  C   C42       1.0  0.42490  0.82830  0.75960  1.0000
  C   C43       1.0  0.07510  0.32830  0.74040  1.0000
  C   C44       1.0  0.57510  0.17170  0.24040  1.0000
  H   H41       1.0  0.91180  0.60790  0.27580  1.0000
  H   H42       1.0  0.41180  0.89210  0.77580  1.0000
  H   H43       1.0  0.08820  0.39210  0.72420  1.0000
  H   H44       1.0  0.58820  0.10790  0.22420  1.0000
  H   H45       1.0  0.94940  0.64710  0.23550  1.0000
  H   H46       1.0  0.44940  0.85290  0.73550  1.0000
  H   H47       1.0  0.05060  0.35290  0.76450  1.0000
  H   H48       1.0  0.55060  0.14710  0.26450  1.0000
  C   C45       1.0  0.86860  0.73020  0.23210  1.0000
  C   C46       1.0  0.36860  0.76980  0.73210  1.0000
  C   C47       1.0  0.13140  0.26980  0.76790  1.0000
  C   C48       1.0  0.63140  0.23020  0.26790  1.0000
  H   H49       1.0  0.84640  0.68180  0.20830  1.0000
  H   H50       1.0  0.34640  0.81820  0.70830  1.0000
  H   H51       1.0  0.15360  0.31820  0.79170  1.0000
  H   H52       1.0  0.65360  0.18180  0.29170  1.0000
  H   H53       1.0  0.84320  0.75260  0.25550  1.0000
  H   H54       1.0  0.34320  0.74740  0.75550  1.0000
  H   H55       1.0  0.15680  0.24740  0.74450  1.0000
  H   H56       1.0  0.65680  0.25260  0.24450  1.0000
  H   H57       1.0  0.88100  0.79290  0.21540  1.0000
  H   H58       1.0  0.38100  0.70710  0.71540  1.0000
  H   H59       1.0  0.11900  0.20710  0.78460  1.0000
  H   H60       1.0  0.61900  0.29290  0.28460  1.0000
  C   C49       1.0  0.02300  0.67660  0.32060  1.0000
  C   C50       1.0  0.52300  0.82340  0.82060  1.0000
  C   C51       1.0  0.97700  0.32340  0.67940  1.0000
  C   C52       1.0  0.47700  0.17660  0.17940  1.0000
  H   H61       1.0  0.04420  0.65650  0.29360  1.0000
  H   H62       1.0  0.54420  0.84350  0.79360  1.0000
  H   H63       1.0  0.95580  0.34350  0.70640  1.0000
  H   H64       1.0  0.45580  0.15650  0.20640  1.0000
  H   H65       1.0  0.01060  0.61000  0.33510  1.0000
  H   H66       1.0  0.51060  0.89000  0.83510  1.0000
  H   H67       1.0  0.98940  0.39000  0.66490  1.0000
  H   H68       1.0  0.48940  0.11000  0.16490  1.0000
  C   C53       1.0  0.06610  0.73600  0.35890  1.0000
  C   C54       1.0  0.56610  0.76400  0.85890  1.0000
  C   C55       1.0  0.93390  0.26400  0.64110  1.0000
  C   C56       1.0  0.43390  0.23600  0.14110  1.0000
  H   H69       1.0  0.10070  0.69090  0.37000  1.0000
  H   H70       1.0  0.60070  0.80910  0.87000  1.0000
  H   H71       1.0  0.89930  0.30910  0.63000  1.0000
  H   H72       1.0  0.39930  0.19090  0.13000  1.0000
  H   H73       1.0  0.07920  0.80160  0.34480  1.0000
  H   H74       1.0  0.57920  0.69840  0.84480  1.0000
  H   H75       1.0  0.92080  0.19840  0.65520  1.0000
  H   H76       1.0  0.42080  0.30160  0.15520  1.0000
  H   H77       1.0  0.04620  0.75370  0.38650  1.0000
  H   H78       1.0  0.54620  0.74630  0.88650  1.0000
  H   H79       1.0  0.95380  0.24630  0.61350  1.0000
  H   H80       1.0  0.45380  0.25370  0.11350  1.0000
  C   C57       1.0  0.06270  0.90500  0.11830  1.0000
  C   C58       1.0  0.56270  0.59500  0.61830  1.0000
  C   C59       1.0  0.93730  0.09500  0.88170  1.0000
  C   C60       1.0  0.43730  0.40500  0.38170  1.0000
  C   C61       1.0  0.08900  0.79020  0.11670  1.0000
  C   C62       1.0  0.58900  0.70980  0.61670  1.0000
  C   C63       1.0  0.91100  0.20980  0.88330  1.0000
  C   C64       1.0  0.41100  0.29020  0.38330  1.0000
  C   C65       1.0  0.13320  0.79450  0.08130  1.0000
  C   C66       1.0  0.63320  0.70550  0.58130  1.0000
  C   C67       1.0  0.86680  0.20550  0.91870  1.0000
  C   C68       1.0  0.36680  0.29450  0.41870  1.0000
  C   C69       1.0  0.03710  0.70980  0.10000  1.0000
  C   C70       1.0  0.53710  0.79020  0.60000  1.0000
  C   C71       1.0  0.96290  0.29020  0.90000  1.0000
  C   C72       1.0  0.46290  0.20980  0.40000  1.0000
  H   H81       1.0  0.02040  0.72450  0.06560  1.0000
  H   H82       1.0  0.52040  0.77550  0.56560  1.0000
  H   H83       1.0  0.97960  0.27550  0.93440  1.0000
  H   H84       1.0  0.47960  0.22450  0.43440  1.0000
  H   H85       1.0  0.05350  0.63670  0.10170  1.0000
  H   H86       1.0  0.55350  0.86330  0.60170  1.0000
  H   H87       1.0  0.94650  0.36330  0.89830  1.0000
  H   H88       1.0  0.44650  0.13670  0.39830  1.0000
  C   C73       1.0  0.98450  0.71500  0.13170  1.0000
  C   C74       1.0  0.48450  0.78500  0.63170  1.0000
  C   C75       1.0  0.01550  0.28500  0.86830  1.0000
  C   C76       1.0  0.51550  0.21500  0.36830  1.0000
  H   H89       1.0  0.95360  0.66340  0.11910  1.0000
  H   H90       1.0  0.45360  0.83660  0.61910  1.0000
  H   H91       1.0  0.04640  0.33660  0.88090  1.0000
  H   H92       1.0  0.54640  0.16340  0.38090  1.0000
  H   H93       1.0  0.96740  0.78670  0.12980  1.0000
  H   H94       1.0  0.46740  0.71330  0.62980  1.0000
  H   H95       1.0  0.03260  0.21330  0.87020  1.0000
  H   H96       1.0  0.53260  0.28670  0.37020  1.0000
  H   H97       1.0  0.00020  0.69790  0.16560  1.0000
  H   H98       1.0  0.50020  0.80210  0.66560  1.0000
  H   H99       1.0  0.99980  0.30210  0.83440  1.0000
  H   H100      1.0  0.49980  0.19790  0.33440  1.0000
  C   C77       1.0  0.12660  0.75770  0.16950  1.0000
  C   C78       1.0  0.62660  0.74230  0.66950  1.0000
  C   C79       1.0  0.87340  0.24230  0.83050  1.0000
  C   C80       1.0  0.37340  0.25770  0.33050  1.0000
  H   H101      1.0  0.15390  0.81670  0.18120  1.0000
  H   H102      1.0  0.65390  0.68330  0.68120  1.0000
  H   H103      1.0  0.84610  0.18330  0.81880  1.0000
  H   H104      1.0  0.34610  0.31670  0.31880  1.0000
  H   H105      1.0  0.09860  0.74900  0.19290  1.0000
  H   H106      1.0  0.59860  0.75100  0.69290  1.0000
  H   H107      1.0  0.90140  0.25100  0.80710  1.0000
  H   H108      1.0  0.40140  0.24900  0.30710  1.0000
  C   C81       1.0  0.16280  0.65510  0.16870  1.0000
  C   C82       1.0  0.66280  0.84490  0.66870  1.0000
  C   C83       1.0  0.83720  0.34490  0.83130  1.0000
  C   C84       1.0  0.33720  0.15510  0.33130  1.0000
  H   H109      1.0  0.18480  0.64130  0.20130  1.0000
  H   H110      1.0  0.68480  0.85870  0.70130  1.0000
  H   H111      1.0  0.81520  0.35870  0.79870  1.0000
  H   H112      1.0  0.31520  0.14130  0.29870  1.0000
  H   H113      1.0  0.19090  0.66300  0.14580  1.0000
  H   H114      1.0  0.69090  0.83700  0.64580  1.0000
  H   H115      1.0  0.80910  0.33700  0.85420  1.0000
  H   H116      1.0  0.30910  0.16300  0.35420  1.0000
  H   H117      1.0  0.13600  0.59550  0.15860  1.0000
  H   H118      1.0  0.63600  0.90450  0.65860  1.0000
  H   H119      1.0  0.86400  0.40450  0.84140  1.0000
  H   H120      1.0  0.36400  0.09550  0.34140  1.0000
  C   C85       1.0  0.28640  0.04980  0.02460  1.0000
  C   C86       1.0  0.78640  0.45020  0.52460  1.0000
  C   C87       1.0  0.71360  0.95020  0.97540  1.0000
  C   C88       1.0  0.21360  0.54980  0.47540  1.0000
  C   C89       1.0  0.33220  0.04150  0.98620  1.0000
  C   C90       1.0  0.83220  0.45850  0.48620  1.0000
  C   C91       1.0  0.66780  0.95850  0.01380  1.0000
  C   C92       1.0  0.16780  0.54150  0.51380  1.0000
  C   C93       1.0  0.33510  0.93170  0.96250  1.0000
  C   C94       1.0  0.83510  0.56830  0.46250  1.0000
  C   C95       1.0  0.66490  0.06830  0.03750  1.0000
  C   C96       1.0  0.16490  0.43170  0.53750  1.0000
  C   C97       1.0  0.31590  0.12360  0.94730  1.0000
  C   C98       1.0  0.81590  0.37640  0.44730  1.0000
  C   C99       1.0  0.68410  0.87640  0.05270  1.0000
  C   C100      1.0  0.18410  0.62360  0.55270  1.0000
  H   H121      1.0  0.34860  0.12840  0.92790  1.0000
  H   H122      1.0  0.84860  0.37160  0.42790  1.0000
  H   H123      1.0  0.65140  0.87160  0.07210  1.0000
  H   H124      1.0  0.15140  0.62840  0.57210  1.0000
  H   H125      1.0  0.31300  0.19360  0.96310  1.0000
  H   H126      1.0  0.81300  0.30640  0.46310  1.0000
  H   H127      1.0  0.68700  0.80640  0.03690  1.0000
  H   H128      1.0  0.18700  0.69360  0.53690  1.0000
  C   C101      1.0  0.25710  0.10330  0.91230  1.0000
  C   C102      1.0  0.75710  0.39670  0.41230  1.0000
  C   C103      1.0  0.74290  0.89670  0.08770  1.0000
  C   C104      1.0  0.24290  0.60330  0.58770  1.0000
  H   H129      1.0  0.25090  0.16000  0.88790  1.0000
  H   H130      1.0  0.75090  0.34000  0.38790  1.0000
  H   H131      1.0  0.74910  0.84000  0.11210  1.0000
  H   H132      1.0  0.24910  0.66000  0.61210  1.0000
  H   H133      1.0  0.22400  0.10250  0.93070  1.0000
  H   H134      1.0  0.72400  0.39750  0.43070  1.0000
  H   H135      1.0  0.77600  0.89750  0.06930  1.0000
  H   H136      1.0  0.27600  0.60250  0.56930  1.0000
  H   H137      1.0  0.25940  0.03450  0.89610  1.0000
  H   H138      1.0  0.75940  0.46550  0.39610  1.0000
  H   H139      1.0  0.74060  0.96550  0.10390  1.0000
  H   H140      1.0  0.24060  0.53450  0.60390  1.0000
  C   C105      1.0  0.39530  0.06810  0.01620  1.0000
  C   C106      1.0  0.89530  0.43190  0.51620  1.0000
  C   C107      1.0  0.60470  0.93190  0.98380  1.0000
  C   C108      1.0  0.10470  0.56810  0.48380  1.0000
  H   H141      1.0  0.42500  0.06650  0.99390  1.0000
  H   H142      1.0  0.92500  0.43350  0.49390  1.0000
  H   H143      1.0  0.57500  0.93350  0.00610  1.0000
  H   H144      1.0  0.07500  0.56650  0.50610  1.0000
  H   H145      1.0  0.39440  0.14150  0.02910  1.0000
  H   H146      1.0  0.89440  0.35850  0.52910  1.0000
  H   H147      1.0  0.60560  0.85850  0.97090  1.0000
  H   H148      1.0  0.10560  0.64150  0.47090  1.0000
  C   C109      1.0  0.41640  0.99000  0.06010  1.0000
  C   C110      1.0  0.91640  0.51000  0.56010  1.0000
  C   C111      1.0  0.58360  0.01000  0.93990  1.0000
  C   C112      1.0  0.08360  0.49000  0.43990  1.0000
  H   H149      1.0  0.45580  0.01190  0.07670  1.0000
  H   H150      1.0  0.95580  0.48810  0.57670  1.0000
  H   H151      1.0  0.54420  0.98810  0.92330  1.0000
  H   H152      1.0  0.04420  0.51190  0.42330  1.0000
  H   H153      1.0  0.41860  0.91730  0.04780  1.0000
  H   H154      1.0  0.91860  0.58270  0.54780  1.0000
  H   H155      1.0  0.58140  0.08270  0.95220  1.0000
  H   H156      1.0  0.08140  0.41730  0.45220  1.0000
  H   H157      1.0  0.38800  0.99250  0.08300  1.0000
  H   H158      1.0  0.88800  0.50750  0.58300  1.0000
  H   H159      1.0  0.61200  0.00750  0.91700  1.0000
  H   H160      1.0  0.11200  0.49250  0.41700  1.0000
  C   C113      1.0  0.21750  0.60180  0.95110  1.0000
  C   C114      1.0  0.71750  0.89820  0.45110  1.0000
  C   C115      1.0  0.78250  0.39820  0.04890  1.0000
  C   C116      1.0  0.28250  0.10180  0.54890  1.0000
  C   C117      1.0  0.21990  0.49150  0.92550  1.0000
  C   C118      1.0  0.71990  0.00850  0.42550  1.0000
  C   C119      1.0  0.78010  0.50850  0.07450  1.0000
  C   C120      1.0  0.28010  0.99150  0.57450  1.0000
  C   C121      1.0  0.26550  0.48060  0.89150  1.0000
  C   C122      1.0  0.76550  0.01940  0.39150  1.0000
  C   C123      1.0  0.73450  0.51940  0.10850  1.0000
  C   C124      1.0  0.23450  0.98060  0.60850  1.0000
  C   C125      1.0  0.15750  0.46410  0.89790  1.0000
  C   C126      1.0  0.65750  0.03590  0.39790  1.0000
  C   C127      1.0  0.84250  0.53590  0.10210  1.0000
  C   C128      1.0  0.34250  0.96410  0.60210  1.0000
  H   H161      1.0  0.15840  0.39170  0.88410  1.0000
  H   H162      1.0  0.65840  0.10830  0.38410  1.0000
  H   H163      1.0  0.84160  0.60830  0.11590  1.0000
  H   H164      1.0  0.34160  0.89170  0.61590  1.0000
  H   H165      1.0  0.12900  0.46320  0.92130  1.0000
  H   H166      1.0  0.62900  0.03680  0.42130  1.0000
  H   H167      1.0  0.87100  0.53680  0.07870  1.0000
  H   H168      1.0  0.37100  0.96320  0.57870  1.0000
  C   C129      1.0  0.13650  0.53740  0.85950  1.0000
  C   C130      1.0  0.63650  0.96260  0.35950  1.0000
  C   C131      1.0  0.86350  0.46260  0.14050  1.0000
  C   C132      1.0  0.36350  0.03740  0.64050  1.0000
  H   H169      1.0  0.09680  0.51570  0.84360  1.0000
  H   H170      1.0  0.59680  0.98430  0.34360  1.0000
  H   H171      1.0  0.90320  0.48430  0.15640  1.0000
  H   H172      1.0  0.40320  0.01570  0.65640  1.0000
  H   H173      1.0  0.16380  0.53740  0.83570  1.0000
  H   H174      1.0  0.66380  0.96260  0.33570  1.0000
  H   H175      1.0  0.83620  0.46260  0.16430  1.0000
  H   H176      1.0  0.33620  0.03740  0.66430  1.0000
  H   H177      1.0  0.13450  0.60910  0.87300  1.0000
  H   H178      1.0  0.63450  0.89090  0.37300  1.0000
  H   H179      1.0  0.86550  0.39090  0.12700  1.0000
  H   H180      1.0  0.36550  0.10910  0.62700  1.0000
  C   C133      1.0  0.23690  0.40550  0.96990  1.0000
  C   C134      1.0  0.73690  0.09450  0.46990  1.0000
  C   C135      1.0  0.76310  0.59450  0.03010  1.0000
  C   C136      1.0  0.26310  0.90550  0.53010  1.0000
  H   H181      1.0  0.20480  0.40580  0.99000  1.0000
  H   H182      1.0  0.70480  0.09420  0.49000  1.0000
  H   H183      1.0  0.79520  0.59420  0.01000  1.0000
  H   H184      1.0  0.29520  0.90580  0.51000  1.0000
  H   H185      1.0  0.23830  0.33350  0.95570  1.0000
  H   H186      1.0  0.73830  0.16650  0.45570  1.0000
  H   H187      1.0  0.76170  0.66650  0.04430  1.0000
  H   H188      1.0  0.26170  0.83350  0.54430  1.0000
  C   C137      1.0  0.29600  0.42680  0.00280  1.0000
  C   C138      1.0  0.79600  0.07320  0.50280  1.0000
  C   C139      1.0  0.70400  0.57320  0.99720  1.0000
  C   C140      1.0  0.20400  0.92680  0.49720  1.0000
  H   H189      1.0  0.30300  0.37160  0.02790  1.0000
  H   H190      1.0  0.80300  0.12840  0.52790  1.0000
  H   H191      1.0  0.69700  0.62840  0.97210  1.0000
  H   H192      1.0  0.19700  0.87160  0.47210  1.0000
  H   H193      1.0  0.29460  0.49660  0.01820  1.0000
  H   H194      1.0  0.79460  0.00340  0.51820  1.0000
  H   H195      1.0  0.70540  0.50340  0.98180  1.0000
  H   H196      1.0  0.20540  0.99660  0.48180  1.0000
  H   H197      1.0  0.32820  0.42580  0.98340  1.0000
  H   H198      1.0  0.82820  0.07420  0.48340  1.0000
  H   H199      1.0  0.67180  0.57420  0.01660  1.0000
  H   H200      1.0  0.17180  0.92580  0.51660  1.0000
