data_image0
_chemical_formula_structural       O20C4O4C8H12Cd4
_chemical_formula_sum              "O24 C12 H12 Cd4"
_cell_length_a       6.9888
_cell_length_b       9.4902
_cell_length_c       10.8342
_cell_angle_alpha    90
_cell_angle_beta     90
_cell_angle_gamma    90

_space_group_name_H-M_alt    "P 1"
_space_group_IT_number       1

loop_
  _space_group_symop_operation_xyz
  'x, y, z'

loop_
  _atom_site_type_symbol
  _atom_site_label
  _atom_site_symmetry_multiplicity
  _atom_site_fract_x
  _atom_site_fract_y
  _atom_site_fract_z
  _atom_site_occupancy
  O   O1        1.0  0.07117  0.71123  0.02766  1.0000
  O   O2        1.0  0.92883  0.28877  0.52766  1.0000
  O   O3        1.0  0.42883  0.21123  0.52766  1.0000
  O   O4        1.0  0.57117  0.78877  0.02766  1.0000
  O   O5        1.0  0.73340  0.29580  0.05141  1.0000
  O   O6        1.0  0.26660  0.70420  0.55141  1.0000
  O   O7        1.0  0.76660  0.79580  0.55141  1.0000
  O   O8        1.0  0.23340  0.20420  0.05141  1.0000
  O   O9        1.0  0.73580  0.54280  0.85234  1.0000
  O   O10       1.0  0.26420  0.45720  0.35234  1.0000
  O   O11       1.0  0.76420  0.04280  0.35234  1.0000
  O   O12       1.0  0.23580  0.95720  0.85234  1.0000
  O   O13       1.0  0.14600  0.90175  0.13739  1.0000
  O   O14       1.0  0.85400  0.09825  0.63739  1.0000
  O   O15       1.0  0.35400  0.40175  0.63739  1.0000
  O   O16       1.0  0.64600  0.59825  0.13739  1.0000
  O   O17       1.0  0.98470  0.53600  0.72662  1.0000
  O   O18       1.0  0.01530  0.46400  0.22662  1.0000
  O   O19       1.0  0.51530  0.03600  0.22662  1.0000
  O   O20       1.0  0.48470  0.96400  0.72662  1.0000
  C   C1        1.0  0.81200  0.53090  0.74814  1.0000
  C   C2        1.0  0.18800  0.46910  0.24814  1.0000
  C   C3        1.0  0.68800  0.03090  0.24814  1.0000
  C   C4        1.0  0.31200  0.96910  0.74814  1.0000
  O   O21       1.0  0.66750  0.09576  0.95302  1.0000
  O   O22       1.0  0.33250  0.90424  0.45302  1.0000
  O   O23       1.0  0.83250  0.59576  0.45302  1.0000
  O   O24       1.0  0.16750  0.40424  0.95302  1.0000
  C   C5        1.0  0.75900  0.20590  0.96967  1.0000
  C   C6        1.0  0.24100  0.79410  0.46967  1.0000
  C   C7        1.0  0.74100  0.70590  0.46967  1.0000
  C   C8        1.0  0.25900  0.29410  0.96967  1.0000
  C   C9        1.0  0.05360  0.79266  0.11727  1.0000
  C   C10       1.0  0.94640  0.20734  0.61727  1.0000
  C   C11       1.0  0.44640  0.29266  0.61727  1.0000
  C   C12       1.0  0.55360  0.70734  0.11727  1.0000
  H   H1        1.0  0.96300  0.76400  0.17700  1.0000
  H   H2        1.0  0.03700  0.23600  0.67700  1.0000
  H   H3        1.0  0.53700  0.26400  0.67700  1.0000
  H   H4        1.0  0.46300  0.73600  0.17700  1.0000
  H   H5        1.0  0.84900  0.22600  0.91100  1.0000
  H   H6        1.0  0.15100  0.77400  0.41100  1.0000
  H   H7        1.0  0.65100  0.72600  0.41100  1.0000
  H   H8        1.0  0.34900  0.27400  0.91100  1.0000
  H   H9        1.0  0.72300  0.51400  0.67700  1.0000
  H   H10       1.0  0.27700  0.48600  0.17700  1.0000
  H   H11       1.0  0.77700  0.01400  0.17700  1.0000
  H   H12       1.0  0.22300  0.98600  0.67700  1.0000
  Cd  Cd1       1.0  0.89754  0.50412  0.03150  1.0000
  Cd  Cd2       1.0  0.10246  0.49588  0.53150  1.0000
  Cd  Cd3       1.0  0.60246  0.00412  0.53150  1.0000
  Cd  Cd4       1.0  0.39754  0.99588  0.03150  1.0000
