data_image0
_chemical_formula_structural       Fe2O12C6H6
_chemical_formula_sum              "Fe2 O12 C6 H6"
_cell_length_a       6.668
_cell_length_b       8.298
_cell_length_c       7.393
_cell_angle_alpha    90
_cell_angle_beta     116.64
_cell_angle_gamma    90

_space_group_name_H-M_alt    "P 1"
_space_group_IT_number       1

loop_
  _space_group_symop_operation_xyz
  'x, y, z'

loop_
  _atom_site_type_symbol
  _atom_site_label
  _atom_site_symmetry_multiplicity
  _atom_site_fract_x
  _atom_site_fract_y
  _atom_site_fract_z
  _atom_site_occupancy
  Fe  Fe1       1.0  0.33940  0.25000  0.67820  1.0000
  Fe  Fe2       1.0  0.66060  0.75000  0.32180  1.0000
  O   O1        1.0  0.89700  0.60580  0.29680  1.0000
  O   O2        1.0  0.10300  0.10580  0.70320  1.0000
  O   O3        1.0  0.68600  0.60620  0.55760  1.0000
  O   O4        1.0  0.31400  0.10620  0.44240  1.0000
  O   O5        1.0  0.59530  0.11420  0.89490  1.0000
  O   O6        1.0  0.40470  0.61420  0.10510  1.0000
  O   O7        1.0  0.11700  0.39420  0.44100  1.0000
  O   O8        1.0  0.88300  0.89420  0.55900  1.0000
  O   O9        1.0  0.62630  0.38740  0.70780  1.0000
  O   O10       1.0  0.37370  0.88740  0.29220  1.0000
  O   O11       1.0  0.70300  0.90380  0.10640  1.0000
  O   O12       1.0  0.29700  0.40380  0.89360  1.0000
  C   C1        1.0  0.07000  0.53500  0.44900  1.0000
  C   C2        1.0  0.93000  0.03500  0.55100  1.0000
  C   C3        1.0  0.58300  0.47300  0.56200  1.0000
  C   C4        1.0  0.41700  0.97300  0.43800  1.0000
  C   C5        1.0  0.54100  0.00800  0.97700  1.0000
  C   C6        1.0  0.45900  0.50800  0.02300  1.0000
  H   H1        1.0  0.15870  0.59645  0.56830  1.0000
  H   H2        1.0  0.84130  0.09645  0.43170  1.0000
  H   H3        1.0  0.46036  0.43967  0.43636  1.0000
  H   H4        1.0  0.53964  0.93967  0.56364  1.0000
  H   H5        1.0  0.38758  0.99654  0.95238  1.0000
  H   H6        1.0  0.61242  0.49654  0.04762  1.0000
