data_image0
_chemical_formula_structural       Fe4O24C2H2C2H2C2H2C2H2C2H2C2H2
_chemical_formula_sum              "Fe4 O24 C12 H12"
_cell_length_a       6.558
_cell_length_b       6.9977
_cell_length_c       13.697
_cell_angle_alpha    90
_cell_angle_beta     90.05
_cell_angle_gamma    90

_space_group_name_H-M_alt    "P 1"
_space_group_IT_number       1

loop_
  _space_group_symop_operation_xyz
  'x, y, z'

loop_
  _atom_site_type_symbol
  _atom_site_label
  _atom_site_symmetry_multiplicity
  _atom_site_fract_x
  _atom_site_fract_y
  _atom_site_fract_z
  _atom_site_occupancy
  Fe  Fe1       1.0  0.63800  0.71410  0.85220  1.0000
  Fe  Fe2       1.0  0.36200  0.21410  0.14780  1.0000
  Fe  Fe3       1.0  0.13550  0.21930  0.64810  1.0000
  Fe  Fe4       1.0  0.86450  0.71930  0.35190  1.0000
  O   O1        1.0  0.07200  0.08700  0.78200  1.0000
  O   O2        1.0  0.92800  0.58700  0.21800  1.0000
  O   O3        1.0  0.50700  0.93900  0.93500  1.0000
  O   O4        1.0  0.49300  0.43900  0.06500  1.0000
  O   O5        1.0  0.34900  0.58700  0.86300  1.0000
  O   O6        1.0  0.65100  0.08700  0.13700  1.0000
  O   O7        1.0  0.27800  0.10100  0.02000  1.0000
  O   O8        1.0  0.72200  0.60100  0.98000  1.0000
  O   O9        1.0  0.76600  0.47600  0.78800  1.0000
  O   O10       1.0  0.23400  0.97600  0.21200  1.0000
  O   O11       1.0  0.41700  0.08200  0.64000  1.0000
  O   O12       1.0  0.58300  0.58200  0.36000  1.0000
  O   O13       1.0  0.92100  0.84500  0.86000  1.0000
  O   O14       1.0  0.07900  0.34500  0.14000  1.0000
  O   O15       1.0  0.27500  0.44600  0.72500  1.0000
  O   O16       1.0  0.72500  0.94600  0.27500  1.0000
  O   O17       1.0  0.85200  0.34200  0.63500  1.0000
  O   O18       1.0  0.14800  0.84200  0.36500  1.0000
  O   O19       1.0  0.00500  0.50400  0.42800  1.0000
  O   O20       1.0  0.99500  0.00400  0.57200  1.0000
  O   O21       1.0  0.56100  0.84400  0.71500  1.0000
  O   O22       1.0  0.43900  0.34400  0.28500  1.0000
  O   O23       1.0  0.22000  0.33500  0.51000  1.0000
  O   O24       1.0  0.78000  0.83500  0.49000  1.0000
  C   C1        1.0  0.10000  0.35000  0.44800  1.0000
  C   C2        1.0  0.90000  0.85000  0.55200  1.0000
  H   H1        1.0  0.07103  0.24195  0.41151  1.0000
  H   H2        1.0  0.92897  0.74195  0.58849  1.0000
  C   C3        1.0  0.52800  0.01700  0.71200  1.0000
  C   C4        1.0  0.47200  0.51700  0.28800  1.0000
  H   H3        1.0  0.58122  0.09910  0.75887  1.0000
  H   H4        1.0  0.41878  0.59910  0.24113  1.0000
  C   C5        1.0  0.04200  0.92000  0.80000  1.0000
  C   C6        1.0  0.95800  0.42000  0.20000  1.0000
  H   H5        1.0  0.11931  0.83438  0.76324  1.0000
  H   H6        1.0  0.88069  0.33438  0.23676  1.0000
  C   C7        1.0  0.75800  0.45100  0.69500  1.0000
  C   C8        1.0  0.24200  0.95100  0.30500  1.0000
  H   H7        1.0  0.66229  0.52955  0.66533  1.0000
  H   H8        1.0  0.33771  0.02955  0.33467  1.0000
  C   C9        1.0  0.37900  0.08600  0.94700  1.0000
  C   C10       1.0  0.62100  0.58600  0.05300  1.0000
  H   H9        1.0  0.36882  0.17837  0.89868  1.0000
  H   H10       1.0  0.63118  0.67837  0.10132  1.0000
  C   C11       1.0  0.25100  0.48100  0.81100  1.0000
  C   C12       1.0  0.74900  0.98100  0.18900  1.0000
  H   H11       1.0  0.14243  0.41935  0.84153  1.0000
  H   H12       1.0  0.85757  0.91935  0.15847  1.0000
