data_image0
_chemical_formula_structural       Fe4O24C12H12
_chemical_formula_sum              "Fe4 O24 C12 H12"
_cell_length_a       6.599
_cell_length_b       6.957
_cell_length_c       13.695
_cell_angle_alpha    90
_cell_angle_beta     90.19
_cell_angle_gamma    90

_space_group_name_H-M_alt    "P 1"
_space_group_IT_number       1

loop_
  _space_group_symop_operation_xyz
  'x, y, z'

loop_
  _atom_site_type_symbol
  _atom_site_label
  _atom_site_symmetry_multiplicity
  _atom_site_fract_x
  _atom_site_fract_y
  _atom_site_fract_z
  _atom_site_occupancy
  Fe  Fe1       1.0  0.63470  0.71620  0.84960  1.0000
  Fe  Fe2       1.0  0.36530  0.21620  0.15040  1.0000
  Fe  Fe3       1.0  0.13610  0.21490  0.64810  1.0000
  Fe  Fe4       1.0  0.86390  0.71490  0.35190  1.0000
  O   O1        1.0  0.05100  0.08200  0.77640  1.0000
  O   O2        1.0  0.94900  0.58200  0.22360  1.0000
  O   O3        1.0  0.51500  0.92700  0.93760  1.0000
  O   O4        1.0  0.48500  0.42700  0.06240  1.0000
  O   O5        1.0  0.35500  0.59100  0.85480  1.0000
  O   O6        1.0  0.64500  0.09100  0.14520  1.0000
  O   O7        1.0  0.27100  0.08800  0.01100  1.0000
  O   O8        1.0  0.72900  0.58800  0.98900  1.0000
  O   O9        1.0  0.75500  0.48900  0.78440  1.0000
  O   O10       1.0  0.24500  0.98900  0.21560  1.0000
  O   O11       1.0  0.43100  0.08000  0.63800  1.0000
  O   O12       1.0  0.56900  0.58000  0.36200  1.0000
  O   O13       1.0  0.89600  0.88000  0.86130  1.0000
  O   O14       1.0  0.10400  0.38000  0.13870  1.0000
  O   O15       1.0  0.28400  0.44400  0.72130  1.0000
  O   O16       1.0  0.71600  0.94400  0.27870  1.0000
  O   O17       1.0  0.85500  0.33700  0.63490  1.0000
  O   O18       1.0  0.14500  0.83700  0.36510  1.0000
  O   O19       1.0  0.00100  0.49200  0.43660  1.0000
  O   O20       1.0  0.99900  0.99200  0.56340  1.0000
  O   O21       1.0  0.56900  0.85000  0.72340  1.0000
  O   O22       1.0  0.43100  0.35000  0.27660  1.0000
  O   O23       1.0  0.22500  0.34200  0.51970  1.0000
  O   O24       1.0  0.77500  0.84200  0.48030  1.0000
  C   C1        1.0  0.12800  0.37300  0.45600  1.0000
  C   C2        1.0  0.87200  0.87300  0.54400  1.0000
  C   C3        1.0  0.51800  0.01300  0.70400  1.0000
  C   C4        1.0  0.48200  0.51300  0.29600  1.0000
  C   C5        1.0  0.01900  0.92900  0.79800  1.0000
  C   C6        1.0  0.98100  0.42900  0.20200  1.0000
  C   C7        1.0  0.76300  0.46200  0.68800  1.0000
  C   C8        1.0  0.23700  0.96200  0.31200  1.0000
  C   C9        1.0  0.41000  0.06800  0.94700  1.0000
  C   C10       1.0  0.59000  0.56800  0.05300  1.0000
  C   C11       1.0  0.23400  0.48500  0.80500  1.0000
  C   C12       1.0  0.76600  0.98500  0.19500  1.0000
  H   H1        1.0  0.15090  0.28563  0.40282  1.0000
  H   H2        1.0  0.84910  0.78563  0.59718  1.0000
  H   H3        1.0  0.55778  0.10579  0.75247  1.0000
  H   H4        1.0  0.44222  0.60579  0.24753  1.0000
  H   H5        1.0  0.09264  0.82908  0.76492  1.0000
  H   H6        1.0  0.90736  0.32908  0.23508  1.0000
  H   H7        1.0  0.68575  0.55328  0.65086  1.0000
  H   H8        1.0  0.31425  0.05328  0.34914  1.0000
  H   H9        1.0  0.43231  0.17308  0.90306  1.0000
  H   H10       1.0  0.56769  0.67308  0.09694  1.0000
  H   H11       1.0  0.10890  0.43963  0.83254  1.0000
  H   H12       1.0  0.89110  0.93963  0.16746  1.0000
