data_image0
_chemical_formula_structural       In4Li2O32C24H4C8H4C8H4C8H4C12H4C4H4C12H4C8H4C4H4C8H4C8H4C8H4C4H8C4H8
_chemical_formula_sum              "In4 Li2 O32 C120 H64"
_cell_length_a       9.892
_cell_length_b       9.617
_cell_length_c       35.11
_cell_angle_alpha    90
_cell_angle_beta     90.544
_cell_angle_gamma    90

_space_group_name_H-M_alt    "P 1"
_space_group_IT_number       1

loop_
  _space_group_symop_operation_xyz
  'x, y, z'

loop_
  _atom_site_type_symbol
  _atom_site_label
  _atom_site_symmetry_multiplicity
  _atom_site_fract_x
  _atom_site_fract_y
  _atom_site_fract_z
  _atom_site_occupancy
  In  In1       1.0  0.15879  0.47836  0.92241  1.0000
  In  In2       1.0  0.34121  0.97836  0.57759  1.0000
  In  In3       1.0  0.84121  0.52164  0.07759  1.0000
  In  In4       1.0  0.65879  0.02164  0.42241  1.0000
  Li  Li1       1.0  0.00000  0.50000  0.00000  1.0000
  Li  Li2       1.0  0.50000  0.00000  0.50000  1.0000
  O   O1        1.0  0.88230  0.49400  0.93770  1.0000
  O   O2        1.0  0.61770  0.99400  0.56230  1.0000
  O   O3        1.0  0.11770  0.50600  0.06230  1.0000
  O   O4        1.0  0.38230  0.00600  0.43770  1.0000
  O   O5        1.0  0.99480  0.48300  0.88570  1.0000
  O   O6        1.0  0.50520  0.98300  0.61430  1.0000
  O   O7        1.0  0.00520  0.51700  0.11430  1.0000
  O   O8        1.0  0.49480  0.01700  0.38570  1.0000
  O   O9        1.0  0.28770  0.48150  0.87210  1.0000
  O   O10       1.0  0.21230  0.98150  0.62790  1.0000
  O   O11       1.0  0.71230  0.51850  0.12790  1.0000
  O   O12       1.0  0.78770  0.01850  0.37210  1.0000
  O   O13       1.0  0.37870  0.48050  0.92650  1.0000
  O   O14       1.0  0.12130  0.98050  0.57350  1.0000
  O   O15       1.0  0.62130  0.51950  0.07350  1.0000
  O   O16       1.0  0.87870  0.01950  0.42650  1.0000
  O   O17       1.0  0.63880  0.15650  0.47320  1.0000
  O   O18       1.0  0.86120  0.65650  0.02680  1.0000
  O   O19       1.0  0.36120  0.84350  0.52680  1.0000
  O   O20       1.0  0.13880  0.34350  0.97320  1.0000
  O   O21       1.0  0.66840  0.25880  0.41930  1.0000
  O   O22       1.0  0.83160  0.75880  0.08070  1.0000
  O   O23       1.0  0.33160  0.74120  0.58070  1.0000
  O   O24       1.0  0.16840  0.24120  0.91930  1.0000
  O   O25       1.0  0.63910  0.88430  0.47350  1.0000
  O   O26       1.0  0.86090  0.38430  0.02650  1.0000
  O   O27       1.0  0.36090  0.11570  0.52650  1.0000
  O   O28       1.0  0.13910  0.61570  0.97350  1.0000
  O   O29       1.0  0.67410  0.78270  0.42010  1.0000
  O   O30       1.0  0.82590  0.28270  0.07990  1.0000
  O   O31       1.0  0.32590  0.21730  0.57990  1.0000
  O   O32       1.0  0.17410  0.71730  0.92010  1.0000
  C   C1        1.0  0.89200  0.48800  0.90210  1.0000
  C   C2        1.0  0.60800  0.98800  0.59790  1.0000
  C   C3        1.0  0.10800  0.51200  0.09790  1.0000
  C   C4        1.0  0.39200  0.01200  0.40210  1.0000
  C   C5        1.0  0.39000  0.47970  0.89200  1.0000
  C   C6        1.0  0.11000  0.97970  0.60800  1.0000
  C   C7        1.0  0.61000  0.52030  0.10800  1.0000
  C   C8        1.0  0.89000  0.02030  0.39200  1.0000
  C   C9        1.0  0.65700  0.26500  0.45380  1.0000
  C   C10       1.0  0.84300  0.76500  0.04620  1.0000
  C   C11       1.0  0.34300  0.73500  0.54620  1.0000
  C   C12       1.0  0.15700  0.23500  0.95380  1.0000
  C   C13       1.0  0.66100  0.77920  0.45530  1.0000
  C   C14       1.0  0.83900  0.27920  0.04470  1.0000
  C   C15       1.0  0.33900  0.22080  0.54470  1.0000
  C   C16       1.0  0.16100  0.72080  0.95530  1.0000
  C   C17       1.0  0.76220  0.49130  0.87820  1.0000
  C   C18       1.0  0.73780  0.99130  0.62180  1.0000
  C   C19       1.0  0.23780  0.50870  0.12180  1.0000
  C   C20       1.0  0.26220  0.00870  0.37820  1.0000
  C   C21       1.0  0.63340  0.48520  0.89560  1.0000
  C   C22       1.0  0.86660  0.98520  0.60440  1.0000
  C   C23       1.0  0.36660  0.51480  0.10440  1.0000
  C   C24       1.0  0.13340  0.01480  0.39560  1.0000
  H   H1        1.0  0.62740  0.48130  0.92260  1.0000
  H   H2        1.0  0.87260  0.98130  0.57740  1.0000
  H   H3        1.0  0.37260  0.51870  0.07740  1.0000
  H   H4        1.0  0.12740  0.01870  0.42260  1.0000
  C   C25       1.0  0.52200  0.48480  0.87470  1.0000
  C   C26       1.0  0.97800  0.98480  0.62530  1.0000
  C   C27       1.0  0.47800  0.51520  0.12530  1.0000
  C   C28       1.0  0.02200  0.01520  0.37470  1.0000
  C   C29       1.0  0.52850  0.49150  0.83600  1.0000
  C   C30       1.0  0.97150  0.99150  0.66400  1.0000
  C   C31       1.0  0.47150  0.50850  0.16400  1.0000
  C   C32       1.0  0.02850  0.00850  0.33600  1.0000
  H   H5        1.0  0.44680  0.49390  0.82160  1.0000
  H   H6        1.0  0.05320  0.99390  0.67840  1.0000
  H   H7        1.0  0.55320  0.50610  0.17840  1.0000
  H   H8        1.0  0.94680  0.00610  0.32160  1.0000
  C   C33       1.0  0.65600  0.49520  0.81640  1.0000
  C   C34       1.0  0.84400  0.99520  0.68360  1.0000
  C   C35       1.0  0.34400  0.50480  0.18360  1.0000
  C   C36       1.0  0.15600  0.00480  0.31640  1.0000
  C   C37       1.0  0.77600  0.49610  0.83990  1.0000
  C   C38       1.0  0.72400  0.99610  0.66010  1.0000
  C   C39       1.0  0.22400  0.50390  0.16010  1.0000
  C   C40       1.0  0.27600  0.00390  0.33990  1.0000
  H   H9        1.0  0.86280  0.49990  0.82880  1.0000
  H   H10       1.0  0.63720  0.99990  0.67120  1.0000
  H   H11       1.0  0.13720  0.50010  0.17120  1.0000
  H   H12       1.0  0.36280  0.00010  0.32880  1.0000
  C   C41       1.0  0.66800  0.50630  0.77810  1.0000
  C   C42       1.0  0.83200  0.00630  0.72190  1.0000
  C   C43       1.0  0.33200  0.49370  0.22190  1.0000
  C   C44       1.0  0.16800  0.99370  0.27810  1.0000
  C   C45       1.0  0.76100  0.56900  0.75680  1.0000
  C   C46       1.0  0.73900  0.06900  0.74320  1.0000
  C   C47       1.0  0.23900  0.43100  0.24320  1.0000
  C   C48       1.0  0.26100  0.93100  0.25680  1.0000
  H   H13       1.0  0.83680  0.60530  0.77010  1.0000
  H   H14       1.0  0.66320  0.10530  0.72990  1.0000
  H   H15       1.0  0.16320  0.39470  0.22990  1.0000
  H   H16       1.0  0.33680  0.89470  0.27010  1.0000
  C   C49       1.0  0.57800  0.44000  0.71420  1.0000
  C   C50       1.0  0.92200  0.94000  0.78580  1.0000
  C   C51       1.0  0.42200  0.56000  0.28580  1.0000
  C   C52       1.0  0.07800  0.06000  0.21420  1.0000
  C   C53       1.0  0.67100  0.51560  0.69670  1.0000
  C   C54       1.0  0.82900  0.01560  0.80330  1.0000
  C   C55       1.0  0.32900  0.48440  0.30330  1.0000
  C   C56       1.0  0.17100  0.98440  0.19670  1.0000
  C   C57       1.0  0.75900  0.58700  0.71830  1.0000
  C   C58       1.0  0.74100  0.08700  0.78170  1.0000
  C   C59       1.0  0.24100  0.41300  0.28170  1.0000
  C   C60       1.0  0.25900  0.91300  0.21830  1.0000
  H   H17       1.0  0.82080  0.65040  0.70690  1.0000
  H   H18       1.0  0.67920  0.15040  0.79310  1.0000
  H   H19       1.0  0.17920  0.34960  0.29310  1.0000
  H   H20       1.0  0.32080  0.84960  0.20690  1.0000
  C   C61       1.0  0.57200  0.43800  0.75310  1.0000
  C   C62       1.0  0.92800  0.93800  0.74690  1.0000
  C   C63       1.0  0.42800  0.56200  0.24690  1.0000
  C   C64       1.0  0.07200  0.06200  0.25310  1.0000
  H   H21       1.0  0.50030  0.38830  0.76450  1.0000
  H   H22       1.0  0.99970  0.88830  0.73550  1.0000
  H   H23       1.0  0.49970  0.61170  0.23550  1.0000
  H   H24       1.0  0.00030  0.11170  0.26450  1.0000
  C   C65       1.0  0.67500  0.52260  0.65520  1.0000
  C   C66       1.0  0.82500  0.02260  0.84480  1.0000
  C   C67       1.0  0.32500  0.47740  0.34480  1.0000
  C   C68       1.0  0.17500  0.97740  0.15520  1.0000
  C   C69       1.0  0.61200  0.42200  0.63510  1.0000
  C   C70       1.0  0.88800  0.92200  0.86490  1.0000
  C   C71       1.0  0.38800  0.57800  0.36490  1.0000
  C   C72       1.0  0.11200  0.07800  0.13510  1.0000
  C   C73       1.0  0.61800  0.41870  0.59580  1.0000
  C   C74       1.0  0.88200  0.91870  0.90420  1.0000
  C   C75       1.0  0.38200  0.58130  0.40420  1.0000
  C   C76       1.0  0.11800  0.08130  0.09580  1.0000
  H   H25       1.0  0.58140  0.34190  0.58220  1.0000
  H   H26       1.0  0.91860  0.84190  0.91780  1.0000
  H   H27       1.0  0.41860  0.65810  0.41780  1.0000
  H   H28       1.0  0.08140  0.15810  0.08220  1.0000
  C   C77       1.0  0.67550  0.52200  0.57710  1.0000
  C   C78       1.0  0.82450  0.02200  0.92290  1.0000
  C   C79       1.0  0.32450  0.47800  0.42290  1.0000
  C   C80       1.0  0.17550  0.97800  0.07710  1.0000
  C   C81       1.0  0.73400  0.62560  0.59660  1.0000
  C   C82       1.0  0.76600  0.12560  0.90340  1.0000
  C   C83       1.0  0.26600  0.37440  0.40340  1.0000
  C   C84       1.0  0.23400  0.87440  0.09660  1.0000
  H   H29       1.0  0.77660  0.69970  0.58340  1.0000
  H   H30       1.0  0.72340  0.19970  0.91660  1.0000
  H   H31       1.0  0.22340  0.30030  0.41660  1.0000
  H   H32       1.0  0.27660  0.80030  0.08340  1.0000
  C   C85       1.0  0.73200  0.62450  0.63430  1.0000
  C   C86       1.0  0.76800  0.12450  0.86570  1.0000
  C   C87       1.0  0.26800  0.37550  0.36570  1.0000
  C   C88       1.0  0.23200  0.87550  0.13430  1.0000
  H   H33       1.0  0.77240  0.70030  0.64750  1.0000
  H   H34       1.0  0.72760  0.20030  0.85250  1.0000
  H   H35       1.0  0.22760  0.29970  0.35250  1.0000
  H   H36       1.0  0.27240  0.79970  0.14750  1.0000
  C   C89       1.0  0.67800  0.52320  0.53370  1.0000
  C   C90       1.0  0.82200  0.02320  0.96630  1.0000
  C   C91       1.0  0.32200  0.47680  0.46630  1.0000
  C   C92       1.0  0.17800  0.97680  0.03370  1.0000
  C   C93       1.0  0.66300  0.39830  0.51340  1.0000
  C   C94       1.0  0.83700  0.89830  0.98660  1.0000
  C   C95       1.0  0.33700  0.60170  0.48660  1.0000
  C   C96       1.0  0.16300  0.10170  0.01340  1.0000
  H   H37       1.0  0.65000  0.31300  0.52650  1.0000
  H   H38       1.0  0.85000  0.81300  0.97350  1.0000
  H   H39       1.0  0.35000  0.68700  0.47350  1.0000
  H   H40       1.0  0.15000  0.18700  0.02650  1.0000
  C   C97       1.0  0.66600  0.40100  0.47510  1.0000
  C   C98       1.0  0.83400  0.90100  0.02490  1.0000
  C   C99       1.0  0.33400  0.59900  0.52490  1.0000
  C   C100      1.0  0.16600  0.09900  0.97510  1.0000
  C   C101      1.0  0.67000  0.52260  0.45650  1.0000
  C   C102      1.0  0.83000  0.02260  0.04350  1.0000
  C   C103      1.0  0.33000  0.47740  0.54350  1.0000
  C   C104      1.0  0.17000  0.97740  0.95650  1.0000
  H   H41       1.0  0.67240  0.52330  0.42950  1.0000
  H   H42       1.0  0.82760  0.02330  0.07050  1.0000
  H   H43       1.0  0.32760  0.47670  0.57050  1.0000
  H   H44       1.0  0.17240  0.97670  0.92950  1.0000
  C   C105      1.0  0.66900  0.64550  0.47590  1.0000
  C   C106      1.0  0.83100  0.14550  0.02410  1.0000
  C   C107      1.0  0.33100  0.35450  0.52410  1.0000
  C   C108      1.0  0.16900  0.85450  0.97590  1.0000
  C   C109      1.0  0.67000  0.64410  0.51310  1.0000
  C   C110      1.0  0.83000  0.14410  0.98690  1.0000
  C   C111      1.0  0.33000  0.35590  0.48690  1.0000
  C   C112      1.0  0.17000  0.85590  0.01310  1.0000
  H   H45       1.0  0.66530  0.73000  0.52640  1.0000
  H   H46       1.0  0.83470  0.23000  0.97360  1.0000
  H   H47       1.0  0.33470  0.27000  0.47360  1.0000
  H   H48       1.0  0.16530  0.77000  0.02640  1.0000
  C   C113      1.0  0.47300  0.36700  0.69190  1.0000
  C   C114      1.0  0.02700  0.86700  0.80810  1.0000
  C   C115      1.0  0.52700  0.63300  0.30810  1.0000
  C   C116      1.0  0.97300  0.13300  0.19190  1.0000
  H   H49       1.0  0.39910  0.43230  0.68520  1.0000
  H   H50       1.0  0.10090  0.93230  0.81480  1.0000
  H   H51       1.0  0.60090  0.56770  0.31480  1.0000
  H   H52       1.0  0.89910  0.06770  0.18520  1.0000
  H   H53       1.0  0.43410  0.29050  0.70720  1.0000
  H   H54       1.0  0.06590  0.79050  0.79280  1.0000
  H   H55       1.0  0.56590  0.70950  0.29280  1.0000
  H   H56       1.0  0.93410  0.20950  0.20720  1.0000
  C   C117      1.0  0.53500  0.30800  0.65590  1.0000
  C   C118      1.0  0.96500  0.80800  0.84410  1.0000
  C   C119      1.0  0.46500  0.69200  0.34410  1.0000
  C   C120      1.0  0.03500  0.19200  0.15590  1.0000
  H   H57       1.0  0.46280  0.27080  0.63910  1.0000
  H   H58       1.0  0.03720  0.77080  0.86090  1.0000
  H   H59       1.0  0.53720  0.72920  0.36090  1.0000
  H   H60       1.0  0.96280  0.22920  0.13910  1.0000
  H   H61       1.0  0.59730  0.23140  0.66250  1.0000
  H   H62       1.0  0.90270  0.73140  0.83750  1.0000
  H   H63       1.0  0.40270  0.76860  0.33750  1.0000
  H   H64       1.0  0.09730  0.26860  0.16250  1.0000
