data_image0
_chemical_formula_structural       Cu8O8C4O8C8H8O4C8O8C4H4O8C8H16C16H8C8H8C16H8C8H8C12
_chemical_formula_sum              "Cu8 O36 C92 H60"
_cell_length_a       17.958
_cell_length_b       25.589
_cell_length_c       5.781
_cell_angle_alpha    90
_cell_angle_beta     99.052
_cell_angle_gamma    90

_space_group_name_H-M_alt    "P 1"
_space_group_IT_number       1

loop_
  _space_group_symop_operation_xyz
  'x, y, z'

loop_
  _atom_site_type_symbol
  _atom_site_label
  _atom_site_symmetry_multiplicity
  _atom_site_fract_x
  _atom_site_fract_y
  _atom_site_fract_z
  _atom_site_occupancy
  Cu  Cu1       1.0  0.91663  0.02159  0.04711  1.0000
  Cu  Cu2       1.0  0.08337  0.02159  0.45289  1.0000
  Cu  Cu3       1.0  0.41663  0.52159  0.04711  1.0000
  Cu  Cu4       1.0  0.58337  0.52159  0.45289  1.0000
  Cu  Cu5       1.0  0.08337  0.97841  0.95289  1.0000
  Cu  Cu6       1.0  0.91663  0.97841  0.54711  1.0000
  Cu  Cu7       1.0  0.58337  0.47841  0.95289  1.0000
  Cu  Cu8       1.0  0.41663  0.47841  0.54711  1.0000
  O   O1        1.0  0.86843  0.95392  0.99210  1.0000
  O   O2        1.0  0.13157  0.95392  0.50790  1.0000
  O   O3        1.0  0.36843  0.45392  0.99210  1.0000
  O   O4        1.0  0.63157  0.45392  0.50790  1.0000
  O   O5        1.0  0.13157  0.04608  0.00790  1.0000
  O   O6        1.0  0.86843  0.04608  0.49210  1.0000
  O   O7        1.0  0.63157  0.54608  0.00790  1.0000
  O   O8        1.0  0.36843  0.54608  0.49210  1.0000
  C   C1        1.0  0.50000  0.67173  0.25000  1.0000
  C   C2        1.0  0.00000  0.17173  0.25000  1.0000
  C   C3        1.0  0.50000  0.32827  0.75000  1.0000
  C   C4        1.0  0.00000  0.82827  0.75000  1.0000
  O   O9        1.0  0.58810  0.78372  0.58800  1.0000
  O   O10       1.0  0.41190  0.78372  0.91200  1.0000
  O   O11       1.0  0.08810  0.28372  0.58800  1.0000
  O   O12       1.0  0.91190  0.28372  0.91200  1.0000
  O   O13       1.0  0.41190  0.21628  0.41200  1.0000
  O   O14       1.0  0.58810  0.21628  0.08800  1.0000
  O   O15       1.0  0.91190  0.71628  0.41200  1.0000
  O   O16       1.0  0.08810  0.71628  0.08800  1.0000
  C   C5        1.0  0.54501  0.69825  0.43240  1.0000
  C   C6        1.0  0.45499  0.69825  0.06760  1.0000
  C   C7        1.0  0.04501  0.19825  0.43240  1.0000
  C   C8        1.0  0.95499  0.19825  0.06760  1.0000
  C   C9        1.0  0.45499  0.30175  0.56760  1.0000
  C   C10       1.0  0.54501  0.30175  0.93240  1.0000
  C   C11       1.0  0.95499  0.80175  0.56760  1.0000
  C   C12       1.0  0.04501  0.80175  0.93240  1.0000
  H   H1        1.0  0.57390  0.68010  0.55400  1.0000
  H   H2        1.0  0.42610  0.68010  0.94600  1.0000
  H   H3        1.0  0.07390  0.18010  0.55400  1.0000
  H   H4        1.0  0.92610  0.18010  0.94600  1.0000
  H   H5        1.0  0.42610  0.31990  0.44600  1.0000
  H   H6        1.0  0.57390  0.31990  0.05400  1.0000
  H   H7        1.0  0.92610  0.81990  0.44600  1.0000
  H   H8        1.0  0.07390  0.81990  0.05400  1.0000
  O   O17       1.0  0.00000  0.98992  0.25000  1.0000
  O   O18       1.0  0.50000  0.48992  0.25000  1.0000
  O   O19       1.0  0.00000  0.01008  0.75000  1.0000
  O   O20       1.0  0.50000  0.51008  0.75000  1.0000
  C   C13       1.0  0.54520  0.75263  0.42640  1.0000
  C   C14       1.0  0.45480  0.75263  0.07360  1.0000
  C   C15       1.0  0.04520  0.25263  0.42640  1.0000
  C   C16       1.0  0.95480  0.25263  0.07360  1.0000
  C   C17       1.0  0.45480  0.24737  0.57360  1.0000
  C   C18       1.0  0.54520  0.24737  0.92640  1.0000
  C   C19       1.0  0.95480  0.74737  0.57360  1.0000
  C   C20       1.0  0.04520  0.74737  0.92640  1.0000
  O   O21       1.0  0.46009  0.59103  0.08070  1.0000
  O   O22       1.0  0.53991  0.59103  0.41930  1.0000
  O   O23       1.0  0.96009  0.09103  0.08070  1.0000
  O   O24       1.0  0.03991  0.09103  0.41930  1.0000
  O   O25       1.0  0.53991  0.40897  0.91930  1.0000
  O   O26       1.0  0.46009  0.40897  0.58070  1.0000
  O   O27       1.0  0.03991  0.90897  0.91930  1.0000
  O   O28       1.0  0.96009  0.90897  0.58070  1.0000
  C   C21       1.0  0.50000  0.77980  0.25000  1.0000
  C   C22       1.0  0.00000  0.27980  0.25000  1.0000
  C   C23       1.0  0.50000  0.22020  0.75000  1.0000
  C   C24       1.0  0.00000  0.72020  0.75000  1.0000
  H   H9        1.0  0.50000  0.81620  0.25000  1.0000
  H   H10       1.0  0.00000  0.31620  0.25000  1.0000
  H   H11       1.0  0.50000  0.18380  0.75000  1.0000
  H   H12       1.0  0.00000  0.68380  0.75000  1.0000
  O   O29       1.0  0.83289  0.94501  0.34400  1.0000
  O   O30       1.0  0.16711  0.94501  0.15600  1.0000
  O   O31       1.0  0.33289  0.44501  0.34400  1.0000
  O   O32       1.0  0.66711  0.44501  0.15600  1.0000
  O   O33       1.0  0.16711  0.05499  0.65600  1.0000
  O   O34       1.0  0.83289  0.05499  0.84400  1.0000
  O   O35       1.0  0.66711  0.55499  0.65600  1.0000
  O   O36       1.0  0.33289  0.55499  0.84400  1.0000
  C   C25       1.0  0.63910  0.76026  0.77330  1.0000
  C   C26       1.0  0.36090  0.76026  0.72670  1.0000
  C   C27       1.0  0.13910  0.26026  0.77330  1.0000
  C   C28       1.0  0.86090  0.26026  0.72670  1.0000
  C   C29       1.0  0.36090  0.23974  0.22670  1.0000
  C   C30       1.0  0.63910  0.23974  0.27330  1.0000
  C   C31       1.0  0.86090  0.73974  0.22670  1.0000
  C   C32       1.0  0.13910  0.73974  0.27330  1.0000
  H   H13       1.0  0.66730  0.73230  0.71320  1.0000
  H   H14       1.0  0.33270  0.73230  0.78680  1.0000
  H   H15       1.0  0.16730  0.23230  0.71320  1.0000
  H   H16       1.0  0.83270  0.23230  0.78680  1.0000
  H   H17       1.0  0.33270  0.26770  0.28680  1.0000
  H   H18       1.0  0.66730  0.26770  0.21320  1.0000
  H   H19       1.0  0.83270  0.76770  0.28680  1.0000
  H   H20       1.0  0.16730  0.76770  0.21320  1.0000
  H   H21       1.0  0.61190  0.74590  0.89090  1.0000
  H   H22       1.0  0.38810  0.74590  0.60910  1.0000
  H   H23       1.0  0.11190  0.24590  0.89090  1.0000
  H   H24       1.0  0.88810  0.24590  0.60910  1.0000
  H   H25       1.0  0.38810  0.25410  0.10910  1.0000
  H   H26       1.0  0.61190  0.25410  0.39090  1.0000
  H   H27       1.0  0.88810  0.75410  0.10910  1.0000
  H   H28       1.0  0.11190  0.75410  0.39090  1.0000
  C   C33       1.0  0.69110  0.80277  0.87580  1.0000
  C   C34       1.0  0.30890  0.80277  0.62420  1.0000
  C   C35       1.0  0.19110  0.30277  0.87580  1.0000
  C   C36       1.0  0.80890  0.30277  0.62420  1.0000
  C   C37       1.0  0.30890  0.19723  0.12420  1.0000
  C   C38       1.0  0.69110  0.19723  0.37580  1.0000
  C   C39       1.0  0.80890  0.69723  0.12420  1.0000
  C   C40       1.0  0.19110  0.69723  0.37580  1.0000
  C   C41       1.0  0.68380  0.82616  0.08540  1.0000
  C   C42       1.0  0.31620  0.82616  0.41460  1.0000
  C   C43       1.0  0.18380  0.32616  0.08540  1.0000
  C   C44       1.0  0.81620  0.32616  0.41460  1.0000
  C   C45       1.0  0.31620  0.17384  0.91460  1.0000
  C   C46       1.0  0.68380  0.17384  0.58540  1.0000
  C   C47       1.0  0.81620  0.67384  0.91460  1.0000
  C   C48       1.0  0.18380  0.67384  0.58540  1.0000
  H   H29       1.0  0.64760  0.81400  0.17090  1.0000
  H   H30       1.0  0.35240  0.81400  0.32910  1.0000
  H   H31       1.0  0.14760  0.31400  0.17090  1.0000
  H   H32       1.0  0.85240  0.31400  0.32910  1.0000
  H   H33       1.0  0.35240  0.18600  0.82910  1.0000
  H   H34       1.0  0.64760  0.18600  0.67090  1.0000
  H   H35       1.0  0.85240  0.68600  0.82910  1.0000
  H   H36       1.0  0.14760  0.68600  0.67090  1.0000
  C   C49       1.0  0.72960  0.86763  0.17060  1.0000
  C   C50       1.0  0.27040  0.86763  0.32940  1.0000
  C   C51       1.0  0.22960  0.36763  0.17060  1.0000
  C   C52       1.0  0.77040  0.36763  0.32940  1.0000
  C   C53       1.0  0.27040  0.13237  0.82940  1.0000
  C   C54       1.0  0.72960  0.13237  0.67060  1.0000
  C   C55       1.0  0.77040  0.63237  0.82940  1.0000
  C   C56       1.0  0.22960  0.63237  0.67060  1.0000
  H   H37       1.0  0.72430  0.88280  0.31330  1.0000
  H   H38       1.0  0.27570  0.88280  0.18670  1.0000
  H   H39       1.0  0.22430  0.38280  0.31330  1.0000
  H   H40       1.0  0.77570  0.38280  0.18670  1.0000
  H   H41       1.0  0.27570  0.11720  0.68670  1.0000
  H   H42       1.0  0.72430  0.11720  0.81330  1.0000
  H   H43       1.0  0.77570  0.61720  0.68670  1.0000
  H   H44       1.0  0.22430  0.61720  0.81330  1.0000
  C   C57       1.0  0.78310  0.88646  0.04450  1.0000
  C   C58       1.0  0.21690  0.88646  0.45550  1.0000
  C   C59       1.0  0.28310  0.38646  0.04450  1.0000
  C   C60       1.0  0.71690  0.38646  0.45550  1.0000
  C   C61       1.0  0.21690  0.11354  0.95550  1.0000
  C   C62       1.0  0.78310  0.11354  0.54450  1.0000
  C   C63       1.0  0.71690  0.61354  0.95550  1.0000
  C   C64       1.0  0.28310  0.61354  0.54450  1.0000
  C   C65       1.0  0.79140  0.86241  0.83640  1.0000
  C   C66       1.0  0.20860  0.86241  0.66360  1.0000
  C   C67       1.0  0.29140  0.36241  0.83640  1.0000
  C   C68       1.0  0.70860  0.36241  0.66360  1.0000
  C   C69       1.0  0.20860  0.13759  0.16360  1.0000
  C   C70       1.0  0.79140  0.13759  0.33640  1.0000
  C   C71       1.0  0.70860  0.63759  0.16360  1.0000
  C   C72       1.0  0.29140  0.63759  0.33640  1.0000
  H   H45       1.0  0.82770  0.87450  0.75080  1.0000
  H   H46       1.0  0.17230  0.87450  0.74920  1.0000
  H   H47       1.0  0.32770  0.37450  0.75080  1.0000
  H   H48       1.0  0.67230  0.37450  0.74920  1.0000
  H   H49       1.0  0.17230  0.12550  0.24920  1.0000
  H   H50       1.0  0.82770  0.12550  0.25080  1.0000
  H   H51       1.0  0.67230  0.62550  0.24920  1.0000
  H   H52       1.0  0.32770  0.62550  0.25080  1.0000
  C   C73       1.0  0.74660  0.82082  0.75530  1.0000
  C   C74       1.0  0.25340  0.82082  0.74470  1.0000
  C   C75       1.0  0.24660  0.32082  0.75530  1.0000
  C   C76       1.0  0.75340  0.32082  0.74470  1.0000
  C   C77       1.0  0.25340  0.17918  0.24470  1.0000
  C   C78       1.0  0.74660  0.17918  0.25530  1.0000
  C   C79       1.0  0.75340  0.67918  0.24470  1.0000
  C   C80       1.0  0.24660  0.67918  0.25530  1.0000
  H   H53       1.0  0.75370  0.80450  0.61670  1.0000
  H   H54       1.0  0.24630  0.80450  0.88330  1.0000
  H   H55       1.0  0.25370  0.30450  0.61670  1.0000
  H   H56       1.0  0.74630  0.30450  0.88330  1.0000
  H   H57       1.0  0.24630  0.19550  0.38330  1.0000
  H   H58       1.0  0.75370  0.19550  0.11670  1.0000
  H   H59       1.0  0.74630  0.69550  0.38330  1.0000
  H   H60       1.0  0.25370  0.69550  0.11670  1.0000
  C   C81       1.0  0.83144  0.93203  0.13320  1.0000
  C   C82       1.0  0.16856  0.93203  0.36680  1.0000
  C   C83       1.0  0.33144  0.43203  0.13320  1.0000
  C   C84       1.0  0.66856  0.43203  0.36680  1.0000
  C   C85       1.0  0.16856  0.06797  0.86680  1.0000
  C   C86       1.0  0.83144  0.06797  0.63320  1.0000
  C   C87       1.0  0.66856  0.56797  0.86680  1.0000
  C   C88       1.0  0.33144  0.56797  0.63320  1.0000
  C   C89       1.0  0.50000  0.61328  0.25000  1.0000
  C   C90       1.0  0.00000  0.11328  0.25000  1.0000
  C   C91       1.0  0.50000  0.38672  0.75000  1.0000
  C   C92       1.0  0.00000  0.88672  0.75000  1.0000
