data_image0
_chemical_formula_structural       C12H4C4H4C4H4C20H4C4H4C4H4C20H4C4H4C4H4C8N12O52Bi4Li4H8
_chemical_formula_sum              "C84 H44 N12 O52 Bi4 Li4"
_cell_length_a       14.249
_cell_length_b       10.089
_cell_length_c       21.025
_cell_angle_alpha    90
_cell_angle_beta     101.954
_cell_angle_gamma    90

_space_group_name_H-M_alt    "P 1"
_space_group_IT_number       1

loop_
  _space_group_symop_operation_xyz
  'x, y, z'

loop_
  _atom_site_type_symbol
  _atom_site_label
  _atom_site_symmetry_multiplicity
  _atom_site_fract_x
  _atom_site_fract_y
  _atom_site_fract_z
  _atom_site_occupancy
  C   C1        1.0  0.71490  0.46330  0.54129  1.0000
  C   C2        1.0  0.28510  0.96330  0.95871  1.0000
  C   C3        1.0  0.28510  0.53670  0.45871  1.0000
  C   C4        1.0  0.71490  0.03670  0.04129  1.0000
  C   C5        1.0  0.70290  0.33240  0.57417  1.0000
  C   C6        1.0  0.29710  0.83240  0.92583  1.0000
  C   C7        1.0  0.29710  0.66760  0.42583  1.0000
  C   C8        1.0  0.70290  0.16760  0.07417  1.0000
  C   C9        1.0  0.69190  0.32420  0.63857  1.0000
  C   C10       1.0  0.30810  0.82420  0.86143  1.0000
  C   C11       1.0  0.30810  0.67580  0.36143  1.0000
  C   C12       1.0  0.69190  0.17580  0.13857  1.0000
  H   H1        1.0  0.69210  0.40040  0.66350  1.0000
  H   H2        1.0  0.30790  0.90040  0.83650  1.0000
  H   H3        1.0  0.30790  0.59960  0.33650  1.0000
  H   H4        1.0  0.69210  0.09960  0.16350  1.0000
  C   C13       1.0  0.68100  0.20070  0.66437  1.0000
  C   C14       1.0  0.31900  0.70070  0.83563  1.0000
  C   C15       1.0  0.31900  0.79930  0.33563  1.0000
  C   C16       1.0  0.68100  0.29930  0.16437  1.0000
  H   H5        1.0  0.67230  0.19300  0.70690  1.0000
  H   H6        1.0  0.32770  0.69300  0.79310  1.0000
  H   H7        1.0  0.32770  0.80700  0.29310  1.0000
  H   H8        1.0  0.67230  0.30700  0.20690  1.0000
  C   C17       1.0  0.68280  0.08860  0.62692  1.0000
  C   C18       1.0  0.31720  0.58860  0.87308  1.0000
  C   C19       1.0  0.31720  0.91140  0.37308  1.0000
  C   C20       1.0  0.68280  0.41140  0.12692  1.0000
  H   H9        1.0  0.67540  0.00470  0.64350  1.0000
  H   H10       1.0  0.32460  0.50470  0.85650  1.0000
  H   H11       1.0  0.32460  0.99530  0.35650  1.0000
  H   H12       1.0  0.67540  0.49530  0.14350  1.0000
  C   C21       1.0  0.69610  0.10460  0.56375  1.0000
  C   C22       1.0  0.30390  0.60460  0.93625  1.0000
  C   C23       1.0  0.30390  0.89540  0.43625  1.0000
  C   C24       1.0  0.69610  0.39540  0.06375  1.0000
  C   C25       1.0  0.70520  0.98870  0.51977  1.0000
  C   C26       1.0  0.29480  0.48870  0.98023  1.0000
  C   C27       1.0  0.29480  0.01130  0.48023  1.0000
  C   C28       1.0  0.70520  0.51130  0.01977  1.0000
  C   C29       1.0  0.50240  0.22530  0.37257  1.0000
  C   C30       1.0  0.49760  0.72530  0.12743  1.0000
  C   C31       1.0  0.49760  0.77470  0.62743  1.0000
  C   C32       1.0  0.50240  0.27470  0.87257  1.0000
  C   C33       1.0  0.53760  0.13340  0.32486  1.0000
  C   C34       1.0  0.46240  0.63340  0.17514  1.0000
  C   C35       1.0  0.46240  0.86660  0.67514  1.0000
  C   C36       1.0  0.53760  0.36660  0.82486  1.0000
  C   C37       1.0  0.47500  0.06260  0.27652  1.0000
  C   C38       1.0  0.52500  0.56260  0.22348  1.0000
  C   C39       1.0  0.52500  0.93740  0.72348  1.0000
  C   C40       1.0  0.47500  0.43740  0.77652  1.0000
  H   H13       1.0  0.40890  0.07220  0.27120  1.0000
  H   H14       1.0  0.59110  0.57220  0.22880  1.0000
  H   H15       1.0  0.59110  0.92780  0.72880  1.0000
  H   H16       1.0  0.40890  0.42780  0.77120  1.0000
  C   C41       1.0  0.51360  0.97820  0.23684  1.0000
  C   C42       1.0  0.48640  0.47820  0.26316  1.0000
  C   C43       1.0  0.48640  0.02180  0.76316  1.0000
  C   C44       1.0  0.51360  0.52180  0.73684  1.0000
  H   H17       1.0  0.47360  0.93000  0.20450  1.0000
  H   H18       1.0  0.52640  0.43000  0.29550  1.0000
  H   H19       1.0  0.52640  0.07000  0.79550  1.0000
  H   H20       1.0  0.47360  0.57000  0.70450  1.0000
  C   C45       1.0  0.61240  0.96610  0.24565  1.0000
  C   C46       1.0  0.38760  0.46610  0.25435  1.0000
  C   C47       1.0  0.38760  0.03390  0.75435  1.0000
  C   C48       1.0  0.61240  0.53390  0.74565  1.0000
  H   H21       1.0  0.63950  0.90810  0.22010  1.0000
  H   H22       1.0  0.36050  0.40810  0.27990  1.0000
  H   H23       1.0  0.36050  0.09190  0.77990  1.0000
  H   H24       1.0  0.63950  0.59190  0.72010  1.0000
  C   C49       1.0  0.67040  0.04260  0.29359  1.0000
  C   C50       1.0  0.32960  0.54260  0.20641  1.0000
  C   C51       1.0  0.32960  0.95740  0.70641  1.0000
  C   C52       1.0  0.67040  0.45740  0.79359  1.0000
  C   C53       1.0  0.77930  0.04000  0.30725  1.0000
  C   C54       1.0  0.22070  0.54000  0.19275  1.0000
  C   C55       1.0  0.22070  0.96000  0.69275  1.0000
  C   C56       1.0  0.77930  0.46000  0.80725  1.0000
  C   C57       1.0  0.77880  0.46340  0.31299  1.0000
  C   C58       1.0  0.22120  0.96340  0.18701  1.0000
  C   C59       1.0  0.22120  0.53660  0.68701  1.0000
  C   C60       1.0  0.77880  0.03660  0.81299  1.0000
  C   C61       1.0  0.87960  0.44710  0.35399  1.0000
  C   C62       1.0  0.12040  0.94710  0.14601  1.0000
  C   C63       1.0  0.12040  0.55290  0.64601  1.0000
  C   C64       1.0  0.87960  0.05290  0.85399  1.0000
  C   C65       1.0  0.96020  0.50050  0.33591  1.0000
  C   C66       1.0  0.03980  0.00050  0.16409  1.0000
  C   C67       1.0  0.03980  0.49950  0.66409  1.0000
  C   C68       1.0  0.96020  0.99950  0.83591  1.0000
  H   H25       1.0  0.95440  0.55100  0.29830  1.0000
  H   H26       1.0  0.04560  0.05100  0.20170  1.0000
  H   H27       1.0  0.04560  0.44900  0.70170  1.0000
  H   H28       1.0  0.95440  0.94900  0.79830  1.0000
  C   C69       1.0  0.04970  0.47680  0.37548  1.0000
  C   C70       1.0  0.95030  0.97680  0.12452  1.0000
  C   C71       1.0  0.95030  0.52320  0.62452  1.0000
  C   C72       1.0  0.04970  0.02320  0.87548  1.0000
  H   H29       1.0  0.10500  0.50900  0.36390  1.0000
  H   H30       1.0  0.89500  0.00900  0.13610  1.0000
  H   H31       1.0  0.89500  0.49100  0.63610  1.0000
  H   H32       1.0  0.10500  0.99100  0.86390  1.0000
  C   C73       1.0  0.05580  0.40500  0.43206  1.0000
  C   C74       1.0  0.94420  0.90500  0.06794  1.0000
  C   C75       1.0  0.94420  0.59500  0.56794  1.0000
  C   C76       1.0  0.05580  0.09500  0.93206  1.0000
  H   H33       1.0  0.11490  0.39020  0.45960  1.0000
  H   H34       1.0  0.88510  0.89020  0.04040  1.0000
  H   H35       1.0  0.88510  0.60980  0.54040  1.0000
  H   H36       1.0  0.11490  0.10980  0.95960  1.0000
  C   C77       1.0  0.97200  0.35540  0.44717  1.0000
  C   C78       1.0  0.02800  0.85540  0.05283  1.0000
  C   C79       1.0  0.02800  0.64460  0.55283  1.0000
  C   C80       1.0  0.97200  0.14460  0.94717  1.0000
  C   C81       1.0  0.97030  0.26930  0.50619  1.0000
  C   C82       1.0  0.02970  0.76930  0.99381  1.0000
  C   C83       1.0  0.02970  0.73070  0.49381  1.0000
  C   C84       1.0  0.97030  0.23070  0.00619  1.0000
  N   N1        1.0  0.70440  0.22440  0.53817  1.0000
  N   N2        1.0  0.29560  0.72440  0.96183  1.0000
  N   N3        1.0  0.29560  0.77560  0.46183  1.0000
  N   N4        1.0  0.70440  0.27560  0.03817  1.0000
  N   N5        1.0  0.63254  0.12420  0.33187  1.0000
  N   N6        1.0  0.36746  0.62420  0.16813  1.0000
  N   N7        1.0  0.36746  0.87580  0.66813  1.0000
  N   N8        1.0  0.63254  0.37580  0.83187  1.0000
  N   N9        1.0  0.88621  0.37610  0.40824  1.0000
  N   N10       1.0  0.11379  0.87610  0.09176  1.0000
  N   N11       1.0  0.11379  0.62390  0.59176  1.0000
  N   N12       1.0  0.88621  0.12390  0.90824  1.0000
  O   O1        1.0  0.72761  0.45770  0.48327  1.0000
  O   O2        1.0  0.27239  0.95770  0.01673  1.0000
  O   O3        1.0  0.27239  0.54230  0.51673  1.0000
  O   O4        1.0  0.72761  0.04230  0.98327  1.0000
  O   O5        1.0  0.71268  0.56610  0.57294  1.0000
  O   O6        1.0  0.28732  0.06610  0.92706  1.0000
  O   O7        1.0  0.28732  0.43390  0.42706  1.0000
  O   O8        1.0  0.71268  0.93390  0.07294  1.0000
  O   O9        1.0  0.71094  0.01530  0.46220  1.0000
  O   O10       1.0  0.28906  0.51530  0.03780  1.0000
  O   O11       1.0  0.28906  0.98470  0.53780  1.0000
  O   O12       1.0  0.71094  0.48470  0.96220  1.0000
  O   O13       1.0  0.70714  0.87380  0.54295  1.0000
  O   O14       1.0  0.29286  0.37380  0.95705  1.0000
  O   O15       1.0  0.29286  0.12620  0.45705  1.0000
  O   O16       1.0  0.70714  0.62620  0.04295  1.0000
  O   O17       1.0  0.56548  0.28390  0.41377  1.0000
  O   O18       1.0  0.43452  0.78390  0.08623  1.0000
  O   O19       1.0  0.43452  0.71610  0.58623  1.0000
  O   O20       1.0  0.56548  0.21610  0.91377  1.0000
  O   O21       1.0  0.41433  0.23450  0.36668  1.0000
  O   O22       1.0  0.58567  0.73450  0.13332  1.0000
  O   O23       1.0  0.58567  0.76550  0.63332  1.0000
  O   O24       1.0  0.41433  0.26550  0.86668  1.0000
  O   O25       1.0  0.82278  0.11170  0.35283  1.0000
  O   O26       1.0  0.17722  0.61170  0.14717  1.0000
  O   O27       1.0  0.17722  0.88830  0.64717  1.0000
  O   O28       1.0  0.82278  0.38830  0.85283  1.0000
  O   O29       1.0  0.81909  0.96630  0.27281  1.0000
  O   O30       1.0  0.18091  0.46630  0.22719  1.0000
  O   O31       1.0  0.18091  0.03370  0.72719  1.0000
  O   O32       1.0  0.81909  0.53370  0.77281  1.0000
  O   O33       1.0  0.71170  0.40460  0.33299  1.0000
  O   O34       1.0  0.28830  0.90460  0.16701  1.0000
  O   O35       1.0  0.28830  0.59540  0.66701  1.0000
  O   O36       1.0  0.71170  0.09540  0.83299  1.0000
  O   O37       1.0  0.76933  0.53320  0.26366  1.0000
  O   O38       1.0  0.23067  0.03320  0.23634  1.0000
  O   O39       1.0  0.23067  0.46680  0.73634  1.0000
  O   O40       1.0  0.76933  0.96680  0.76366  1.0000
  O   O41       1.0  0.89085  0.21900  0.51005  1.0000
  O   O42       1.0  0.10915  0.71900  0.98995  1.0000
  O   O43       1.0  0.10915  0.78100  0.48995  1.0000
  O   O44       1.0  0.89085  0.28100  0.01005  1.0000
  O   O45       1.0  0.04740  0.25420  0.54655  1.0000
  O   O46       1.0  0.95260  0.75420  0.95345  1.0000
  O   O47       1.0  0.95260  0.74580  0.45345  1.0000
  O   O48       1.0  0.04740  0.24580  0.04655  1.0000
  O   O49       1.0  0.80270  0.75310  0.68838  1.0000
  O   O50       1.0  0.19730  0.25310  0.81162  1.0000
  O   O51       1.0  0.19730  0.24690  0.31162  1.0000
  O   O52       1.0  0.80270  0.74690  0.18838  1.0000
  Bi  Bi1       1.0  0.73938  0.24865  0.42497  1.0000
  Bi  Bi2       1.0  0.26062  0.74865  0.07503  1.0000
  Bi  Bi3       1.0  0.26062  0.75135  0.57503  1.0000
  Bi  Bi4       1.0  0.73938  0.25135  0.92497  1.0000
  Li  Li1       1.0  0.70350  0.73950  0.60770  1.0000
  Li  Li2       1.0  0.29650  0.23950  0.89230  1.0000
  Li  Li3       1.0  0.29650  0.26050  0.39230  1.0000
  Li  Li4       1.0  0.70350  0.76050  0.10770  1.0000
  H   H37       1.0  0.80200  0.69000  0.71000  1.0000
  H   H38       1.0  0.19800  0.19000  0.79000  1.0000
  H   H39       1.0  0.19800  0.31000  0.29000  1.0000
  H   H40       1.0  0.80200  0.81000  0.21000  1.0000
  H   H41       1.0  0.80000  0.81300  0.71300  1.0000
  H   H42       1.0  0.20000  0.31300  0.78700  1.0000
  H   H43       1.0  0.20000  0.18700  0.28700  1.0000
  H   H44       1.0  0.80000  0.68700  0.21300  1.0000
