data_image0
_chemical_formula_structural       Zn12S6O60C36H12C12H12C12H12C24H12C24H12C12H12C24H12C12H12C18H6C12H12C24H12C12H12C24H12C24H12C24H12C12
_chemical_formula_sum              "Zn12 S6 O60 C306 H174"
_cell_length_a       24.057
_cell_length_b       24.057
_cell_length_c       26.996
_cell_angle_alpha    90
_cell_angle_beta     90
_cell_angle_gamma    120

_space_group_name_H-M_alt    "P 1"
_space_group_IT_number       1

loop_
  _space_group_symop_operation_xyz
  'x, y, z'

loop_
  _atom_site_type_symbol
  _atom_site_label
  _atom_site_symmetry_multiplicity
  _atom_site_fract_x
  _atom_site_fract_y
  _atom_site_fract_z
  _atom_site_occupancy
  Zn  Zn1       1.0  0.53463  0.45653  0.02073  1.0000
  Zn  Zn2       1.0  0.07810  0.53463  0.85406  1.0000
  Zn  Zn3       1.0  0.54347  0.07810  0.68739  1.0000
  Zn  Zn4       1.0  0.46537  0.54347  0.52073  1.0000
  Zn  Zn5       1.0  0.92190  0.46537  0.35406  1.0000
  Zn  Zn6       1.0  0.45653  0.92190  0.18739  1.0000
  Zn  Zn7       1.0  0.54347  0.46537  0.14594  1.0000
  Zn  Zn8       1.0  0.07810  0.54347  0.97927  1.0000
  Zn  Zn9       1.0  0.53463  0.07810  0.81261  1.0000
  Zn  Zn10      1.0  0.45653  0.53463  0.64594  1.0000
  Zn  Zn11      1.0  0.92190  0.45653  0.47927  1.0000
  Zn  Zn12      1.0  0.46537  0.92190  0.31261  1.0000
  S   S1        1.0  0.54390  0.54390  0.83330  1.0000
  S   S2        1.0  0.00000  0.54390  0.66663  1.0000
  S   S3        1.0  0.45610  0.00000  0.49997  1.0000
  S   S4        1.0  0.45610  0.45610  0.33330  1.0000
  S   S5        1.0  0.00000  0.45610  0.16663  1.0000
  S   S6        1.0  0.54390  0.00000  0.99997  1.0000
  O   O1        1.0  0.51184  0.43904  0.95077  1.0000
  O   O2        1.0  0.07280  0.51184  0.78410  1.0000
  O   O3        1.0  0.56096  0.07280  0.61744  1.0000
  O   O4        1.0  0.48816  0.56096  0.45077  1.0000
  O   O5        1.0  0.92720  0.48816  0.28410  1.0000
  O   O6        1.0  0.43904  0.92720  0.11744  1.0000
  O   O7        1.0  0.56096  0.48816  0.21590  1.0000
  O   O8        1.0  0.07280  0.56096  0.04923  1.0000
  O   O9        1.0  0.51184  0.07280  0.88256  1.0000
  O   O10       1.0  0.43904  0.51184  0.71590  1.0000
  O   O11       1.0  0.92720  0.43904  0.54923  1.0000
  O   O12       1.0  0.48816  0.92720  0.38256  1.0000
  O   O13       1.0  0.49334  0.36941  0.04965  1.0000
  O   O14       1.0  0.12393  0.49334  0.88298  1.0000
  O   O15       1.0  0.63059  0.12393  0.71632  1.0000
  O   O16       1.0  0.50666  0.63059  0.54965  1.0000
  O   O17       1.0  0.87607  0.50666  0.38298  1.0000
  O   O18       1.0  0.36941  0.87607  0.21632  1.0000
  O   O19       1.0  0.63059  0.50666  0.11702  1.0000
  O   O20       1.0  0.12393  0.63059  0.95035  1.0000
  O   O21       1.0  0.49334  0.12393  0.78368  1.0000
  O   O22       1.0  0.36941  0.49334  0.61702  1.0000
  O   O23       1.0  0.87607  0.36941  0.45035  1.0000
  O   O24       1.0  0.50666  0.87607  0.28368  1.0000
  O   O25       1.0  0.50654  0.37519  0.13014  1.0000
  O   O26       1.0  0.13135  0.50654  0.96347  1.0000
  O   O27       1.0  0.62481  0.13135  0.79681  1.0000
  O   O28       1.0  0.49346  0.62481  0.63014  1.0000
  O   O29       1.0  0.86865  0.49346  0.46347  1.0000
  O   O30       1.0  0.37519  0.86865  0.29681  1.0000
  O   O31       1.0  0.62481  0.49346  0.03653  1.0000
  O   O32       1.0  0.13135  0.62481  0.86986  1.0000
  O   O33       1.0  0.50654  0.13135  0.70319  1.0000
  O   O34       1.0  0.37519  0.50654  0.53653  1.0000
  O   O35       1.0  0.86865  0.37519  0.36986  1.0000
  O   O36       1.0  0.49346  0.86865  0.20319  1.0000
  O   O37       1.0  0.48471  0.49520  0.04318  1.0000
  O   O38       1.0  0.98951  0.48471  0.87651  1.0000
  O   O39       1.0  0.50480  0.98951  0.70985  1.0000
  O   O40       1.0  0.51529  0.50480  0.54318  1.0000
  O   O41       1.0  0.01049  0.51529  0.37651  1.0000
  O   O42       1.0  0.49520  0.01049  0.20985  1.0000
  O   O43       1.0  0.50480  0.51529  0.12349  1.0000
  O   O44       1.0  0.98951  0.50480  0.95682  1.0000
  O   O45       1.0  0.48471  0.98951  0.79015  1.0000
  O   O46       1.0  0.49520  0.48471  0.62349  1.0000
  O   O47       1.0  0.01049  0.49520  0.45682  1.0000
  O   O48       1.0  0.51529  0.01049  0.29015  1.0000
  O   O49       1.0  0.57690  0.54038  0.94039  1.0000
  O   O50       1.0  0.03652  0.57690  0.77372  1.0000
  O   O51       1.0  0.45962  0.03652  0.60706  1.0000
  O   O52       1.0  0.42310  0.45962  0.44039  1.0000
  O   O53       1.0  0.96348  0.42310  0.27372  1.0000
  O   O54       1.0  0.54038  0.96348  0.10706  1.0000
  O   O55       1.0  0.45962  0.42310  0.22628  1.0000
  O   O56       1.0  0.03652  0.45962  0.05961  1.0000
  O   O57       1.0  0.57690  0.03652  0.89294  1.0000
  O   O58       1.0  0.54038  0.57690  0.72628  1.0000
  O   O59       1.0  0.96348  0.54038  0.55961  1.0000
  O   O60       1.0  0.42310  0.96348  0.39294  1.0000
  C   C1        1.0  0.48770  0.34584  0.09106  1.0000
  C   C2        1.0  0.14186  0.48770  0.92439  1.0000
  C   C3        1.0  0.65416  0.14186  0.75773  1.0000
  C   C4        1.0  0.51230  0.65416  0.59106  1.0000
  C   C5        1.0  0.85814  0.51230  0.42439  1.0000
  C   C6        1.0  0.34584  0.85814  0.25773  1.0000
  C   C7        1.0  0.65416  0.51230  0.07561  1.0000
  C   C8        1.0  0.14186  0.65416  0.90894  1.0000
  C   C9        1.0  0.48770  0.14186  0.74227  1.0000
  C   C10       1.0  0.34584  0.48770  0.57561  1.0000
  C   C11       1.0  0.85814  0.34584  0.40894  1.0000
  C   C12       1.0  0.51230  0.85814  0.24227  1.0000
  C   C13       1.0  0.45320  0.27333  0.09428  1.0000
  C   C14       1.0  0.17987  0.45320  0.92761  1.0000
  C   C15       1.0  0.72667  0.17987  0.76095  1.0000
  C   C16       1.0  0.54680  0.72667  0.59428  1.0000
  C   C17       1.0  0.82013  0.54680  0.42761  1.0000
  C   C18       1.0  0.27333  0.82013  0.26095  1.0000
  C   C19       1.0  0.72667  0.54680  0.07239  1.0000
  C   C20       1.0  0.17987  0.72667  0.90572  1.0000
  C   C21       1.0  0.45320  0.17987  0.73905  1.0000
  C   C22       1.0  0.27333  0.45320  0.57239  1.0000
  C   C23       1.0  0.82013  0.27333  0.40572  1.0000
  C   C24       1.0  0.54680  0.82013  0.23905  1.0000
  C   C25       1.0  0.42618  0.23695  0.05099  1.0000
  C   C26       1.0  0.18923  0.42618  0.88432  1.0000
  C   C27       1.0  0.76305  0.18923  0.71766  1.0000
  C   C28       1.0  0.57382  0.76305  0.55099  1.0000
  C   C29       1.0  0.81077  0.57382  0.38432  1.0000
  C   C30       1.0  0.23695  0.81077  0.21766  1.0000
  C   C31       1.0  0.76305  0.57382  0.11568  1.0000
  C   C32       1.0  0.18923  0.76305  0.94901  1.0000
  C   C33       1.0  0.42618  0.18923  0.78234  1.0000
  C   C34       1.0  0.23695  0.42618  0.61568  1.0000
  C   C35       1.0  0.81077  0.23695  0.44901  1.0000
  C   C36       1.0  0.57382  0.81077  0.28234  1.0000
  H   H1        1.0  0.43070  0.25750  0.02090  1.0000
  H   H2        1.0  0.17320  0.43070  0.85423  1.0000
  H   H3        1.0  0.74250  0.17320  0.68757  1.0000
  H   H4        1.0  0.56930  0.74250  0.52090  1.0000
  H   H5        1.0  0.82680  0.56930  0.35423  1.0000
  H   H6        1.0  0.25750  0.82680  0.18757  1.0000
  H   H7        1.0  0.74250  0.56930  0.14577  1.0000
  H   H8        1.0  0.17320  0.74250  0.97910  1.0000
  H   H9        1.0  0.43070  0.17320  0.81243  1.0000
  H   H10       1.0  0.25750  0.43070  0.64577  1.0000
  H   H11       1.0  0.82680  0.25750  0.47910  1.0000
  H   H12       1.0  0.56930  0.82680  0.31243  1.0000
  C   C37       1.0  0.44580  0.24208  0.13816  1.0000
  C   C38       1.0  0.20372  0.44580  0.97149  1.0000
  C   C39       1.0  0.75792  0.20372  0.80483  1.0000
  C   C40       1.0  0.55420  0.75792  0.63816  1.0000
  C   C41       1.0  0.79628  0.55420  0.47149  1.0000
  C   C42       1.0  0.24208  0.79628  0.30483  1.0000
  C   C43       1.0  0.75792  0.55420  0.02851  1.0000
  C   C44       1.0  0.20372  0.75792  0.86184  1.0000
  C   C45       1.0  0.44580  0.20372  0.69517  1.0000
  C   C46       1.0  0.24208  0.44580  0.52851  1.0000
  C   C47       1.0  0.79628  0.24208  0.36184  1.0000
  C   C48       1.0  0.55420  0.79628  0.19517  1.0000
  H   H13       1.0  0.46310  0.26550  0.16710  1.0000
  H   H14       1.0  0.19760  0.46310  0.00043  1.0000
  H   H15       1.0  0.73450  0.19760  0.83377  1.0000
  H   H16       1.0  0.53690  0.73450  0.66710  1.0000
  H   H17       1.0  0.80240  0.53690  0.50043  1.0000
  H   H18       1.0  0.26550  0.80240  0.33377  1.0000
  H   H19       1.0  0.73450  0.53690  0.99957  1.0000
  H   H20       1.0  0.19760  0.73450  0.83290  1.0000
  H   H21       1.0  0.46310  0.19760  0.66623  1.0000
  H   H22       1.0  0.26550  0.46310  0.49957  1.0000
  H   H23       1.0  0.80240  0.26550  0.33290  1.0000
  H   H24       1.0  0.53690  0.80240  0.16623  1.0000
  C   C49       1.0  0.41248  0.17550  0.13970  1.0000
  C   C50       1.0  0.23698  0.41248  0.97303  1.0000
  C   C51       1.0  0.82450  0.23698  0.80637  1.0000
  C   C52       1.0  0.58752  0.82450  0.63970  1.0000
  C   C53       1.0  0.76302  0.58752  0.47303  1.0000
  C   C54       1.0  0.17550  0.76302  0.30637  1.0000
  C   C55       1.0  0.82450  0.58752  0.02697  1.0000
  C   C56       1.0  0.23698  0.82450  0.86030  1.0000
  C   C57       1.0  0.41248  0.23698  0.69363  1.0000
  C   C58       1.0  0.17550  0.41248  0.52697  1.0000
  C   C59       1.0  0.76302  0.17550  0.36030  1.0000
  C   C60       1.0  0.58752  0.76302  0.19363  1.0000
  H   H25       1.0  0.40940  0.15480  0.16950  1.0000
  H   H26       1.0  0.25460  0.40940  0.00283  1.0000
  H   H27       1.0  0.84520  0.25460  0.83617  1.0000
  H   H28       1.0  0.59060  0.84520  0.66950  1.0000
  H   H29       1.0  0.74540  0.59060  0.50283  1.0000
  H   H30       1.0  0.15480  0.74540  0.33617  1.0000
  H   H31       1.0  0.84520  0.59060  0.99717  1.0000
  H   H32       1.0  0.25460  0.84520  0.83050  1.0000
  H   H33       1.0  0.40940  0.25460  0.66383  1.0000
  H   H34       1.0  0.15480  0.40940  0.49717  1.0000
  H   H35       1.0  0.74540  0.15480  0.33050  1.0000
  H   H36       1.0  0.59060  0.74540  0.16383  1.0000
  C   C61       1.0  0.38370  0.13940  0.09776  1.0000
  C   C62       1.0  0.24430  0.38370  0.93109  1.0000
  C   C63       1.0  0.86060  0.24430  0.76443  1.0000
  C   C64       1.0  0.61630  0.86060  0.59776  1.0000
  C   C65       1.0  0.75570  0.61630  0.43109  1.0000
  C   C66       1.0  0.13940  0.75570  0.26443  1.0000
  C   C67       1.0  0.86060  0.61630  0.06891  1.0000
  C   C68       1.0  0.24430  0.86060  0.90224  1.0000
  C   C69       1.0  0.38370  0.24430  0.73557  1.0000
  C   C70       1.0  0.13940  0.38370  0.56891  1.0000
  C   C71       1.0  0.75570  0.13940  0.40224  1.0000
  C   C72       1.0  0.61630  0.75570  0.23557  1.0000
  C   C73       1.0  0.39360  0.17184  0.05329  1.0000
  C   C74       1.0  0.22176  0.39360  0.88662  1.0000
  C   C75       1.0  0.82816  0.22176  0.71996  1.0000
  C   C76       1.0  0.60640  0.82816  0.55329  1.0000
  C   C77       1.0  0.77824  0.60640  0.38662  1.0000
  C   C78       1.0  0.17184  0.77824  0.21996  1.0000
  C   C79       1.0  0.82816  0.60640  0.11338  1.0000
  C   C80       1.0  0.22176  0.82816  0.94671  1.0000
  C   C81       1.0  0.39360  0.22176  0.78004  1.0000
  C   C82       1.0  0.17184  0.39360  0.61338  1.0000
  C   C83       1.0  0.77824  0.17184  0.44671  1.0000
  C   C84       1.0  0.60640  0.77824  0.28004  1.0000
  H   H37       1.0  0.37750  0.14840  0.02420  1.0000
  H   H38       1.0  0.22910  0.37750  0.85753  1.0000
  H   H39       1.0  0.85160  0.22910  0.69087  1.0000
  H   H40       1.0  0.62250  0.85160  0.52420  1.0000
  H   H41       1.0  0.77090  0.62250  0.35753  1.0000
  H   H42       1.0  0.14840  0.77090  0.19087  1.0000
  H   H43       1.0  0.85160  0.62250  0.14247  1.0000
  H   H44       1.0  0.22910  0.85160  0.97580  1.0000
  H   H45       1.0  0.37750  0.22910  0.80913  1.0000
  H   H46       1.0  0.14840  0.37750  0.64247  1.0000
  H   H47       1.0  0.77090  0.14840  0.47580  1.0000
  H   H48       1.0  0.62250  0.77090  0.30913  1.0000
  C   C85       1.0  0.34415  0.06780  0.09920  1.0000
  C   C86       1.0  0.27635  0.34415  0.93253  1.0000
  C   C87       1.0  0.93220  0.27635  0.76587  1.0000
  C   C88       1.0  0.65585  0.93220  0.59920  1.0000
  C   C89       1.0  0.72365  0.65585  0.43253  1.0000
  C   C90       1.0  0.06780  0.72365  0.26587  1.0000
  C   C91       1.0  0.93220  0.65585  0.06747  1.0000
  C   C92       1.0  0.27635  0.93220  0.90080  1.0000
  C   C93       1.0  0.34415  0.27635  0.73413  1.0000
  C   C94       1.0  0.06780  0.34415  0.56747  1.0000
  C   C95       1.0  0.72365  0.06780  0.40080  1.0000
  C   C96       1.0  0.65585  0.72365  0.23413  1.0000
  C   C97       1.0  0.36143  0.03123  0.12795  1.0000
  C   C98       1.0  0.33020  0.36143  0.96128  1.0000
  C   C99       1.0  0.96877  0.33020  0.79462  1.0000
  C   C100      1.0  0.63857  0.96877  0.62795  1.0000
  C   C101      1.0  0.66980  0.63857  0.46128  1.0000
  C   C102      1.0  0.03123  0.66980  0.29462  1.0000
  C   C103      1.0  0.96877  0.63857  0.03872  1.0000
  C   C104      1.0  0.33020  0.96877  0.87205  1.0000
  C   C105      1.0  0.36143  0.33020  0.70538  1.0000
  C   C106      1.0  0.03123  0.36143  0.53872  1.0000
  C   C107      1.0  0.66980  0.03123  0.37205  1.0000
  C   C108      1.0  0.63857  0.66980  0.20538  1.0000
  H   H49       1.0  0.39660  0.05120  0.14900  1.0000
  H   H50       1.0  0.34540  0.39660  0.98233  1.0000
  H   H51       1.0  0.94880  0.34540  0.81567  1.0000
  H   H52       1.0  0.60340  0.94880  0.64900  1.0000
  H   H53       1.0  0.65460  0.60340  0.48233  1.0000
  H   H54       1.0  0.05120  0.65460  0.31567  1.0000
  H   H55       1.0  0.94880  0.60340  0.01767  1.0000
  H   H56       1.0  0.34540  0.94880  0.85100  1.0000
  H   H57       1.0  0.39660  0.34540  0.68433  1.0000
  H   H58       1.0  0.05120  0.39660  0.51767  1.0000
  H   H59       1.0  0.65460  0.05120  0.35100  1.0000
  H   H60       1.0  0.60340  0.65460  0.18433  1.0000
  C   C109      1.0  0.32598  0.96419  0.12539  1.0000
  C   C110      1.0  0.36179  0.32598  0.95872  1.0000
  C   C111      1.0  0.03581  0.36179  0.79206  1.0000
  C   C112      1.0  0.67402  0.03581  0.62539  1.0000
  C   C113      1.0  0.63821  0.67402  0.45872  1.0000
  C   C114      1.0  0.96419  0.63821  0.29206  1.0000
  C   C115      1.0  0.03581  0.67402  0.04128  1.0000
  C   C116      1.0  0.36179  0.03581  0.87461  1.0000
  C   C117      1.0  0.32598  0.36179  0.70794  1.0000
  C   C118      1.0  0.96419  0.32598  0.54128  1.0000
  C   C119      1.0  0.63821  0.96419  0.37461  1.0000
  C   C120      1.0  0.67402  0.63821  0.20794  1.0000
  H   H61       1.0  0.33790  0.94020  0.14520  1.0000
  H   H62       1.0  0.39770  0.33790  0.97853  1.0000
  H   H63       1.0  0.05980  0.39770  0.81187  1.0000
  H   H64       1.0  0.66210  0.05980  0.64520  1.0000
  H   H65       1.0  0.60230  0.66210  0.47853  1.0000
  H   H66       1.0  0.94020  0.60230  0.31187  1.0000
  H   H67       1.0  0.05980  0.66210  0.02147  1.0000
  H   H68       1.0  0.39770  0.05980  0.85480  1.0000
  H   H69       1.0  0.33790  0.39770  0.68813  1.0000
  H   H70       1.0  0.94020  0.33790  0.52147  1.0000
  H   H71       1.0  0.60230  0.94020  0.35480  1.0000
  H   H72       1.0  0.66210  0.60230  0.18813  1.0000
  C   C121      1.0  0.27373  0.93264  0.09423  1.0000
  C   C122      1.0  0.34109  0.27373  0.92756  1.0000
  C   C123      1.0  0.06736  0.34109  0.76090  1.0000
  C   C124      1.0  0.72627  0.06736  0.59423  1.0000
  C   C125      1.0  0.65891  0.72627  0.42756  1.0000
  C   C126      1.0  0.93264  0.65891  0.26090  1.0000
  C   C127      1.0  0.06736  0.72627  0.07244  1.0000
  C   C128      1.0  0.34109  0.06736  0.90577  1.0000
  C   C129      1.0  0.27373  0.34109  0.73910  1.0000
  C   C130      1.0  0.93264  0.27373  0.57244  1.0000
  C   C131      1.0  0.65891  0.93264  0.40577  1.0000
  C   C132      1.0  0.72627  0.65891  0.23910  1.0000
  C   C133      1.0  0.25564  0.96995  0.06694  1.0000
  C   C134      1.0  0.28569  0.25564  0.90027  1.0000
  C   C135      1.0  0.03005  0.28569  0.73361  1.0000
  C   C136      1.0  0.74436  0.03005  0.56694  1.0000
  C   C137      1.0  0.71431  0.74436  0.40027  1.0000
  C   C138      1.0  0.96995  0.71431  0.23361  1.0000
  C   C139      1.0  0.03005  0.74436  0.09973  1.0000
  C   C140      1.0  0.28569  0.03005  0.93306  1.0000
  C   C141      1.0  0.25564  0.28569  0.76639  1.0000
  C   C142      1.0  0.96995  0.25564  0.59973  1.0000
  C   C143      1.0  0.71431  0.96995  0.43306  1.0000
  C   C144      1.0  0.74436  0.71431  0.26639  1.0000
  H   H73       1.0  0.21970  0.95000  0.04660  1.0000
  H   H74       1.0  0.26970  0.21970  0.87993  1.0000
  H   H75       1.0  0.05000  0.26970  0.71327  1.0000
  H   H76       1.0  0.78030  0.05000  0.54660  1.0000
  H   H77       1.0  0.73030  0.78030  0.37993  1.0000
  H   H78       1.0  0.95000  0.73030  0.21327  1.0000
  H   H79       1.0  0.05000  0.78030  0.12007  1.0000
  H   H80       1.0  0.26970  0.05000  0.95340  1.0000
  H   H81       1.0  0.21970  0.26970  0.78673  1.0000
  H   H82       1.0  0.95000  0.21970  0.62007  1.0000
  H   H83       1.0  0.73030  0.95000  0.45340  1.0000
  H   H84       1.0  0.78030  0.73030  0.28673  1.0000
  C   C145      1.0  0.29003  0.03602  0.06944  1.0000
  C   C146      1.0  0.25401  0.29003  0.90277  1.0000
  C   C147      1.0  0.96398  0.25401  0.73611  1.0000
  C   C148      1.0  0.70997  0.96398  0.56944  1.0000
  C   C149      1.0  0.74599  0.70997  0.40277  1.0000
  C   C150      1.0  0.03602  0.74599  0.23611  1.0000
  C   C151      1.0  0.96398  0.70997  0.09723  1.0000
  C   C152      1.0  0.25401  0.96398  0.93056  1.0000
  C   C153      1.0  0.29003  0.25401  0.76389  1.0000
  C   C154      1.0  0.03602  0.29003  0.59723  1.0000
  C   C155      1.0  0.74599  0.03602  0.43056  1.0000
  C   C156      1.0  0.70997  0.74599  0.26389  1.0000
  H   H85       1.0  0.27670  0.05980  0.05080  1.0000
  H   H86       1.0  0.21690  0.27670  0.88413  1.0000
  H   H87       1.0  0.94020  0.21690  0.71747  1.0000
  H   H88       1.0  0.72330  0.94020  0.55080  1.0000
  H   H89       1.0  0.78310  0.72330  0.38413  1.0000
  H   H90       1.0  0.05980  0.78310  0.21747  1.0000
  H   H91       1.0  0.94020  0.72330  0.11587  1.0000
  H   H92       1.0  0.21690  0.94020  0.94920  1.0000
  H   H93       1.0  0.27670  0.21690  0.78253  1.0000
  H   H94       1.0  0.05980  0.27670  0.61587  1.0000
  H   H95       1.0  0.78310  0.05980  0.44920  1.0000
  H   H96       1.0  0.72330  0.78310  0.28253  1.0000
  C   C157      1.0  0.23843  0.86207  0.08916  1.0000
  C   C158      1.0  0.37636  0.23843  0.92249  1.0000
  C   C159      1.0  0.13793  0.37636  0.75583  1.0000
  C   C160      1.0  0.76157  0.13793  0.58916  1.0000
  C   C161      1.0  0.62364  0.76157  0.42249  1.0000
  C   C162      1.0  0.86207  0.62364  0.25583  1.0000
  C   C163      1.0  0.13793  0.76157  0.07751  1.0000
  C   C164      1.0  0.37636  0.13793  0.91084  1.0000
  C   C165      1.0  0.23843  0.37636  0.74417  1.0000
  C   C166      1.0  0.86207  0.23843  0.57751  1.0000
  C   C167      1.0  0.62364  0.86207  0.41084  1.0000
  C   C168      1.0  0.76157  0.62364  0.24417  1.0000
  C   C169      1.0  0.17178  0.82822  0.08330  1.0000
  C   C170      1.0  0.34356  0.17178  0.91663  1.0000
  C   C171      1.0  0.17178  0.34356  0.74997  1.0000
  C   C172      1.0  0.82822  0.17178  0.58330  1.0000
  C   C173      1.0  0.65644  0.82822  0.41663  1.0000
  C   C174      1.0  0.82822  0.65644  0.24997  1.0000
  H   H97       1.0  0.14950  0.85050  0.08330  1.0000
  H   H98       1.0  0.29900  0.14950  0.91663  1.0000
  H   H99       1.0  0.14950  0.29900  0.74997  1.0000
  H   H100      1.0  0.85050  0.14950  0.58330  1.0000
  H   H101      1.0  0.70100  0.85050  0.41663  1.0000
  H   H102      1.0  0.85050  0.70100  0.24997  1.0000
  C   C175      1.0  0.27162  0.82833  0.08888  1.0000
  C   C176      1.0  0.44329  0.27162  0.92221  1.0000
  C   C177      1.0  0.17167  0.44329  0.75555  1.0000
  C   C178      1.0  0.72838  0.17167  0.58888  1.0000
  C   C179      1.0  0.55671  0.72838  0.42221  1.0000
  C   C180      1.0  0.82833  0.55671  0.25555  1.0000
  C   C181      1.0  0.17167  0.72838  0.07779  1.0000
  C   C182      1.0  0.44329  0.17167  0.91112  1.0000
  C   C183      1.0  0.27162  0.44329  0.74445  1.0000
  C   C184      1.0  0.82833  0.27162  0.57779  1.0000
  C   C185      1.0  0.55671  0.82833  0.41112  1.0000
  C   C186      1.0  0.72838  0.55671  0.24445  1.0000
  H   H103      1.0  0.31600  0.85040  0.09240  1.0000
  H   H104      1.0  0.46560  0.31600  0.92573  1.0000
  H   H105      1.0  0.14960  0.46560  0.75907  1.0000
  H   H106      1.0  0.68400  0.14960  0.59240  1.0000
  H   H107      1.0  0.53440  0.68400  0.42573  1.0000
  H   H108      1.0  0.85040  0.53440  0.25907  1.0000
  H   H109      1.0  0.14960  0.68400  0.07427  1.0000
  H   H110      1.0  0.46560  0.14960  0.90760  1.0000
  H   H111      1.0  0.31600  0.46560  0.74093  1.0000
  H   H112      1.0  0.85040  0.31600  0.57427  1.0000
  H   H113      1.0  0.53440  0.85040  0.40760  1.0000
  H   H114      1.0  0.68400  0.53440  0.24093  1.0000
  C   C187      1.0  0.23855  0.76145  0.08330  1.0000
  C   C188      1.0  0.47710  0.23855  0.91663  1.0000
  C   C189      1.0  0.23855  0.47710  0.74997  1.0000
  C   C190      1.0  0.76145  0.23855  0.58330  1.0000
  C   C191      1.0  0.52290  0.76145  0.41663  1.0000
  C   C192      1.0  0.76145  0.52290  0.24997  1.0000
  C   C193      1.0  0.27450  0.72550  0.08330  1.0000
  C   C194      1.0  0.54900  0.27450  0.91663  1.0000
  C   C195      1.0  0.27450  0.54900  0.74997  1.0000
  C   C196      1.0  0.72550  0.27450  0.58330  1.0000
  C   C197      1.0  0.45100  0.72550  0.41663  1.0000
  C   C198      1.0  0.72550  0.45100  0.24997  1.0000
  C   C199      1.0  0.33013  0.74699  0.11080  1.0000
  C   C200      1.0  0.58314  0.33013  0.94413  1.0000
  C   C201      1.0  0.25301  0.58314  0.77747  1.0000
  C   C202      1.0  0.66987  0.25301  0.61080  1.0000
  C   C203      1.0  0.41686  0.66987  0.44413  1.0000
  C   C204      1.0  0.74699  0.41686  0.27747  1.0000
  C   C205      1.0  0.25301  0.66987  0.05587  1.0000
  C   C206      1.0  0.58314  0.25301  0.88920  1.0000
  C   C207      1.0  0.33013  0.58314  0.72253  1.0000
  C   C208      1.0  0.74699  0.33013  0.55587  1.0000
  C   C209      1.0  0.41686  0.74699  0.38920  1.0000
  C   C210      1.0  0.66987  0.41686  0.22253  1.0000
  H   H115      1.0  0.34550  0.78420  0.12960  1.0000
  H   H116      1.0  0.56130  0.34550  0.96293  1.0000
  H   H117      1.0  0.21580  0.56130  0.79627  1.0000
  H   H118      1.0  0.65450  0.21580  0.62960  1.0000
  H   H119      1.0  0.43870  0.65450  0.46293  1.0000
  H   H120      1.0  0.78420  0.43870  0.29627  1.0000
  H   H121      1.0  0.21580  0.65450  0.03707  1.0000
  H   H122      1.0  0.56130  0.21580  0.87040  1.0000
  H   H123      1.0  0.34550  0.56130  0.70373  1.0000
  H   H124      1.0  0.78420  0.34550  0.53707  1.0000
  H   H125      1.0  0.43870  0.78420  0.37040  1.0000
  H   H126      1.0  0.65450  0.43870  0.20373  1.0000
  C   C211      1.0  0.36340  0.71332  0.11057  1.0000
  C   C212      1.0  0.65008  0.36340  0.94390  1.0000
  C   C213      1.0  0.28668  0.65008  0.77724  1.0000
  C   C214      1.0  0.63660  0.28668  0.61057  1.0000
  C   C215      1.0  0.34992  0.63660  0.44390  1.0000
  C   C216      1.0  0.71332  0.34992  0.27724  1.0000
  C   C217      1.0  0.28668  0.63660  0.05610  1.0000
  C   C218      1.0  0.65008  0.28668  0.88943  1.0000
  C   C219      1.0  0.36340  0.65008  0.72276  1.0000
  C   C220      1.0  0.71332  0.36340  0.55610  1.0000
  C   C221      1.0  0.34992  0.71332  0.38943  1.0000
  C   C222      1.0  0.63660  0.34992  0.22276  1.0000
  H   H127      1.0  0.40070  0.72860  0.12920  1.0000
  H   H128      1.0  0.67210  0.40070  0.96253  1.0000
  H   H129      1.0  0.27140  0.67210  0.79587  1.0000
  H   H130      1.0  0.59930  0.27140  0.62920  1.0000
  H   H131      1.0  0.32790  0.59930  0.46253  1.0000
  H   H132      1.0  0.72860  0.32790  0.29587  1.0000
  H   H133      1.0  0.27140  0.59930  0.03747  1.0000
  H   H134      1.0  0.67210  0.27140  0.87080  1.0000
  H   H135      1.0  0.40070  0.67210  0.70413  1.0000
  H   H136      1.0  0.72860  0.40070  0.53747  1.0000
  H   H137      1.0  0.32790  0.72860  0.37080  1.0000
  H   H138      1.0  0.59930  0.32790  0.20413  1.0000
  C   C223      1.0  0.34212  0.65788  0.08330  1.0000
  C   C224      1.0  0.68424  0.34212  0.91663  1.0000
  C   C225      1.0  0.34212  0.68424  0.74997  1.0000
  C   C226      1.0  0.65788  0.34212  0.58330  1.0000
  C   C227      1.0  0.31576  0.65788  0.41663  1.0000
  C   C228      1.0  0.65788  0.31576  0.24997  1.0000
  C   C229      1.0  0.37772  0.62228  0.08330  1.0000
  C   C230      1.0  0.75544  0.37772  0.91663  1.0000
  C   C231      1.0  0.37772  0.75544  0.74997  1.0000
  C   C232      1.0  0.62228  0.37772  0.58330  1.0000
  C   C233      1.0  0.24456  0.62228  0.41663  1.0000
  C   C234      1.0  0.62228  0.24456  0.24997  1.0000
  C   C235      1.0  0.41267  0.62256  0.12458  1.0000
  C   C236      1.0  0.79011  0.41267  0.95791  1.0000
  C   C237      1.0  0.37744  0.79011  0.79125  1.0000
  C   C238      1.0  0.58733  0.37744  0.62458  1.0000
  C   C239      1.0  0.20989  0.58733  0.45791  1.0000
  C   C240      1.0  0.62256  0.20989  0.29125  1.0000
  C   C241      1.0  0.37744  0.58733  0.04209  1.0000
  C   C242      1.0  0.79011  0.37744  0.87542  1.0000
  C   C243      1.0  0.41267  0.79011  0.70875  1.0000
  C   C244      1.0  0.62256  0.41267  0.54209  1.0000
  C   C245      1.0  0.20989  0.62256  0.37542  1.0000
  C   C246      1.0  0.58733  0.20989  0.20875  1.0000
  H   H139      1.0  0.41380  0.64610  0.15230  1.0000
  H   H140      1.0  0.76770  0.41380  0.98563  1.0000
  H   H141      1.0  0.35390  0.76770  0.81897  1.0000
  H   H142      1.0  0.58620  0.35390  0.65230  1.0000
  H   H143      1.0  0.23230  0.58620  0.48563  1.0000
  H   H144      1.0  0.64610  0.23230  0.31897  1.0000
  H   H145      1.0  0.35390  0.58620  0.01437  1.0000
  H   H146      1.0  0.76770  0.35390  0.84770  1.0000
  H   H147      1.0  0.41380  0.76770  0.68103  1.0000
  H   H148      1.0  0.64610  0.41380  0.51437  1.0000
  H   H149      1.0  0.23230  0.64610  0.34770  1.0000
  H   H150      1.0  0.58620  0.23230  0.18103  1.0000
  C   C247      1.0  0.48159  0.51841  0.08330  1.0000
  C   C248      1.0  0.96318  0.48159  0.91663  1.0000
  C   C249      1.0  0.48159  0.96318  0.74997  1.0000
  C   C250      1.0  0.51841  0.48159  0.58330  1.0000
  C   C251      1.0  0.03682  0.51841  0.41663  1.0000
  C   C252      1.0  0.51841  0.03682  0.24997  1.0000
  C   C253      1.0  0.44576  0.55424  0.08330  1.0000
  C   C254      1.0  0.89152  0.44576  0.91663  1.0000
  C   C255      1.0  0.44576  0.89152  0.74997  1.0000
  C   C256      1.0  0.55424  0.44576  0.58330  1.0000
  C   C257      1.0  0.10848  0.55424  0.41663  1.0000
  C   C258      1.0  0.55424  0.10848  0.24997  1.0000
  C   C259      1.0  0.44591  0.58901  0.12588  1.0000
  C   C260      1.0  0.85690  0.44591  0.95921  1.0000
  C   C261      1.0  0.41099  0.85690  0.79255  1.0000
  C   C262      1.0  0.55409  0.41099  0.62588  1.0000
  C   C263      1.0  0.14310  0.55409  0.45921  1.0000
  C   C264      1.0  0.58901  0.14310  0.29255  1.0000
  C   C265      1.0  0.41099  0.55409  0.04079  1.0000
  C   C266      1.0  0.85690  0.41099  0.87412  1.0000
  C   C267      1.0  0.44591  0.85690  0.70745  1.0000
  C   C268      1.0  0.58901  0.44591  0.54079  1.0000
  C   C269      1.0  0.14310  0.58901  0.37412  1.0000
  C   C270      1.0  0.55409  0.14310  0.20745  1.0000
  H   H151      1.0  0.46800  0.58940  0.15430  1.0000
  H   H152      1.0  0.87860  0.46800  0.98763  1.0000
  H   H153      1.0  0.41060  0.87860  0.82097  1.0000
  H   H154      1.0  0.53200  0.41060  0.65430  1.0000
  H   H155      1.0  0.12140  0.53200  0.48763  1.0000
  H   H156      1.0  0.58940  0.12140  0.32097  1.0000
  H   H157      1.0  0.41060  0.53200  0.01237  1.0000
  H   H158      1.0  0.87860  0.41060  0.84570  1.0000
  H   H159      1.0  0.46800  0.87860  0.67903  1.0000
  H   H160      1.0  0.58940  0.46800  0.51237  1.0000
  H   H161      1.0  0.12140  0.58940  0.34570  1.0000
  H   H162      1.0  0.53200  0.12140  0.17903  1.0000
  C   C271      1.0  0.50502  0.48319  0.87528  1.0000
  C   C272      1.0  0.02183  0.50502  0.70861  1.0000
  C   C273      1.0  0.51681  0.02183  0.54195  1.0000
  C   C274      1.0  0.49498  0.51681  0.37528  1.0000
  C   C275      1.0  0.97817  0.49498  0.20861  1.0000
  C   C276      1.0  0.48319  0.97817  0.04195  1.0000
  C   C277      1.0  0.51681  0.49498  0.29139  1.0000
  C   C278      1.0  0.02183  0.51681  0.12472  1.0000
  C   C279      1.0  0.50502  0.02183  0.95805  1.0000
  C   C280      1.0  0.48319  0.50502  0.79139  1.0000
  C   C281      1.0  0.97817  0.48319  0.62472  1.0000
  C   C282      1.0  0.49498  0.97817  0.45805  1.0000
  C   C283      1.0  0.44964  0.43649  0.85602  1.0000
  C   C284      1.0  0.01315  0.44964  0.68935  1.0000
  C   C285      1.0  0.56351  0.01315  0.52269  1.0000
  C   C286      1.0  0.55036  0.56351  0.35602  1.0000
  C   C287      1.0  0.98685  0.55036  0.18935  1.0000
  C   C288      1.0  0.43649  0.98685  0.02269  1.0000
  C   C289      1.0  0.56351  0.55036  0.31065  1.0000
  C   C290      1.0  0.01315  0.56351  0.14398  1.0000
  C   C291      1.0  0.44964  0.01315  0.97731  1.0000
  C   C292      1.0  0.43649  0.44964  0.81065  1.0000
  C   C293      1.0  0.98685  0.43649  0.64398  1.0000
  C   C294      1.0  0.55036  0.98685  0.47731  1.0000
  H   H163      1.0  0.42280  0.39850  0.87270  1.0000
  H   H164      1.0  0.02430  0.42280  0.70603  1.0000
  H   H165      1.0  0.60150  0.02430  0.53937  1.0000
  H   H166      1.0  0.57720  0.60150  0.37270  1.0000
  H   H167      1.0  0.97570  0.57720  0.20603  1.0000
  H   H168      1.0  0.39850  0.97570  0.03937  1.0000
  H   H169      1.0  0.60150  0.57720  0.29397  1.0000
  H   H170      1.0  0.02430  0.60150  0.12730  1.0000
  H   H171      1.0  0.42280  0.02430  0.96063  1.0000
  H   H172      1.0  0.39850  0.42280  0.79397  1.0000
  H   H173      1.0  0.97570  0.39850  0.62730  1.0000
  H   H174      1.0  0.57720  0.97570  0.46063  1.0000
  C   C295      1.0  0.53379  0.48932  0.92589  1.0000
  C   C296      1.0  0.04447  0.53379  0.75922  1.0000
  C   C297      1.0  0.51068  0.04447  0.59256  1.0000
  C   C298      1.0  0.46621  0.51068  0.42589  1.0000
  C   C299      1.0  0.95553  0.46621  0.25922  1.0000
  C   C300      1.0  0.48932  0.95553  0.09256  1.0000
  C   C301      1.0  0.51068  0.46621  0.24078  1.0000
  C   C302      1.0  0.04447  0.51068  0.07411  1.0000
  C   C303      1.0  0.53379  0.04447  0.90744  1.0000
  C   C304      1.0  0.48932  0.53379  0.74078  1.0000
  C   C305      1.0  0.95553  0.48932  0.57411  1.0000
  C   C306      1.0  0.46621  0.95553  0.40744  1.0000
