data_image0
_chemical_formula_structural       Co6N12C2H4C2H4C6H4C2H4C2H4C2H4C2H4C2H4C4H2C2H2C4H2C2H2C6H2C2H2C4H2C2H2C6H2C2H2C4H2C2H2C6H2C2H2C4H2C2H2C6H2C2H2C4H2C2H2C6H2C2H2C4H2C2H2C12H2C2H2C2H2C2H2C4H2C2H2C2H2C2H2C4H2C2H2C2H2C2H2O42
_chemical_formula_sum              "Co6 N12 C140 H104 O42"
_cell_length_a       15.061
_cell_length_b       28.353
_cell_length_c       17.069
_cell_angle_alpha    90
_cell_angle_beta     100.653
_cell_angle_gamma    90

_space_group_name_H-M_alt    "P 1"
_space_group_IT_number       1

loop_
  _space_group_symop_operation_xyz
  'x, y, z'

loop_
  _atom_site_type_symbol
  _atom_site_label
  _atom_site_symmetry_multiplicity
  _atom_site_fract_x
  _atom_site_fract_y
  _atom_site_fract_z
  _atom_site_occupancy
  Co  Co1       1.0  0.47826  0.97005  0.13205  1.0000
  Co  Co2       1.0  0.52174  0.47005  0.86795  1.0000
  Co  Co3       1.0  0.51365  0.56915  0.75924  1.0000
  Co  Co4       1.0  0.48635  0.06915  0.24076  1.0000
  Co  Co5       1.0  0.48533  0.96705  0.34659  1.0000
  Co  Co6       1.0  0.51467  0.46705  0.65341  1.0000
  N   N1        1.0  0.48050  0.88610  0.73910  1.0000
  N   N2        1.0  0.51950  0.38610  0.26090  1.0000
  N   N3        1.0  0.48780  0.81420  0.67360  1.0000
  N   N4        1.0  0.51220  0.31420  0.32640  1.0000
  N   N5        1.0  0.48560  0.81450  0.81150  1.0000
  N   N6        1.0  0.51440  0.31450  0.18850  1.0000
  N   N7        1.0  0.46910  0.93390  0.02070  1.0000
  N   N8        1.0  0.53090  0.43390  0.97930  1.0000
  N   N9        1.0  0.48430  0.93120  0.45780  1.0000
  N   N10       1.0  0.51570  0.43120  0.54220  1.0000
  N   N11       1.0  0.50890  0.64420  0.75360  1.0000
  N   N12       1.0  0.49110  0.14420  0.24640  1.0000
  C   C1        1.0  0.94110  0.66020  0.28710  1.0000
  C   C2        1.0  0.05890  0.16020  0.71290  1.0000
  H   H1        1.0  0.94930  0.62660  0.28080  1.0000
  H   H2        1.0  0.05070  0.12660  0.71920  1.0000
  H   H3        1.0  0.88330  0.66920  0.25540  1.0000
  H   H4        1.0  0.11670  0.16920  0.74460  1.0000
  C   C3        1.0  0.07900  0.65700  0.23530  1.0000
  C   C4        1.0  0.92100  0.15700  0.76470  1.0000
  H   H5        1.0  0.06280  0.62400  0.23750  1.0000
  H   H6        1.0  0.93720  0.12400  0.76250  1.0000
  H   H7        1.0  0.13690  0.66170  0.27020  1.0000
  H   H8        1.0  0.86310  0.16170  0.72980  1.0000
  C   C5        1.0  0.94350  0.67210  0.37530  1.0000
  C   C6        1.0  0.05650  0.17210  0.62470  1.0000
  C   C7        1.0  0.08640  0.67000  0.15100  1.0000
  C   C8        1.0  0.91360  0.17000  0.84900  1.0000
  C   C9        1.0  0.03290  0.66380  0.42540  1.0000
  C   C10       1.0  0.96710  0.16380  0.57460  1.0000
  H   H9        1.0  0.07590  0.68670  0.41290  1.0000
  H   H10       1.0  0.92410  0.18670  0.58710  1.0000
  H   H11       1.0  0.02900  0.66710  0.48120  1.0000
  H   H12       1.0  0.97100  0.16710  0.51880  1.0000
  C   C11       1.0  0.87260  0.63850  0.40170  1.0000
  C   C12       1.0  0.12740  0.13850  0.59830  1.0000
  H   H13       1.0  0.81460  0.64210  0.36650  1.0000
  H   H14       1.0  0.18540  0.14210  0.63350  1.0000
  H   H15       1.0  0.89180  0.60600  0.39930  1.0000
  H   H16       1.0  0.10820  0.10600  0.60070  1.0000
  C   C13       1.0  0.92070  0.72280  0.38760  1.0000
  C   C14       1.0  0.07930  0.22280  0.61240  1.0000
  H   H17       1.0  0.92580  0.72930  0.44410  1.0000
  H   H18       1.0  0.07420  0.22930  0.55590  1.0000
  H   H19       1.0  0.96220  0.74330  0.36670  1.0000
  H   H20       1.0  0.03780  0.24330  0.63330  1.0000
  C   C15       1.0  0.11330  0.71970  0.14490  1.0000
  C   C16       1.0  0.88670  0.21970  0.85510  1.0000
  H   H21       1.0  0.12000  0.72690  0.09070  1.0000
  H   H22       1.0  0.88000  0.22690  0.90930  1.0000
  H   H23       1.0  0.06760  0.74050  0.15920  1.0000
  H   H24       1.0  0.93240  0.24050  0.84080  1.0000
  C   C17       1.0  0.15250  0.63600  0.12560  1.0000
  C   C18       1.0  0.84750  0.13600  0.87440  1.0000
  H   H25       1.0  0.21000  0.63750  0.16210  1.0000
  H   H26       1.0  0.79000  0.13750  0.83790  1.0000
  H   H27       1.0  0.12960  0.60400  0.12550  1.0000
  H   H28       1.0  0.87040  0.10400  0.87450  1.0000
  C   C19       1.0  0.99740  0.66380  0.09800  1.0000
  C   C20       1.0  0.00260  0.16380  0.90200  1.0000
  H   H29       1.0  0.95470  0.68650  0.11170  1.0000
  H   H30       1.0  0.04530  0.18650  0.88830  1.0000
  H   H31       1.0  0.00320  0.66910  0.04300  1.0000
  H   H32       1.0  0.99680  0.16910  0.95700  1.0000
  C   C21       1.0  0.14100  0.60240  0.45790  1.0000
  C   C22       1.0  0.85900  0.10240  0.54210  1.0000
  C   C23       1.0  0.17140  0.55960  0.43860  1.0000
  C   C24       1.0  0.82860  0.05960  0.56140  1.0000
  H   H33       1.0  0.14020  0.54280  0.39540  1.0000
  H   H34       1.0  0.85980  0.04280  0.60460  1.0000
  C   C25       1.0  0.24960  0.54150  0.48450  1.0000
  C   C26       1.0  0.75040  0.04150  0.51550  1.0000
  H   H35       1.0  0.26920  0.51180  0.47190  1.0000
  H   H36       1.0  0.73080  0.01180  0.52810  1.0000
  C   C27       1.0  0.29920  0.56530  0.54750  1.0000
  C   C28       1.0  0.70080  0.06530  0.45250  1.0000
  C   C29       1.0  0.26710  0.60850  0.56300  1.0000
  C   C30       1.0  0.73290  0.10850  0.43700  1.0000
  H   H37       1.0  0.29910  0.62620  0.60470  1.0000
  H   H38       1.0  0.70090  0.12620  0.39530  1.0000
  C   C31       1.0  0.18800  0.62730  0.51850  1.0000
  C   C32       1.0  0.81200  0.12730  0.48150  1.0000
  H   H39       1.0  0.16780  0.65690  0.53080  1.0000
  H   H40       1.0  0.83220  0.15690  0.46920  1.0000
  C   C33       1.0  0.38050  0.54640  0.59720  1.0000
  C   C34       1.0  0.61950  0.04640  0.40280  1.0000
  C   C35       1.0  0.80850  0.62380  0.51540  1.0000
  C   C36       1.0  0.19150  0.12380  0.48460  1.0000
  C   C37       1.0  0.76430  0.58470  0.48140  1.0000
  C   C38       1.0  0.23570  0.08470  0.51860  1.0000
  H   H41       1.0  0.76940  0.57510  0.43040  1.0000
  H   H42       1.0  0.23060  0.07510  0.56960  1.0000
  C   C39       1.0  0.71120  0.55970  0.52640  1.0000
  C   C40       1.0  0.28880  0.05970  0.47360  1.0000
  H   H43       1.0  0.68390  0.53180  0.50600  1.0000
  H   H44       1.0  0.31610  0.03180  0.49400  1.0000
  C   C41       1.0  0.69830  0.57490  0.59900  1.0000
  C   C42       1.0  0.30170  0.07490  0.40100  1.0000
  C   C43       1.0  0.74170  0.61480  0.62840  1.0000
  C   C44       1.0  0.25830  0.11480  0.37160  1.0000
  H   H45       1.0  0.73320  0.62580  0.67780  1.0000
  H   H46       1.0  0.26680  0.12580  0.32220  1.0000
  C   C45       1.0  0.79830  0.63980  0.58770  1.0000
  C   C46       1.0  0.20170  0.13980  0.41230  1.0000
  H   H47       1.0  0.82830  0.66680  0.60970  1.0000
  H   H48       1.0  0.17170  0.16680  0.39030  1.0000
  C   C47       1.0  0.63760  0.55030  0.64380  1.0000
  C   C48       1.0  0.36240  0.05030  0.35620  1.0000
  C   C49       1.0  0.79540  0.77480  0.35890  1.0000
  C   C50       1.0  0.20460  0.27480  0.64110  1.0000
  C   C51       1.0  0.84030  0.80950  0.40210  1.0000
  C   C52       1.0  0.15970  0.30950  0.59790  1.0000
  H   H49       1.0  0.89930  0.80490  0.42880  1.0000
  H   H50       1.0  0.10070  0.30490  0.57120  1.0000
  C   C53       1.0  0.79840  0.85170  0.40660  1.0000
  C   C54       1.0  0.20160  0.35170  0.59340  1.0000
  H   H51       1.0  0.83050  0.87620  0.43520  1.0000
  H   H52       1.0  0.16950  0.37620  0.56480  1.0000
  C   C55       1.0  0.71120  0.85930  0.37080  1.0000
  C   C56       1.0  0.28880  0.35930  0.62920  1.0000
  C   C57       1.0  0.66810  0.82270  0.32400  1.0000
  C   C58       1.0  0.33190  0.32270  0.67600  1.0000
  H   H53       1.0  0.60960  0.82680  0.29590  1.0000
  H   H54       1.0  0.39040  0.32680  0.70410  1.0000
  C   C59       1.0  0.71030  0.78250  0.31980  1.0000
  C   C60       1.0  0.28970  0.28250  0.68020  1.0000
  H   H55       1.0  0.68030  0.75850  0.28850  1.0000
  H   H56       1.0  0.31970  0.25850  0.71150  1.0000
  C   C61       1.0  0.66390  0.90470  0.37380  1.0000
  C   C62       1.0  0.33610  0.40470  0.62620  1.0000
  C   C63       1.0  0.23720  0.77000  0.20300  1.0000
  C   C64       1.0  0.76280  0.27000  0.79700  1.0000
  C   C65       1.0  0.23400  0.79990  0.13850  1.0000
  C   C66       1.0  0.76600  0.29990  0.86150  1.0000
  H   H57       1.0  0.19990  0.79190  0.08900  1.0000
  H   H58       1.0  0.80010  0.29190  0.91100  1.0000
  C   C67       1.0  0.28110  0.84120  0.14860  1.0000
  C   C68       1.0  0.71890  0.34120  0.85140  1.0000
  H   H59       1.0  0.27970  0.86090  0.10480  1.0000
  H   H60       1.0  0.72030  0.36090  0.89520  1.0000
  C   C69       1.0  0.32890  0.85450  0.21820  1.0000
  C   C70       1.0  0.67110  0.35450  0.78180  1.0000
  C   C71       1.0  0.32370  0.82820  0.27740  1.0000
  C   C72       1.0  0.67630  0.32820  0.72260  1.0000
  H   H61       1.0  0.34380  0.84030  0.32830  1.0000
  H   H62       1.0  0.65620  0.34030  0.67170  1.0000
  C   C73       1.0  0.28850  0.78070  0.27050  1.0000
  C   C74       1.0  0.71150  0.28070  0.72950  1.0000
  H   H63       1.0  0.30180  0.75910  0.31190  1.0000
  H   H64       1.0  0.69820  0.25910  0.68810  1.0000
  C   C75       1.0  0.38000  0.90050  0.22620  1.0000
  C   C76       1.0  0.62000  0.40050  0.77380  1.0000
  C   C77       1.0  0.21890  0.62240  0.01120  1.0000
  C   C78       1.0  0.78110  0.12240  0.98880  1.0000
  C   C79       1.0  0.22680  0.63910  0.93540  1.0000
  C   C80       1.0  0.77320  0.13910  0.06460  1.0000
  H   H65       1.0  0.19210  0.66440  0.91250  1.0000
  H   H66       1.0  0.80790  0.16440  0.08750  1.0000
  C   C81       1.0  0.28630  0.61740  0.89590  1.0000
  C   C82       1.0  0.71370  0.11740  0.10410  1.0000
  H   H67       1.0  0.29710  0.63030  0.84850  1.0000
  H   H68       1.0  0.70290  0.13030  0.15150  1.0000
  C   C83       1.0  0.33150  0.57600  0.92550  1.0000
  C   C84       1.0  0.66850  0.07600  0.07450  1.0000
  C   C85       1.0  0.32160  0.56080  0.99890  1.0000
  C   C86       1.0  0.67840  0.06080  0.00110  1.0000
  H   H69       1.0  0.35180  0.53360  0.01960  1.0000
  H   H70       1.0  0.64820  0.03360  0.98040  1.0000
  C   C87       1.0  0.26800  0.58440  0.04360  1.0000
  C   C88       1.0  0.73200  0.08440  0.95640  1.0000
  H   H71       1.0  0.26540  0.57440  0.09510  1.0000
  H   H72       1.0  0.73460  0.07440  0.90490  1.0000
  C   C89       1.0  0.39590  0.55330  0.88010  1.0000
  C   C90       1.0  0.60410  0.05330  0.11990  1.0000
  C   C91       1.0  0.88480  0.60320  0.05530  1.0000
  C   C92       1.0  0.11520  0.10320  0.94470  1.0000
  C   C93       1.0  0.86360  0.55880  0.06430  1.0000
  C   C94       1.0  0.13640  0.05880  0.93570  1.0000
  H   H73       1.0  0.90080  0.53950  0.10040  1.0000
  H   H74       1.0  0.09920  0.03950  0.89960  1.0000
  C   C95       1.0  0.78320  0.54100  0.01790  1.0000
  C   C96       1.0  0.21680  0.04100  0.98210  1.0000
  H   H75       1.0  0.76590  0.51000  0.02420  1.0000
  H   H76       1.0  0.23410  0.01000  0.97580  1.0000
  C   C97       1.0  0.73140  0.56950  0.96400  1.0000
  C   C98       1.0  0.26860  0.06950  0.03600  1.0000
  C   C99       1.0  0.75620  0.61500  0.95850  1.0000
  C   C100      1.0  0.24380  0.11500  0.04150  1.0000
  H   H77       1.0  0.71970  0.63490  0.92290  1.0000
  H   H78       1.0  0.28030  0.13490  0.07710  1.0000
  C   C101      1.0  0.83320  0.63240  0.00350  1.0000
  C   C102      1.0  0.16680  0.13240  0.99650  1.0000
  H   H79       1.0  0.84980  0.66370  0.99880  1.0000
  H   H80       1.0  0.15020  0.16370  0.00120  1.0000
  C   C103      1.0  0.64870  0.55040  0.91070  1.0000
  C   C104      1.0  0.35130  0.05040  0.08930  1.0000
  C   C105      1.0  0.48180  0.86140  0.80660  1.0000
  C   C106      1.0  0.51820  0.36140  0.19340  1.0000
  C   C107      1.0  0.48460  0.85980  0.67520  1.0000
  C   C108      1.0  0.51540  0.35980  0.32480  1.0000
  C   C109      1.0  0.49080  0.79320  0.74420  1.0000
  C   C110      1.0  0.50920  0.29320  0.25580  1.0000
  C   C111      1.0  0.47740  0.88720  0.88050  1.0000
  C   C112      1.0  0.52260  0.38720  0.11950  1.0000
  C   C113      1.0  0.47710  0.93560  0.88460  1.0000
  C   C114      1.0  0.52290  0.43560  0.11540  1.0000
  H   H81       1.0  0.48130  0.95330  0.83960  1.0000
  H   H82       1.0  0.51870  0.45330  0.16040  1.0000
  C   C115      1.0  0.47100  0.95730  0.95280  1.0000
  C   C116      1.0  0.52900  0.45730  0.04720  1.0000
  H   H83       1.0  0.46780  0.99000  0.95330  1.0000
  H   H84       1.0  0.53220  0.49000  0.04670  1.0000
  C   C117      1.0  0.46990  0.88820  0.01800  1.0000
  C   C118      1.0  0.53010  0.38820  0.98200  1.0000
  H   H85       1.0  0.46640  0.87120  0.06390  1.0000
  H   H86       1.0  0.53360  0.37120  0.93610  1.0000
  C   C119      1.0  0.47590  0.86440  0.95000  1.0000
  C   C120      1.0  0.52410  0.36440  0.05000  1.0000
  H   H87       1.0  0.47890  0.83160  0.95130  1.0000
  H   H88       1.0  0.52110  0.33160  0.04870  1.0000
  C   C121      1.0  0.48460  0.88510  0.60000  1.0000
  C   C122      1.0  0.51540  0.38510  0.40000  1.0000
  C   C123      1.0  0.48380  0.93350  0.59580  1.0000
  C   C124      1.0  0.51620  0.43350  0.40420  1.0000
  H   H89       1.0  0.48340  0.95150  0.64130  1.0000
  H   H90       1.0  0.51660  0.45150  0.35870  1.0000
  C   C125      1.0  0.48360  0.95480  0.52380  1.0000
  C   C126      1.0  0.51640  0.45480  0.47620  1.0000
  H   H91       1.0  0.48300  0.98760  0.52160  1.0000
  H   H92       1.0  0.51700  0.48760  0.47840  1.0000
  C   C127      1.0  0.48410  0.88490  0.46230  1.0000
  C   C128      1.0  0.51590  0.38490  0.53770  1.0000
  H   H93       1.0  0.48410  0.86790  0.41570  1.0000
  H   H94       1.0  0.51590  0.36790  0.58430  1.0000
  C   C129      1.0  0.48380  0.85970  0.53220  1.0000
  C   C130      1.0  0.51620  0.35970  0.46780  1.0000
  H   H95       1.0  0.48320  0.82690  0.53250  1.0000
  H   H96       1.0  0.51680  0.32690  0.46750  1.0000
  C   C131      1.0  0.49660  0.74180  0.74730  1.0000
  C   C132      1.0  0.50340  0.24180  0.25270  1.0000
  C   C133      1.0  0.49790  0.71780  0.81750  1.0000
  C   C134      1.0  0.50210  0.21780  0.18250  1.0000
  H   H97       1.0  0.49410  0.73430  0.86380  1.0000
  H   H98       1.0  0.50590  0.23430  0.13620  1.0000
  C   C135      1.0  0.50480  0.66940  0.81910  1.0000
  C   C136      1.0  0.49520  0.16940  0.18090  1.0000
  H   H99       1.0  0.50660  0.65370  0.86720  1.0000
  H   H100      1.0  0.49340  0.15370  0.13280  1.0000
  C   C137      1.0  0.50840  0.66780  0.68630  1.0000
  C   C138      1.0  0.49160  0.16780  0.31370  1.0000
  H   H101      1.0  0.51100  0.65080  0.64020  1.0000
  H   H102      1.0  0.48900  0.15080  0.35980  1.0000
  C   C139      1.0  0.50430  0.71550  0.68160  1.0000
  C   C140      1.0  0.49570  0.21550  0.31840  1.0000
  H   H103      1.0  0.50670  0.73050  0.63350  1.0000
  H   H104      1.0  0.49330  0.23050  0.36650  1.0000
  O   O1        1.0  0.01200  0.68550  0.26190  1.0000
  O   O2        1.0  0.98800  0.18550  0.73810  1.0000
  O   O3        1.0  0.59570  0.92400  0.17220  1.0000
  O   O4        1.0  0.40430  0.42400  0.82780  1.0000
  O   O5        1.0  0.06220  0.61700  0.41040  1.0000
  O   O6        1.0  0.93780  0.11700  0.58960  1.0000
  O   O7        1.0  0.86520  0.65010  0.47910  1.0000
  O   O8        1.0  0.13480  0.15010  0.52090  1.0000
  O   O9        1.0  0.83100  0.73120  0.34750  1.0000
  O   O10       1.0  0.16900  0.23120  0.65250  1.0000
  O   O11       1.0  0.19830  0.72660  0.19900  1.0000
  O   O12       1.0  0.80170  0.22660  0.80100  1.0000
  O   O13       1.0  0.16340  0.64880  0.04890  1.0000
  O   O14       1.0  0.83660  0.14880  0.95110  1.0000
  O   O15       1.0  0.96550  0.61790  0.10640  1.0000
  O   O16       1.0  0.03450  0.11790  0.89360  1.0000
  O   O17       1.0  0.42620  0.57350  0.64650  1.0000
  O   O18       1.0  0.57380  0.07350  0.35350  1.0000
  O   O19       1.0  0.40150  0.50400  0.58890  1.0000
  O   O20       1.0  0.59850  0.00400  0.41110  1.0000
  O   O21       1.0  0.60490  0.51180  0.61800  1.0000
  O   O22       1.0  0.39510  0.01180  0.38200  1.0000
  O   O23       1.0  0.62360  0.56910  0.70560  1.0000
  O   O24       1.0  0.37640  0.06910  0.29440  1.0000
  O   O25       1.0  0.70450  0.93320  0.43150  1.0000
  O   O26       1.0  0.29550  0.43320  0.56850  1.0000
  O   O27       1.0  0.59220  0.91350  0.33150  1.0000
  O   O28       1.0  0.40780  0.41350  0.66850  1.0000
  O   O29       1.0  0.39810  0.91730  0.29290  1.0000
  O   O30       1.0  0.60190  0.41730  0.70710  1.0000
  O   O31       1.0  0.40040  0.91670  0.16470  1.0000
  O   O32       1.0  0.59960  0.41670  0.83530  1.0000
  O   O33       1.0  0.43390  0.51710  0.90880  1.0000
  O   O34       1.0  0.56610  0.01710  0.09120  1.0000
  O   O35       1.0  0.40400  0.57290  0.81640  1.0000
  O   O36       1.0  0.59600  0.07290  0.18360  1.0000
  O   O37       1.0  0.59950  0.57850  0.86530  1.0000
  O   O38       1.0  0.40050  0.07850  0.13470  1.0000
  O   O39       1.0  0.63440  0.50630  0.91580  1.0000
  O   O40       1.0  0.36560  0.00630  0.08420  1.0000
  O   O41       1.0  0.50770  0.99730  0.24430  1.0000
  O   O42       1.0  0.49230  0.49730  0.75570  1.0000
