data_image0
_chemical_formula_structural       Bi8Br32C16H16C16H16C8N8C16H16C16H16C8N8
_chemical_formula_sum              "Bi8 Br32 C80 H64 N16"
_cell_length_a       14.9357
_cell_length_b       25.351
_cell_length_c       12.1842
_cell_angle_alpha    90
_cell_angle_beta     90
_cell_angle_gamma    90

_space_group_name_H-M_alt    "P 1"
_space_group_IT_number       1

loop_
  _space_group_symop_operation_xyz
  'x, y, z'

loop_
  _atom_site_type_symbol
  _atom_site_label
  _atom_site_symmetry_multiplicity
  _atom_site_fract_x
  _atom_site_fract_y
  _atom_site_fract_z
  _atom_site_occupancy
  Bi  Bi1       1.0  0.50000  0.50000  0.88960  1.0000
  Bi  Bi2       1.0  0.75000  0.75000  0.13960  1.0000
  Bi  Bi3       1.0  0.50000  0.00000  0.38960  1.0000
  Bi  Bi4       1.0  0.75000  0.25000  0.63960  1.0000
  Bi  Bi5       1.0  0.00000  0.50000  0.38960  1.0000
  Bi  Bi6       1.0  0.25000  0.75000  0.63960  1.0000
  Bi  Bi7       1.0  0.00000  0.00000  0.88960  1.0000
  Bi  Bi8       1.0  0.25000  0.25000  0.13960  1.0000
  Br  Br1       1.0  0.31336  0.49048  0.88540  1.0000
  Br  Br2       1.0  0.68664  0.50952  0.88540  1.0000
  Br  Br3       1.0  0.56336  0.75952  0.13540  1.0000
  Br  Br4       1.0  0.93664  0.74048  0.13540  1.0000
  Br  Br5       1.0  0.31336  0.99048  0.38540  1.0000
  Br  Br6       1.0  0.68664  0.00952  0.38540  1.0000
  Br  Br7       1.0  0.56336  0.25952  0.63540  1.0000
  Br  Br8       1.0  0.93664  0.24048  0.63540  1.0000
  Br  Br9       1.0  0.81336  0.49048  0.38540  1.0000
  Br  Br10      1.0  0.18664  0.50952  0.38540  1.0000
  Br  Br11      1.0  0.06336  0.75952  0.63540  1.0000
  Br  Br12      1.0  0.43664  0.74048  0.63540  1.0000
  Br  Br13      1.0  0.81336  0.99048  0.88540  1.0000
  Br  Br14      1.0  0.18664  0.00952  0.88540  1.0000
  Br  Br15      1.0  0.06336  0.25952  0.13540  1.0000
  Br  Br16      1.0  0.43664  0.24048  0.13540  1.0000
  Br  Br17      1.0  0.51714  0.38873  0.88260  1.0000
  Br  Br18      1.0  0.48286  0.61127  0.88260  1.0000
  Br  Br19      1.0  0.76714  0.86127  0.13260  1.0000
  Br  Br20      1.0  0.73286  0.63873  0.13260  1.0000
  Br  Br21      1.0  0.51714  0.88873  0.38260  1.0000
  Br  Br22      1.0  0.48286  0.11127  0.38260  1.0000
  Br  Br23      1.0  0.76714  0.36127  0.63260  1.0000
  Br  Br24      1.0  0.73286  0.13873  0.63260  1.0000
  Br  Br25      1.0  0.01714  0.38873  0.38260  1.0000
  Br  Br26      1.0  0.98286  0.61127  0.38260  1.0000
  Br  Br27      1.0  0.26714  0.86127  0.63260  1.0000
  Br  Br28      1.0  0.23286  0.63873  0.63260  1.0000
  Br  Br29      1.0  0.01714  0.88873  0.88260  1.0000
  Br  Br30      1.0  0.98286  0.11127  0.88260  1.0000
  Br  Br31      1.0  0.26714  0.36127  0.13260  1.0000
  Br  Br32      1.0  0.23286  0.13873  0.13260  1.0000
  C   C1        1.0  0.57190  0.48660  0.62830  1.0000
  C   C2        1.0  0.42810  0.51340  0.62830  1.0000
  C   C3        1.0  0.82190  0.76340  0.87830  1.0000
  C   C4        1.0  0.67810  0.73660  0.87830  1.0000
  C   C5        1.0  0.57190  0.98660  0.12830  1.0000
  C   C6        1.0  0.42810  0.01340  0.12830  1.0000
  C   C7        1.0  0.82190  0.26340  0.37830  1.0000
  C   C8        1.0  0.67810  0.23660  0.37830  1.0000
  C   C9        1.0  0.07190  0.48660  0.12830  1.0000
  C   C10       1.0  0.92810  0.51340  0.12830  1.0000
  C   C11       1.0  0.32190  0.76340  0.37830  1.0000
  C   C12       1.0  0.17810  0.73660  0.37830  1.0000
  C   C13       1.0  0.07190  0.98660  0.62830  1.0000
  C   C14       1.0  0.92810  0.01340  0.62830  1.0000
  C   C15       1.0  0.32190  0.26340  0.87830  1.0000
  C   C16       1.0  0.17810  0.23660  0.87830  1.0000
  H   H1        1.0  0.62290  0.47660  0.66680  1.0000
  H   H2        1.0  0.37710  0.52340  0.66680  1.0000
  H   H3        1.0  0.87290  0.77340  0.91680  1.0000
  H   H4        1.0  0.62710  0.72660  0.91680  1.0000
  H   H5        1.0  0.62290  0.97660  0.16680  1.0000
  H   H6        1.0  0.37710  0.02340  0.16680  1.0000
  H   H7        1.0  0.87290  0.27340  0.41680  1.0000
  H   H8        1.0  0.62710  0.22660  0.41680  1.0000
  H   H9        1.0  0.12290  0.47660  0.16680  1.0000
  H   H10       1.0  0.87710  0.52340  0.16680  1.0000
  H   H11       1.0  0.37290  0.77340  0.41680  1.0000
  H   H12       1.0  0.12710  0.72660  0.41680  1.0000
  H   H13       1.0  0.12290  0.97660  0.66680  1.0000
  H   H14       1.0  0.87710  0.02340  0.66680  1.0000
  H   H15       1.0  0.37290  0.27340  0.91680  1.0000
  H   H16       1.0  0.12710  0.22660  0.91680  1.0000
  C   C17       1.0  0.57650  0.48650  0.51290  1.0000
  C   C18       1.0  0.42350  0.51350  0.51290  1.0000
  C   C19       1.0  0.82650  0.76350  0.76290  1.0000
  C   C20       1.0  0.67350  0.73650  0.76290  1.0000
  C   C21       1.0  0.57650  0.98650  0.01290  1.0000
  C   C22       1.0  0.42350  0.01350  0.01290  1.0000
  C   C23       1.0  0.82650  0.26350  0.26290  1.0000
  C   C24       1.0  0.67350  0.23650  0.26290  1.0000
  C   C25       1.0  0.07650  0.48650  0.01290  1.0000
  C   C26       1.0  0.92350  0.51350  0.01290  1.0000
  C   C27       1.0  0.32650  0.76350  0.26290  1.0000
  C   C28       1.0  0.17350  0.73650  0.26290  1.0000
  C   C29       1.0  0.07650  0.98650  0.51290  1.0000
  C   C30       1.0  0.92350  0.01350  0.51290  1.0000
  C   C31       1.0  0.32650  0.26350  0.76290  1.0000
  C   C32       1.0  0.17350  0.23650  0.76290  1.0000
  H   H17       1.0  0.62930  0.47760  0.47700  1.0000
  H   H18       1.0  0.37070  0.52240  0.47700  1.0000
  H   H19       1.0  0.87930  0.77240  0.72700  1.0000
  H   H20       1.0  0.62070  0.72760  0.72700  1.0000
  H   H21       1.0  0.62930  0.97760  0.97700  1.0000
  H   H22       1.0  0.37070  0.02240  0.97700  1.0000
  H   H23       1.0  0.87930  0.27240  0.22700  1.0000
  H   H24       1.0  0.62070  0.22760  0.22700  1.0000
  H   H25       1.0  0.12930  0.47760  0.97700  1.0000
  H   H26       1.0  0.87070  0.52240  0.97700  1.0000
  H   H27       1.0  0.37930  0.77240  0.22700  1.0000
  H   H28       1.0  0.12070  0.72760  0.22700  1.0000
  H   H29       1.0  0.12930  0.97760  0.47700  1.0000
  H   H30       1.0  0.87070  0.02240  0.47700  1.0000
  H   H31       1.0  0.37930  0.27240  0.72700  1.0000
  H   H32       1.0  0.12070  0.22760  0.72700  1.0000
  C   C33       1.0  0.50000  0.50000  0.45360  1.0000
  C   C34       1.0  0.75000  0.75000  0.70360  1.0000
  C   C35       1.0  0.50000  0.00000  0.95360  1.0000
  C   C36       1.0  0.75000  0.25000  0.20360  1.0000
  C   C37       1.0  0.00000  0.50000  0.95360  1.0000
  C   C38       1.0  0.25000  0.75000  0.20360  1.0000
  C   C39       1.0  0.00000  0.00000  0.45360  1.0000
  C   C40       1.0  0.25000  0.25000  0.70360  1.0000
  N   N1        1.0  0.50000  0.50000  0.68630  1.0000
  N   N2        1.0  0.75000  0.75000  0.93630  1.0000
  N   N3        1.0  0.50000  0.00000  0.18630  1.0000
  N   N4        1.0  0.75000  0.25000  0.43630  1.0000
  N   N5        1.0  0.00000  0.50000  0.18630  1.0000
  N   N6        1.0  0.25000  0.75000  0.43630  1.0000
  N   N7        1.0  0.00000  0.00000  0.68630  1.0000
  N   N8        1.0  0.25000  0.25000  0.93630  1.0000
  C   C41       1.0  0.57670  0.50990  0.15980  1.0000
  C   C42       1.0  0.42330  0.49010  0.15980  1.0000
  C   C43       1.0  0.82670  0.74010  0.40980  1.0000
  C   C44       1.0  0.67330  0.75990  0.40980  1.0000
  C   C45       1.0  0.57670  0.00990  0.65980  1.0000
  C   C46       1.0  0.42330  0.99010  0.65980  1.0000
  C   C47       1.0  0.82670  0.24010  0.90980  1.0000
  C   C48       1.0  0.67330  0.25990  0.90980  1.0000
  C   C49       1.0  0.07670  0.50990  0.65980  1.0000
  C   C50       1.0  0.92330  0.49010  0.65980  1.0000
  C   C51       1.0  0.32670  0.74010  0.90980  1.0000
  C   C52       1.0  0.17330  0.75990  0.90980  1.0000
  C   C53       1.0  0.07670  0.00990  0.15980  1.0000
  C   C54       1.0  0.92330  0.99010  0.15980  1.0000
  C   C55       1.0  0.32670  0.24010  0.40980  1.0000
  C   C56       1.0  0.17330  0.25990  0.40980  1.0000
  H   H33       1.0  0.62870  0.51740  0.12070  1.0000
  H   H34       1.0  0.37130  0.48260  0.12070  1.0000
  H   H35       1.0  0.87870  0.73260  0.37070  1.0000
  H   H36       1.0  0.62130  0.76740  0.37070  1.0000
  H   H37       1.0  0.62870  0.01740  0.62070  1.0000
  H   H38       1.0  0.37130  0.98260  0.62070  1.0000
  H   H39       1.0  0.87870  0.23260  0.87070  1.0000
  H   H40       1.0  0.62130  0.26740  0.87070  1.0000
  H   H41       1.0  0.12870  0.51740  0.62070  1.0000
  H   H42       1.0  0.87130  0.48260  0.62070  1.0000
  H   H43       1.0  0.37870  0.73260  0.87070  1.0000
  H   H44       1.0  0.12130  0.76740  0.87070  1.0000
  H   H45       1.0  0.12870  0.01740  0.12070  1.0000
  H   H46       1.0  0.87130  0.98260  0.12070  1.0000
  H   H47       1.0  0.37870  0.23260  0.37070  1.0000
  H   H48       1.0  0.12130  0.26740  0.37070  1.0000
  C   C57       1.0  0.57900  0.50900  0.27180  1.0000
  C   C58       1.0  0.42100  0.49100  0.27180  1.0000
  C   C59       1.0  0.82900  0.74100  0.52180  1.0000
  C   C60       1.0  0.67100  0.75900  0.52180  1.0000
  C   C61       1.0  0.57900  0.00900  0.77180  1.0000
  C   C62       1.0  0.42100  0.99100  0.77180  1.0000
  C   C63       1.0  0.82900  0.24100  0.02180  1.0000
  C   C64       1.0  0.67100  0.25900  0.02180  1.0000
  C   C65       1.0  0.07900  0.50900  0.77180  1.0000
  C   C66       1.0  0.92100  0.49100  0.77180  1.0000
  C   C67       1.0  0.32900  0.74100  0.02180  1.0000
  C   C68       1.0  0.17100  0.75900  0.02180  1.0000
  C   C69       1.0  0.07900  0.00900  0.27180  1.0000
  C   C70       1.0  0.92100  0.99100  0.27180  1.0000
  C   C71       1.0  0.32900  0.24100  0.52180  1.0000
  C   C72       1.0  0.17100  0.25900  0.52180  1.0000
  H   H49       1.0  0.63280  0.51440  0.30850  1.0000
  H   H50       1.0  0.36720  0.48560  0.30850  1.0000
  H   H51       1.0  0.88280  0.73560  0.55850  1.0000
  H   H52       1.0  0.61720  0.76440  0.55850  1.0000
  H   H53       1.0  0.63280  0.01440  0.80850  1.0000
  H   H54       1.0  0.36720  0.98560  0.80850  1.0000
  H   H55       1.0  0.88280  0.23560  0.05850  1.0000
  H   H56       1.0  0.61720  0.26440  0.05850  1.0000
  H   H57       1.0  0.13280  0.51440  0.80850  1.0000
  H   H58       1.0  0.86720  0.48560  0.80850  1.0000
  H   H59       1.0  0.38280  0.73560  0.05850  1.0000
  H   H60       1.0  0.11720  0.76440  0.05850  1.0000
  H   H61       1.0  0.13280  0.01440  0.30850  1.0000
  H   H62       1.0  0.86720  0.98560  0.30850  1.0000
  H   H63       1.0  0.38280  0.23560  0.55850  1.0000
  H   H64       1.0  0.11720  0.26440  0.55850  1.0000
  C   C73       1.0  0.50000  0.50000  0.33180  1.0000
  C   C74       1.0  0.75000  0.75000  0.58180  1.0000
  C   C75       1.0  0.50000  0.00000  0.83180  1.0000
  C   C76       1.0  0.75000  0.25000  0.08180  1.0000
  C   C77       1.0  0.00000  0.50000  0.83180  1.0000
  C   C78       1.0  0.25000  0.75000  0.08180  1.0000
  C   C79       1.0  0.00000  0.00000  0.33180  1.0000
  C   C80       1.0  0.25000  0.25000  0.58180  1.0000
  N   N9        1.0  0.50000  0.50000  0.10540  1.0000
  N   N10       1.0  0.75000  0.75000  0.35540  1.0000
  N   N11       1.0  0.50000  0.00000  0.60540  1.0000
  N   N12       1.0  0.75000  0.25000  0.85540  1.0000
  N   N13       1.0  0.00000  0.50000  0.60540  1.0000
  N   N14       1.0  0.25000  0.75000  0.85540  1.0000
  N   N15       1.0  0.00000  0.00000  0.10540  1.0000
  N   N16       1.0  0.25000  0.25000  0.35540  1.0000
