data_image0
_chemical_formula_structural       Bi4Br16N8C4H4C4H4C8H4C4H4C4H4C4H4C8H4C4H4
_chemical_formula_sum              "Bi4 Br16 N8 C40 H32"
_cell_length_a       12.1673
_cell_length_b       14.9278
_cell_length_c       13.8496
_cell_angle_alpha    90
_cell_angle_beta     115.934
_cell_angle_gamma    90

_space_group_name_H-M_alt    "P 1"
_space_group_IT_number       1

loop_
  _space_group_symop_operation_xyz
  'x, y, z'

loop_
  _atom_site_type_symbol
  _atom_site_label
  _atom_site_symmetry_multiplicity
  _atom_site_fract_x
  _atom_site_fract_y
  _atom_site_fract_z
  _atom_site_occupancy
  Bi  Bi1       1.0  0.14014  0.37508  0.46767  1.0000
  Bi  Bi2       1.0  0.14014  0.62492  0.96767  1.0000
  Bi  Bi3       1.0  0.64014  0.87508  0.46767  1.0000
  Bi  Bi4       1.0  0.64014  0.12492  0.96767  1.0000
  Br  Br1       1.0  0.24310  0.39193  0.69382  1.0000
  Br  Br2       1.0  0.24310  0.60807  0.19382  1.0000
  Br  Br3       1.0  0.74310  0.89193  0.69382  1.0000
  Br  Br4       1.0  0.74310  0.10807  0.19382  1.0000
  Br  Br5       1.0  0.14563  0.18723  0.48698  1.0000
  Br  Br6       1.0  0.14563  0.81277  0.98698  1.0000
  Br  Br7       1.0  0.64563  0.68723  0.48698  1.0000
  Br  Br8       1.0  0.64563  0.31277  0.98698  1.0000
  Br  Br9       1.0  0.12471  0.56301  0.44714  1.0000
  Br  Br10      1.0  0.12471  0.43699  0.94714  1.0000
  Br  Br11      1.0  0.62471  0.06301  0.44714  1.0000
  Br  Br12      1.0  0.62471  0.93699  0.94714  1.0000
  Br  Br13      1.0  0.01822  0.35756  0.24140  1.0000
  Br  Br14      1.0  0.01822  0.64244  0.74140  1.0000
  Br  Br15      1.0  0.51822  0.85756  0.24140  1.0000
  Br  Br16      1.0  0.51822  0.14244  0.74140  1.0000
  N   N1        1.0  0.35170  0.37550  0.46880  1.0000
  N   N2        1.0  0.35170  0.62450  0.96880  1.0000
  N   N3        1.0  0.85170  0.87550  0.46880  1.0000
  N   N4        1.0  0.85170  0.12450  0.96880  1.0000
  N   N5        1.0  0.93280  0.37510  0.46860  1.0000
  N   N6        1.0  0.93280  0.62490  0.96860  1.0000
  N   N7        1.0  0.43280  0.87510  0.46860  1.0000
  N   N8        1.0  0.43280  0.12490  0.96860  1.0000
  C   C1        1.0  0.39820  0.45030  0.44810  1.0000
  C   C2        1.0  0.39820  0.54970  0.94810  1.0000
  C   C3        1.0  0.89820  0.95030  0.44810  1.0000
  C   C4        1.0  0.89820  0.04970  0.94810  1.0000
  H   H1        1.0  0.35070  0.50350  0.43220  1.0000
  H   H2        1.0  0.35070  0.49650  0.93220  1.0000
  H   H3        1.0  0.85070  0.00350  0.43220  1.0000
  H   H4        1.0  0.85070  0.99650  0.93220  1.0000
  C   C5        1.0  0.51290  0.45390  0.44870  1.0000
  C   C6        1.0  0.51290  0.54610  0.94870  1.0000
  C   C7        1.0  0.01290  0.95390  0.44870  1.0000
  C   C8        1.0  0.01290  0.04610  0.94870  1.0000
  H   H5        1.0  0.54410  0.50900  0.43690  1.0000
  H   H6        1.0  0.54410  0.49100  0.93690  1.0000
  H   H7        1.0  0.04410  0.00900  0.43690  1.0000
  H   H8        1.0  0.04410  0.99100  0.93690  1.0000
  C   C9        1.0  0.58180  0.37500  0.46690  1.0000
  C   C10       1.0  0.58180  0.62500  0.96690  1.0000
  C   C11       1.0  0.08180  0.87500  0.46690  1.0000
  C   C12       1.0  0.08180  0.12500  0.96690  1.0000
  C   C13       1.0  0.53110  0.29690  0.48780  1.0000
  C   C14       1.0  0.53110  0.70310  0.98780  1.0000
  C   C15       1.0  0.03110  0.79690  0.48780  1.0000
  C   C16       1.0  0.03110  0.20310  0.98780  1.0000
  H   H9        1.0  0.57490  0.24200  0.50180  1.0000
  H   H10       1.0  0.57490  0.75800  0.00180  1.0000
  H   H11       1.0  0.07490  0.74200  0.50180  1.0000
  H   H12       1.0  0.07490  0.25800  0.00180  1.0000
  C   C17       1.0  0.41750  0.29990  0.48790  1.0000
  C   C18       1.0  0.41750  0.70010  0.98790  1.0000
  C   C19       1.0  0.91750  0.79990  0.48790  1.0000
  C   C20       1.0  0.91750  0.20010  0.98790  1.0000
  H   H13       1.0  0.38500  0.24640  0.50210  1.0000
  H   H14       1.0  0.38500  0.75360  0.00210  1.0000
  H   H15       1.0  0.88500  0.74640  0.50210  1.0000
  H   H16       1.0  0.88500  0.25360  0.00210  1.0000
  C   C21       1.0  0.86370  0.30040  0.44060  1.0000
  C   C22       1.0  0.86370  0.69960  0.94060  1.0000
  C   C23       1.0  0.36370  0.80040  0.44060  1.0000
  C   C24       1.0  0.36370  0.19960  0.94060  1.0000
  H   H17       1.0  0.89310  0.24850  0.41980  1.0000
  H   H18       1.0  0.89310  0.75150  0.91980  1.0000
  H   H19       1.0  0.39310  0.74850  0.41980  1.0000
  H   H20       1.0  0.39310  0.25150  0.91980  1.0000
  C   C25       1.0  0.75010  0.29810  0.44190  1.0000
  C   C26       1.0  0.75010  0.70190  0.94190  1.0000
  C   C27       1.0  0.25010  0.79810  0.44190  1.0000
  C   C28       1.0  0.25010  0.20190  0.94190  1.0000
  H   H21       1.0  0.70360  0.24440  0.42530  1.0000
  H   H22       1.0  0.70360  0.75560  0.92530  1.0000
  H   H23       1.0  0.20360  0.74440  0.42530  1.0000
  H   H24       1.0  0.20360  0.25560  0.92530  1.0000
  C   C29       1.0  0.70560  0.37550  0.46760  1.0000
  C   C30       1.0  0.70560  0.62450  0.96760  1.0000
  C   C31       1.0  0.20560  0.87550  0.46760  1.0000
  C   C32       1.0  0.20560  0.12450  0.96760  1.0000
  C   C33       1.0  0.77850  0.45180  0.49630  1.0000
  C   C34       1.0  0.77850  0.54820  0.99630  1.0000
  C   C35       1.0  0.27850  0.95180  0.49630  1.0000
  C   C36       1.0  0.27850  0.04820  0.99630  1.0000
  H   H25       1.0  0.75110  0.50500  0.51650  1.0000
  H   H26       1.0  0.75110  0.49500  0.01650  1.0000
  H   H27       1.0  0.25110  0.00500  0.51650  1.0000
  H   H28       1.0  0.25110  0.99500  0.01650  1.0000
  C   C37       1.0  0.89110  0.44920  0.49490  1.0000
  C   C38       1.0  0.89110  0.55080  0.99490  1.0000
  C   C39       1.0  0.39110  0.94920  0.49490  1.0000
  C   C40       1.0  0.39110  0.05080  0.99490  1.0000
  H   H29       1.0  0.94030  0.50170  0.51320  1.0000
  H   H30       1.0  0.94030  0.49830  0.01320  1.0000
  H   H31       1.0  0.44030  0.00170  0.51320  1.0000
  H   H32       1.0  0.44030  0.99830  0.01320  1.0000
