data_image0
_chemical_formula_structural       Zn4O32C24H8C8H16
_chemical_formula_sum              "Zn4 O32 C32 H24"
_cell_length_a       14.1153
_cell_length_b       8.8505
_cell_length_c       13.5704
_cell_angle_alpha    90
_cell_angle_beta     111.761
_cell_angle_gamma    90

_space_group_name_H-M_alt    "P 1"
_space_group_IT_number       1

loop_
  _space_group_symop_operation_xyz
  'x, y, z'

loop_
  _atom_site_type_symbol
  _atom_site_label
  _atom_site_symmetry_multiplicity
  _atom_site_fract_x
  _atom_site_fract_y
  _atom_site_fract_z
  _atom_site_occupancy
  Zn  Zn1       1.0  0.50000  0.50029  0.75000  1.0000
  Zn  Zn2       1.0  0.00000  0.00029  0.75000  1.0000
  Zn  Zn3       1.0  0.50000  0.49971  0.25000  1.0000
  Zn  Zn4       1.0  0.00000  0.99971  0.25000  1.0000
  O   O1        1.0  0.41853  0.64860  0.64040  1.0000
  O   O2        1.0  0.58147  0.64860  0.85960  1.0000
  O   O3        1.0  0.91853  0.14860  0.64040  1.0000
  O   O4        1.0  0.08147  0.14860  0.85960  1.0000
  O   O5        1.0  0.58147  0.35140  0.35960  1.0000
  O   O6        1.0  0.41853  0.35140  0.14040  1.0000
  O   O7        1.0  0.08147  0.85140  0.35960  1.0000
  O   O8        1.0  0.91853  0.85140  0.14040  1.0000
  O   O9        1.0  0.31430  0.45350  0.58780  1.0000
  O   O10       1.0  0.68570  0.45350  0.91220  1.0000
  O   O11       1.0  0.81430  0.95350  0.58780  1.0000
  O   O12       1.0  0.18570  0.95350  0.91220  1.0000
  O   O13       1.0  0.68570  0.54650  0.41220  1.0000
  O   O14       1.0  0.31430  0.54650  0.08780  1.0000
  O   O15       1.0  0.18570  0.04650  0.41220  1.0000
  O   O16       1.0  0.81430  0.04650  0.08780  1.0000
  O   O17       1.0  0.34800  0.46570  0.36480  1.0000
  O   O18       1.0  0.65200  0.46570  0.13520  1.0000
  O   O19       1.0  0.84800  0.96570  0.36480  1.0000
  O   O20       1.0  0.15200  0.96570  0.13520  1.0000
  O   O21       1.0  0.65200  0.53430  0.63520  1.0000
  O   O22       1.0  0.34800  0.53430  0.86480  1.0000
  O   O23       1.0  0.15200  0.03430  0.63520  1.0000
  O   O24       1.0  0.84800  0.03430  0.86480  1.0000
  O   O25       1.0  0.44049  0.64250  0.32532  1.0000
  O   O26       1.0  0.55951  0.64250  0.17468  1.0000
  O   O27       1.0  0.94049  0.14250  0.32532  1.0000
  O   O28       1.0  0.05951  0.14250  0.17468  1.0000
  O   O29       1.0  0.55951  0.35750  0.67468  1.0000
  O   O30       1.0  0.44049  0.35750  0.82532  1.0000
  O   O31       1.0  0.05951  0.85750  0.67468  1.0000
  O   O32       1.0  0.94049  0.85750  0.82532  1.0000
  C   C1        1.0  0.33690  0.58460  0.57440  1.0000
  C   C2        1.0  0.66310  0.58460  0.92560  1.0000
  C   C3        1.0  0.83690  0.08460  0.57440  1.0000
  C   C4        1.0  0.16310  0.08460  0.92560  1.0000
  C   C5        1.0  0.66310  0.41540  0.42560  1.0000
  C   C6        1.0  0.33690  0.41540  0.07440  1.0000
  C   C7        1.0  0.16310  0.91540  0.42560  1.0000
  C   C8        1.0  0.83690  0.91540  0.07440  1.0000
  C   C9        1.0  0.37420  0.59700  0.36450  1.0000
  C   C10       1.0  0.62580  0.59700  0.13550  1.0000
  C   C11       1.0  0.87420  0.09700  0.36450  1.0000
  C   C12       1.0  0.12580  0.09700  0.13550  1.0000
  C   C13       1.0  0.62580  0.40300  0.63550  1.0000
  C   C14       1.0  0.37420  0.40300  0.86450  1.0000
  C   C15       1.0  0.12580  0.90300  0.63550  1.0000
  C   C16       1.0  0.87420  0.90300  0.86450  1.0000
  C   C17       1.0  0.27000  0.67940  0.48010  1.0000
  C   C18       1.0  0.73000  0.67940  0.01990  1.0000
  C   C19       1.0  0.77000  0.17940  0.48010  1.0000
  C   C20       1.0  0.23000  0.17940  0.01990  1.0000
  C   C21       1.0  0.73000  0.32060  0.51990  1.0000
  C   C22       1.0  0.27000  0.32060  0.98010  1.0000
  C   C23       1.0  0.23000  0.82060  0.51990  1.0000
  C   C24       1.0  0.77000  0.82060  0.98010  1.0000
  H   H1        1.0  0.21110  0.61800  0.43780  1.0000
  H   H2        1.0  0.78890  0.61800  0.06220  1.0000
  H   H3        1.0  0.71110  0.11800  0.43780  1.0000
  H   H4        1.0  0.28890  0.11800  0.06220  1.0000
  H   H5        1.0  0.78890  0.38200  0.56220  1.0000
  H   H6        1.0  0.21110  0.38200  0.93780  1.0000
  H   H7        1.0  0.28890  0.88200  0.56220  1.0000
  H   H8        1.0  0.71110  0.88200  0.93780  1.0000
  C   C25       1.0  0.32860  0.72470  0.40900  1.0000
  C   C26       1.0  0.67140  0.72470  0.09100  1.0000
  C   C27       1.0  0.82860  0.22470  0.40900  1.0000
  C   C28       1.0  0.17140  0.22470  0.09100  1.0000
  C   C29       1.0  0.67140  0.27530  0.59100  1.0000
  C   C30       1.0  0.32860  0.27530  0.90900  1.0000
  C   C31       1.0  0.17140  0.77530  0.59100  1.0000
  C   C32       1.0  0.82860  0.77530  0.90900  1.0000
  H   H9        1.0  0.28270  0.78230  0.34960  1.0000
  H   H10       1.0  0.71730  0.78230  0.15040  1.0000
  H   H11       1.0  0.78270  0.28230  0.34960  1.0000
  H   H12       1.0  0.21730  0.28230  0.15040  1.0000
  H   H13       1.0  0.71730  0.21770  0.65040  1.0000
  H   H14       1.0  0.28270  0.21770  0.84960  1.0000
  H   H15       1.0  0.21730  0.71770  0.65040  1.0000
  H   H16       1.0  0.78270  0.71770  0.84960  1.0000
  H   H17       1.0  0.38360  0.79180  0.44940  1.0000
  H   H18       1.0  0.61640  0.79180  0.05060  1.0000
  H   H19       1.0  0.88360  0.29180  0.44940  1.0000
  H   H20       1.0  0.11640  0.29180  0.05060  1.0000
  H   H21       1.0  0.61640  0.20820  0.55060  1.0000
  H   H22       1.0  0.38360  0.20820  0.94940  1.0000
  H   H23       1.0  0.11640  0.70820  0.55060  1.0000
  H   H24       1.0  0.88360  0.70820  0.94940  1.0000
