data_image0
_chemical_formula_structural       Fe3Mn6O12N30C12H6C6H6C12H6C12H6C6H12C12H12C6H6C12H6C12H6C6H6C12H18C6H18C18Cl12
_chemical_formula_sum              "Fe3 Mn6 O12 N30 C132 H108 Cl12"
_cell_length_a       16.2948
_cell_length_b       16.2948
_cell_length_c       19.3671
_cell_angle_alpha    90
_cell_angle_beta     90
_cell_angle_gamma    120

_space_group_name_H-M_alt    "P 1"
_space_group_IT_number       1

loop_
  _space_group_symop_operation_xyz
  'x, y, z'

loop_
  _atom_site_type_symbol
  _atom_site_label
  _atom_site_symmetry_multiplicity
  _atom_site_fract_x
  _atom_site_fract_y
  _atom_site_fract_z
  _atom_site_occupancy
  Fe  Fe1       1.0  0.53315  0.00000  0.16670  1.0000
  Fe  Fe2       1.0  0.00000  0.53315  0.83337  1.0000
  Fe  Fe3       1.0  0.46685  0.46685  0.50003  1.0000
  Mn  Mn1       1.0  0.50065  0.78404  0.38441  1.0000
  Mn  Mn2       1.0  0.21596  0.71661  0.05108  1.0000
  Mn  Mn3       1.0  0.28339  0.49935  0.71774  1.0000
  Mn  Mn4       1.0  0.78404  0.50065  0.61559  1.0000
  Mn  Mn5       1.0  0.71661  0.21596  0.94892  1.0000
  Mn  Mn6       1.0  0.49935  0.28339  0.28226  1.0000
  O   O1        1.0  0.44909  0.82162  0.45757  1.0000
  O   O2        1.0  0.17838  0.62747  0.12424  1.0000
  O   O3        1.0  0.37253  0.55091  0.79090  1.0000
  O   O4        1.0  0.82162  0.44909  0.54243  1.0000
  O   O5        1.0  0.62747  0.17838  0.87576  1.0000
  O   O6        1.0  0.55091  0.37253  0.20910  1.0000
  O   O7        1.0  0.62195  0.88088  0.41056  1.0000
  O   O8        1.0  0.11912  0.74107  0.07723  1.0000
  O   O9        1.0  0.25893  0.37805  0.74389  1.0000
  O   O10       1.0  0.88088  0.62195  0.58944  1.0000
  O   O11       1.0  0.74107  0.11912  0.92277  1.0000
  O   O12       1.0  0.37805  0.25893  0.25611  1.0000
  N   N1        1.0  0.36758  0.68875  0.35500  1.0000
  N   N2        1.0  0.31125  0.67883  0.02167  1.0000
  N   N3        1.0  0.32117  0.63242  0.68833  1.0000
  N   N4        1.0  0.68875  0.36758  0.64500  1.0000
  N   N5        1.0  0.67883  0.31125  0.97833  1.0000
  N   N6        1.0  0.63242  0.32117  0.31167  1.0000
  N   N7        1.0  0.55854  0.74930  0.30471  1.0000
  N   N8        1.0  0.25070  0.80924  0.97138  1.0000
  N   N9        1.0  0.19076  0.44146  0.63804  1.0000
  N   N10       1.0  0.74930  0.55854  0.69529  1.0000
  N   N11       1.0  0.80924  0.25070  0.02862  1.0000
  N   N12       1.0  0.44146  0.19076  0.36196  1.0000
  N   N13       1.0  0.49293  0.89456  0.30768  1.0000
  N   N14       1.0  0.10544  0.59837  0.97435  1.0000
  N   N15       1.0  0.40163  0.50707  0.64101  1.0000
  N   N16       1.0  0.89456  0.49293  0.69232  1.0000
  N   N17       1.0  0.59837  0.10544  0.02565  1.0000
  N   N18       1.0  0.50707  0.40163  0.35899  1.0000
  N   N19       1.0  0.33598  0.84091  0.11339  1.0000
  N   N20       1.0  0.15909  0.49507  0.78006  1.0000
  N   N21       1.0  0.50493  0.66402  0.44672  1.0000
  N   N22       1.0  0.84091  0.33598  0.88661  1.0000
  N   N23       1.0  0.49507  0.15909  0.21994  1.0000
  N   N24       1.0  0.66402  0.50493  0.55328  1.0000
  N   N25       1.0  0.59574  0.85805  0.12105  1.0000
  N   N26       1.0  0.14195  0.73769  0.78772  1.0000
  N   N27       1.0  0.26231  0.40426  0.45438  1.0000
  N   N28       1.0  0.85805  0.59574  0.87895  1.0000
  N   N29       1.0  0.73769  0.14195  0.21228  1.0000
  N   N30       1.0  0.40426  0.26231  0.54562  1.0000
  C   C1        1.0  0.37484  0.83401  0.45056  1.0000
  C   C2        1.0  0.16599  0.54083  0.11723  1.0000
  C   C3        1.0  0.45917  0.62516  0.78389  1.0000
  C   C4        1.0  0.83401  0.37484  0.54944  1.0000
  C   C5        1.0  0.54083  0.16599  0.88277  1.0000
  C   C6        1.0  0.62516  0.45917  0.21611  1.0000
  C   C7        1.0  0.36728  0.89984  0.49327  1.0000
  C   C8        1.0  0.10016  0.46744  0.15994  1.0000
  C   C9        1.0  0.53256  0.63272  0.82660  1.0000
  C   C10       1.0  0.89984  0.36728  0.50673  1.0000
  C   C11       1.0  0.46744  0.10016  0.84006  1.0000
  C   C12       1.0  0.63272  0.53256  0.17340  1.0000
  H   H1        1.0  0.41560  0.93520  0.52610  1.0000
  H   H2        1.0  0.06480  0.48040  0.19277  1.0000
  H   H3        1.0  0.51960  0.58440  0.85943  1.0000
  H   H4        1.0  0.93520  0.41560  0.47390  1.0000
  H   H5        1.0  0.48040  0.06480  0.80723  1.0000
  H   H6        1.0  0.58440  0.51960  0.14057  1.0000
  C   C13       1.0  0.29073  0.91358  0.48794  1.0000
  C   C14       1.0  0.08642  0.37715  0.15461  1.0000
  C   C15       1.0  0.62285  0.70927  0.82127  1.0000
  C   C16       1.0  0.91358  0.29073  0.51206  1.0000
  C   C17       1.0  0.37715  0.08642  0.84539  1.0000
  C   C18       1.0  0.70927  0.62285  0.17873  1.0000
  H   H7        1.0  0.28660  0.95850  0.51680  1.0000
  H   H8        1.0  0.04150  0.32810  0.18347  1.0000
  H   H9        1.0  0.67190  0.71340  0.85013  1.0000
  H   H10       1.0  0.95850  0.28660  0.48320  1.0000
  H   H11       1.0  0.32810  0.04150  0.81653  1.0000
  H   H12       1.0  0.71340  0.67190  0.14987  1.0000
  C   C19       1.0  0.21961  0.86173  0.44034  1.0000
  C   C20       1.0  0.13827  0.35788  0.10701  1.0000
  C   C21       1.0  0.64212  0.78039  0.77367  1.0000
  C   C22       1.0  0.86173  0.21961  0.55966  1.0000
  C   C23       1.0  0.35788  0.13827  0.89299  1.0000
  C   C24       1.0  0.78039  0.64212  0.22633  1.0000
  C   C25       1.0  0.22316  0.79533  0.39901  1.0000
  C   C26       1.0  0.20467  0.42783  0.06568  1.0000
  C   C27       1.0  0.57217  0.77684  0.73234  1.0000
  C   C28       1.0  0.79533  0.22316  0.60099  1.0000
  C   C29       1.0  0.42783  0.20467  0.93432  1.0000
  C   C30       1.0  0.77684  0.57217  0.26766  1.0000
  H   H13       1.0  0.17300  0.75890  0.36770  1.0000
  H   H14       1.0  0.24110  0.41410  0.03437  1.0000
  H   H15       1.0  0.58590  0.82700  0.70103  1.0000
  H   H16       1.0  0.75890  0.17300  0.63230  1.0000
  H   H17       1.0  0.41410  0.24110  0.96563  1.0000
  H   H18       1.0  0.82700  0.58590  0.29897  1.0000
  C   C31       1.0  0.30166  0.78134  0.40322  1.0000
  C   C32       1.0  0.21866  0.52032  0.06989  1.0000
  C   C33       1.0  0.47968  0.69834  0.73655  1.0000
  C   C34       1.0  0.78134  0.30166  0.59678  1.0000
  C   C35       1.0  0.52032  0.21866  0.93011  1.0000
  C   C36       1.0  0.69834  0.47968  0.26345  1.0000
  C   C37       1.0  0.29870  0.70521  0.36305  1.0000
  C   C38       1.0  0.29479  0.59349  0.02972  1.0000
  C   C39       1.0  0.40651  0.70130  0.69638  1.0000
  C   C40       1.0  0.70521  0.29870  0.63695  1.0000
  C   C41       1.0  0.59349  0.29479  0.97028  1.0000
  C   C42       1.0  0.70130  0.40651  0.30362  1.0000
  H   H19       1.0  0.24070  0.66350  0.34050  1.0000
  H   H20       1.0  0.33650  0.57720  0.00717  1.0000
  H   H21       1.0  0.42280  0.75930  0.67383  1.0000
  H   H22       1.0  0.66350  0.24070  0.65950  1.0000
  H   H23       1.0  0.57720  0.33650  0.99283  1.0000
  H   H24       1.0  0.75930  0.42280  0.32617  1.0000
  C   C43       1.0  0.34631  0.59937  0.32082  1.0000
  C   C44       1.0  0.40063  0.74694  0.98749  1.0000
  C   C45       1.0  0.25306  0.65369  0.65415  1.0000
  C   C46       1.0  0.59937  0.34631  0.67918  1.0000
  C   C47       1.0  0.74694  0.40063  0.01251  1.0000
  C   C48       1.0  0.65369  0.25306  0.34585  1.0000
  H   H25       1.0  0.27860  0.56480  0.30740  1.0000
  H   H26       1.0  0.43520  0.71380  0.97407  1.0000
  H   H27       1.0  0.28620  0.72140  0.64073  1.0000
  H   H28       1.0  0.56480  0.27860  0.69260  1.0000
  H   H29       1.0  0.71380  0.43520  0.02593  1.0000
  H   H30       1.0  0.72140  0.28620  0.35927  1.0000
  H   H31       1.0  0.35670  0.55940  0.35410  1.0000
  H   H32       1.0  0.44060  0.79730  0.02077  1.0000
  H   H33       1.0  0.20270  0.64330  0.68743  1.0000
  H   H34       1.0  0.55940  0.35670  0.64590  1.0000
  H   H35       1.0  0.79730  0.44060  0.97923  1.0000
  H   H36       1.0  0.64330  0.20270  0.31257  1.0000
  C   C49       1.0  0.40689  0.61404  0.25647  1.0000
  C   C50       1.0  0.38596  0.79285  0.92314  1.0000
  C   C51       1.0  0.20715  0.59311  0.58980  1.0000
  C   C52       1.0  0.61404  0.40689  0.74353  1.0000
  C   C53       1.0  0.79285  0.38596  0.07686  1.0000
  C   C54       1.0  0.59311  0.20715  0.41020  1.0000
  C   C55       1.0  0.51132  0.65235  0.27555  1.0000
  C   C56       1.0  0.34765  0.85897  0.94222  1.0000
  C   C57       1.0  0.14103  0.48868  0.60888  1.0000
  C   C58       1.0  0.65235  0.51132  0.72445  1.0000
  C   C59       1.0  0.85897  0.34765  0.05778  1.0000
  C   C60       1.0  0.48868  0.14103  0.39112  1.0000
  H   H37       1.0  0.51520  0.60910  0.30960  1.0000
  H   H38       1.0  0.39090  0.90610  0.97627  1.0000
  H   H39       1.0  0.09390  0.48480  0.64293  1.0000
  H   H40       1.0  0.60910  0.51520  0.69040  1.0000
  H   H41       1.0  0.90610  0.39090  0.02373  1.0000
  H   H42       1.0  0.48480  0.09390  0.35707  1.0000
  H   H43       1.0  0.54610  0.65220  0.23370  1.0000
  H   H44       1.0  0.34780  0.89390  0.90037  1.0000
  H   H45       1.0  0.10610  0.45390  0.56703  1.0000
  H   H46       1.0  0.65220  0.54610  0.76630  1.0000
  H   H47       1.0  0.89390  0.34780  0.09963  1.0000
  H   H48       1.0  0.45390  0.10610  0.43297  1.0000
  C   C61       1.0  0.63844  0.80960  0.27766  1.0000
  C   C62       1.0  0.19040  0.82884  0.94433  1.0000
  C   C63       1.0  0.17116  0.36156  0.61099  1.0000
  C   C64       1.0  0.80960  0.63844  0.72234  1.0000
  C   C65       1.0  0.82884  0.19040  0.05567  1.0000
  C   C66       1.0  0.36156  0.17116  0.38901  1.0000
  H   H49       1.0  0.65750  0.78990  0.23750  1.0000
  H   H50       1.0  0.21010  0.86760  0.90417  1.0000
  H   H51       1.0  0.13240  0.34250  0.57083  1.0000
  H   H52       1.0  0.78990  0.65750  0.76250  1.0000
  H   H53       1.0  0.86760  0.21010  0.09583  1.0000
  H   H54       1.0  0.34250  0.13240  0.42917  1.0000
  C   C67       1.0  0.70185  0.90432  0.30241  1.0000
  C   C68       1.0  0.09568  0.79753  0.96908  1.0000
  C   C69       1.0  0.20247  0.29815  0.63574  1.0000
  C   C70       1.0  0.90432  0.70185  0.69759  1.0000
  C   C71       1.0  0.79753  0.09568  0.03092  1.0000
  C   C72       1.0  0.29815  0.20247  0.36426  1.0000
  C   C73       1.0  0.78237  0.96270  0.26239  1.0000
  C   C74       1.0  0.03730  0.81967  0.92906  1.0000
  C   C75       1.0  0.18033  0.21763  0.59572  1.0000
  C   C76       1.0  0.96270  0.78237  0.73761  1.0000
  C   C77       1.0  0.81967  0.03730  0.07094  1.0000
  C   C78       1.0  0.21763  0.18033  0.40428  1.0000
  H   H55       1.0  0.79150  0.94070  0.21920  1.0000
  H   H56       1.0  0.05930  0.85080  0.88587  1.0000
  H   H57       1.0  0.14920  0.20850  0.55253  1.0000
  H   H58       1.0  0.94070  0.79150  0.78080  1.0000
  H   H59       1.0  0.85080  0.05930  0.11413  1.0000
  H   H60       1.0  0.20850  0.14920  0.44747  1.0000
  C   C79       1.0  0.84746  0.05093  0.28542  1.0000
  C   C80       1.0  0.94907  0.79653  0.95209  1.0000
  C   C81       1.0  0.20347  0.15254  0.61875  1.0000
  C   C82       1.0  0.05093  0.84746  0.71458  1.0000
  C   C83       1.0  0.79653  0.94907  0.04791  1.0000
  C   C84       1.0  0.15254  0.20347  0.38125  1.0000
  C   C85       1.0  0.83507  0.08497  0.34818  1.0000
  C   C86       1.0  0.91503  0.75010  0.01485  1.0000
  C   C87       1.0  0.24990  0.16493  0.68151  1.0000
  C   C88       1.0  0.08497  0.83507  0.65182  1.0000
  C   C89       1.0  0.75010  0.91503  0.98515  1.0000
  C   C90       1.0  0.16493  0.24990  0.31849  1.0000
  H   H61       1.0  0.87990  0.14720  0.36290  1.0000
  H   H62       1.0  0.85280  0.73270  0.02957  1.0000
  H   H63       1.0  0.26730  0.12010  0.69623  1.0000
  H   H64       1.0  0.14720  0.87990  0.63710  1.0000
  H   H65       1.0  0.73270  0.85280  0.97043  1.0000
  H   H66       1.0  0.12010  0.26730  0.30377  1.0000
  C   C91       1.0  0.75752  0.02818  0.38889  1.0000
  C   C92       1.0  0.97182  0.72934  0.05556  1.0000
  C   C93       1.0  0.27066  0.24248  0.72222  1.0000
  C   C94       1.0  0.02818  0.75752  0.61111  1.0000
  C   C95       1.0  0.72934  0.97182  0.94444  1.0000
  C   C96       1.0  0.24248  0.27066  0.27778  1.0000
  H   H67       1.0  0.74940  0.05150  0.43170  1.0000
  H   H68       1.0  0.94850  0.69790  0.09837  1.0000
  H   H69       1.0  0.30210  0.25060  0.76503  1.0000
  H   H70       1.0  0.05150  0.74940  0.56830  1.0000
  H   H71       1.0  0.69790  0.94850  0.90163  1.0000
  H   H72       1.0  0.25060  0.30210  0.23497  1.0000
  C   C97       1.0  0.69036  0.93598  0.36743  1.0000
  C   C98       1.0  0.06402  0.75438  0.03410  1.0000
  C   C99       1.0  0.24562  0.30964  0.70076  1.0000
  C   C100      1.0  0.93598  0.69036  0.63257  1.0000
  C   C101      1.0  0.75438  0.06402  0.96590  1.0000
  C   C102      1.0  0.30964  0.24562  0.29924  1.0000
  C   C103      1.0  0.39524  0.67854  0.20544  1.0000
  C   C104      1.0  0.32146  0.71670  0.87211  1.0000
  C   C105      1.0  0.28330  0.60476  0.53877  1.0000
  C   C106      1.0  0.67854  0.39524  0.79456  1.0000
  C   C107      1.0  0.71670  0.32146  0.12789  1.0000
  C   C108      1.0  0.60476  0.28330  0.46123  1.0000
  H   H73       1.0  0.32810  0.65090  0.19330  1.0000
  H   H74       1.0  0.34910  0.67720  0.85997  1.0000
  H   H75       1.0  0.32280  0.67190  0.52663  1.0000
  H   H76       1.0  0.65090  0.32810  0.80670  1.0000
  H   H77       1.0  0.67720  0.34910  0.14003  1.0000
  H   H78       1.0  0.67190  0.32280  0.47337  1.0000
  H   H79       1.0  0.43200  0.68530  0.16360  1.0000
  H   H80       1.0  0.31470  0.74670  0.83027  1.0000
  H   H81       1.0  0.25330  0.56800  0.49693  1.0000
  H   H82       1.0  0.68530  0.43200  0.83640  1.0000
  H   H83       1.0  0.74670  0.31470  0.16973  1.0000
  H   H84       1.0  0.56800  0.25330  0.50307  1.0000
  H   H85       1.0  0.41810  0.74100  0.22640  1.0000
  H   H86       1.0  0.25900  0.67710  0.89307  1.0000
  H   H87       1.0  0.32290  0.58190  0.55973  1.0000
  H   H88       1.0  0.74100  0.41810  0.77360  1.0000
  H   H89       1.0  0.67710  0.25900  0.10693  1.0000
  H   H90       1.0  0.58190  0.32290  0.44027  1.0000
  C   C109      1.0  0.37270  0.51572  0.22489  1.0000
  C   C110      1.0  0.48428  0.85698  0.89156  1.0000
  C   C111      1.0  0.14302  0.62730  0.55822  1.0000
  C   C112      1.0  0.51572  0.37270  0.77511  1.0000
  C   C113      1.0  0.85698  0.48428  0.10844  1.0000
  C   C114      1.0  0.62730  0.14302  0.44178  1.0000
  H   H91       1.0  0.30520  0.48630  0.21340  1.0000
  H   H92       1.0  0.51370  0.81890  0.88007  1.0000
  H   H93       1.0  0.18110  0.69480  0.54673  1.0000
  H   H94       1.0  0.48630  0.30520  0.78660  1.0000
  H   H95       1.0  0.81890  0.51370  0.11993  1.0000
  H   H96       1.0  0.69480  0.18110  0.45327  1.0000
  H   H97       1.0  0.38210  0.47590  0.25820  1.0000
  H   H98       1.0  0.52410  0.90620  0.92487  1.0000
  H   H99       1.0  0.09380  0.61790  0.59153  1.0000
  H   H100      1.0  0.47590  0.38210  0.74180  1.0000
  H   H101      1.0  0.90620  0.52410  0.07513  1.0000
  H   H102      1.0  0.61790  0.09380  0.40847  1.0000
  H   H103      1.0  0.40890  0.52220  0.18280  1.0000
  H   H104      1.0  0.47780  0.88670  0.84947  1.0000
  H   H105      1.0  0.11330  0.59110  0.51613  1.0000
  H   H106      1.0  0.52220  0.40890  0.81720  1.0000
  H   H107      1.0  0.88670  0.47780  0.15053  1.0000
  H   H108      1.0  0.59110  0.11330  0.48387  1.0000
  C   C115      1.0  0.40639  0.90251  0.13404  1.0000
  C   C116      1.0  0.09749  0.50388  0.80071  1.0000
  C   C117      1.0  0.49612  0.59361  0.46737  1.0000
  C   C118      1.0  0.90251  0.40639  0.86596  1.0000
  C   C119      1.0  0.50388  0.09749  0.19929  1.0000
  C   C120      1.0  0.59361  0.49612  0.53263  1.0000
  C   C121      1.0  0.57365  0.91231  0.13713  1.0000
  C   C122      1.0  0.08769  0.66134  0.80380  1.0000
  C   C123      1.0  0.33866  0.42635  0.47046  1.0000
  C   C124      1.0  0.91231  0.57365  0.86287  1.0000
  C   C125      1.0  0.66134  0.08769  0.19620  1.0000
  C   C126      1.0  0.42635  0.33866  0.52954  1.0000
  C   C127      1.0  0.50598  0.93670  0.25679  1.0000
  C   C128      1.0  0.06330  0.56928  0.92346  1.0000
  C   C129      1.0  0.43072  0.49402  0.59012  1.0000
  C   C130      1.0  0.93670  0.50598  0.74321  1.0000
  C   C131      1.0  0.56928  0.06330  0.07654  1.0000
  C   C132      1.0  0.49402  0.43072  0.40988  1.0000
  Cl  Cl1       1.0  0.12431  0.88233  0.43255  1.0000
  Cl  Cl2       1.0  0.11767  0.24198  0.09922  1.0000
  Cl  Cl3       1.0  0.75802  0.87569  0.76588  1.0000
  Cl  Cl4       1.0  0.88233  0.12431  0.56745  1.0000
  Cl  Cl5       1.0  0.24198  0.11767  0.90078  1.0000
  Cl  Cl6       1.0  0.87569  0.75802  0.23412  1.0000
  Cl  Cl7       1.0  0.94738  0.12270  0.23530  1.0000
  Cl  Cl8       1.0  0.87730  0.82468  0.90197  1.0000
  Cl  Cl9       1.0  0.17532  0.05262  0.56863  1.0000
  Cl  Cl10      1.0  0.12270  0.94738  0.76470  1.0000
  Cl  Cl11      1.0  0.82468  0.87730  0.09803  1.0000
  Cl  Cl12      1.0  0.05262  0.17532  0.43137  1.0000
