data_image0
_chemical_formula_structural       U4O2C2H2C2H2O2C4H2C2H2C2O16C4O8C4H4O4C4O2C6H2C2H2C2H2O2C2H2N2C2H2C2H2C4H2C2H2N2C4H4C2O4
_chemical_formula_sum              "U4 O40 C52 H32 N4"
_cell_length_a       18.562
_cell_length_b       19.966
_cell_length_c       22.588
_cell_angle_alpha    90
_cell_angle_beta     97.35
_cell_angle_gamma    90

_space_group_name_H-M_alt    "P 1"
_space_group_IT_number       1

loop_
  _space_group_symop_operation_xyz
  'x, y, z'

loop_
  _atom_site_type_symbol
  _atom_site_label
  _atom_site_symmetry_multiplicity
  _atom_site_fract_x
  _atom_site_fract_y
  _atom_site_fract_z
  _atom_site_occupancy
  U   U1        1.0  0.11163  0.70996  0.65434  1.0000
  U   U2        1.0  0.88837  0.20996  0.34566  1.0000
  U   U3        1.0  0.29419  0.56616  0.83737  1.0000
  U   U4        1.0  0.70581  0.06616  0.16263  1.0000
  O   O1        1.0  0.93630  0.62600  0.58320  1.0000
  O   O2        1.0  0.06370  0.12600  0.41680  1.0000
  C   C1        1.0  0.86570  0.56310  0.68310  1.0000
  C   C2        1.0  0.13430  0.06310  0.31690  1.0000
  H   H1        1.0  0.83320  0.56760  0.64840  1.0000
  H   H2        1.0  0.16680  0.06760  0.35160  1.0000
  C   C3        1.0  0.93840  0.54930  0.78010  1.0000
  C   C4        1.0  0.06160  0.04930  0.21990  1.0000
  H   H3        1.0  0.96900  0.54780  0.81610  1.0000
  H   H4        1.0  0.03100  0.04780  0.18390  1.0000
  O   O3        1.0  0.30880  0.34890  0.87650  1.0000
  O   O4        1.0  0.69120  0.84890  0.12350  1.0000
  C   C5        1.0  0.97500  0.61200  0.62290  1.0000
  C   C6        1.0  0.02500  0.11200  0.37710  1.0000
  C   C7        1.0  0.97620  0.56950  0.72760  1.0000
  C   C8        1.0  0.02380  0.06950  0.27240  1.0000
  H   H5        1.0  0.02650  0.57370  0.73220  1.0000
  H   H6        1.0  0.97350  0.07370  0.26780  1.0000
  C   C9        1.0  0.83220  0.53850  0.73700  1.0000
  C   C10       1.0  0.16780  0.03850  0.26300  1.0000
  H   H7        1.0  0.78310  0.52760  0.73260  1.0000
  H   H8        1.0  0.21690  0.02760  0.26740  1.0000
  C   C11       1.0  0.82150  0.43790  0.84700  1.0000
  C   C12       1.0  0.17850  0.93790  0.15300  1.0000
  O   O5        1.0  0.21730  0.57460  0.88810  1.0000
  O   O6        1.0  0.78270  0.07460  0.11190  1.0000
  O   O7        1.0  0.37030  0.55610  0.78490  1.0000
  O   O8        1.0  0.62970  0.05610  0.21510  1.0000
  O   O9        1.0  0.18790  0.69800  0.60140  1.0000
  O   O10       1.0  0.81210  0.19800  0.39860  1.0000
  O   O11       1.0  0.19510  0.72460  0.73000  1.0000
  O   O12       1.0  0.80490  0.22460  0.27000  1.0000
  O   O13       1.0  0.03620  0.72620  0.70650  1.0000
  O   O14       1.0  0.96380  0.22620  0.29350  1.0000
  O   O15       1.0  0.21990  0.55370  0.75770  1.0000
  O   O16       1.0  0.78010  0.05370  0.24230  1.0000
  O   O17       1.0  0.14720  0.60420  0.69920  1.0000
  O   O18       1.0  0.85280  0.10420  0.30080  1.0000
  O   O19       1.0  0.26580  0.67500  0.79070  1.0000
  O   O20       1.0  0.73420  0.17500  0.20930  1.0000
  C   C13       1.0  0.22010  0.67330  0.75460  1.0000
  C   C14       1.0  0.77990  0.17330  0.24540  1.0000
  C   C15       1.0  0.19310  0.60390  0.73540  1.0000
  C   C16       1.0  0.80690  0.10390  0.26460  1.0000
  O   O21       1.0  0.05950  0.76670  0.57910  1.0000
  O   O22       1.0  0.94050  0.26670  0.42090  1.0000
  O   O23       1.0  0.14060  0.82700  0.64880  1.0000
  O   O24       1.0  0.85940  0.32700  0.35120  1.0000
  O   O25       1.0  0.27980  0.44780  0.83840  1.0000
  O   O26       1.0  0.72020  0.94780  0.16160  1.0000
  O   O27       1.0  0.34980  0.51180  0.91490  1.0000
  O   O28       1.0  0.65020  0.01180  0.08510  1.0000
  C   C17       1.0  0.93970  0.58060  0.67720  1.0000
  C   C18       1.0  0.06030  0.08060  0.32280  1.0000
  C   C19       1.0  0.82830  0.51110  0.84400  1.0000
  C   C20       1.0  0.17170  0.01110  0.15600  1.0000
  H   H9        1.0  0.85700  0.52730  0.88000  1.0000
  H   H10       1.0  0.14300  0.02730  0.12000  1.0000
  H   H11       1.0  0.78050  0.53130  0.84140  1.0000
  H   H12       1.0  0.21950  0.03130  0.15860  1.0000
  O   O29       1.0  0.36770  0.41760  0.96490  1.0000
  O   O30       1.0  0.63230  0.91760  0.03510  1.0000
  O   O31       1.0  0.04290  0.62430  0.61730  1.0000
  O   O32       1.0  0.95710  0.12430  0.38270  1.0000
  C   C21       1.0  0.30720  0.41080  0.87600  1.0000
  C   C22       1.0  0.69280  0.91080  0.12400  1.0000
  C   C23       1.0  0.13630  0.85720  0.59740  1.0000
  C   C24       1.0  0.86370  0.35720  0.40260  1.0000
  O   O33       1.0  0.16350  0.91090  0.58290  1.0000
  O   O34       1.0  0.83650  0.41090  0.41710  1.0000
  C   C25       1.0  0.08920  0.82120  0.55580  1.0000
  C   C26       1.0  0.91080  0.32120  0.44420  1.0000
  C   C27       1.0  0.34530  0.44810  0.92300  1.0000
  C   C28       1.0  0.65470  0.94810  0.07700  1.0000
  C   C29       1.0  0.75720  0.40720  0.85400  1.0000
  C   C30       1.0  0.24280  0.90720  0.14600  1.0000
  H   H13       1.0  0.71750  0.43520  0.85610  1.0000
  H   H14       1.0  0.28250  0.93520  0.14390  1.0000
  C   C31       1.0  0.74450  0.33840  0.85830  1.0000
  C   C32       1.0  0.25550  0.83840  0.14170  1.0000
  H   H15       1.0  0.69980  0.32130  0.86540  1.0000
  H   H16       1.0  0.30020  0.82130  0.13460  1.0000
  C   C33       1.0  0.87970  0.39570  0.84280  1.0000
  C   C34       1.0  0.12030  0.89570  0.15720  1.0000
  H   H17       1.0  0.92500  0.41400  0.83890  1.0000
  H   H18       1.0  0.07500  0.91400  0.16110  1.0000
  O   O35       1.0  0.08270  0.84350  0.50860  1.0000
  O   O36       1.0  0.91730  0.34350  0.49140  1.0000
  C   C35       1.0  0.87200  0.32560  0.84420  1.0000
  C   C36       1.0  0.12800  0.82560  0.15580  1.0000
  H   H19       1.0  0.91160  0.29810  0.84040  1.0000
  H   H20       1.0  0.08840  0.79810  0.15960  1.0000
  N   N1        1.0  0.86750  0.53270  0.78510  1.0000
  N   N2        1.0  0.13250  0.03270  0.21490  1.0000
  C   C37       1.0  0.67780  0.18280  0.90980  1.0000
  C   C38       1.0  0.32220  0.68280  0.09020  1.0000
  H   H21       1.0  0.65400  0.17440  0.87170  1.0000
  H   H22       1.0  0.34600  0.67440  0.12830  1.0000
  C   C39       1.0  0.63400  0.17000  0.96100  1.0000
  C   C40       1.0  0.36600  0.67000  0.03900  1.0000
  H   H23       1.0  0.58500  0.15960  0.95160  1.0000
  H   H24       1.0  0.41500  0.65960  0.04840  1.0000
  C   C41       1.0  0.66000  0.17250  0.01630  1.0000
  C   C42       1.0  0.34000  0.67250  0.98370  1.0000
  C   C43       1.0  0.72560  0.19210  0.01770  1.0000
  C   C44       1.0  0.27440  0.69210  0.98230  1.0000
  H   H25       1.0  0.75130  0.19540  0.05580  1.0000
  H   H26       1.0  0.24870  0.69540  0.94420  1.0000
  C   C45       1.0  0.77180  0.21240  0.96330  1.0000
  C   C46       1.0  0.22820  0.71240  0.03670  1.0000
  H   H27       1.0  0.81830  0.23000  0.97210  1.0000
  H   H28       1.0  0.18170  0.73000  0.02790  1.0000
  N   N3        1.0  0.74640  0.20470  0.91260  1.0000
  N   N4        1.0  0.25360  0.70470  0.08740  1.0000
  C   C47       1.0  0.80420  0.29700  0.85130  1.0000
  C   C48       1.0  0.19580  0.79700  0.14870  1.0000
  C   C49       1.0  0.78990  0.22120  0.85460  1.0000
  C   C50       1.0  0.21010  0.72120  0.14540  1.0000
  H   H29       1.0  0.83570  0.19710  0.85850  1.0000
  H   H30       1.0  0.16430  0.69710  0.14150  1.0000
  H   H31       1.0  0.76090  0.20640  0.81810  1.0000
  H   H32       1.0  0.23910  0.70640  0.18190  1.0000
  C   C51       1.0  0.61270  0.15760  0.07020  1.0000
  C   C52       1.0  0.38730  0.65760  0.92980  1.0000
  O   O37       1.0  0.64390  0.14860  0.11710  1.0000
  O   O38       1.0  0.35610  0.64860  0.88290  1.0000
  O   O39       1.0  0.54540  0.15180  0.07180  1.0000
  O   O40       1.0  0.45460  0.65180  0.92820  1.0000
