data_image0
_chemical_formula_structural       In6C24H4C4H4C12O36H4
_chemical_formula_sum              "In6 C40 H12 O36"
_cell_length_a       7.2441
_cell_length_b       14.2018
_cell_length_c       17.147
_cell_angle_alpha    90
_cell_angle_beta     100.96
_cell_angle_gamma    90

_space_group_name_H-M_alt    "P 1"
_space_group_IT_number       1

loop_
  _space_group_symop_operation_xyz
  'x, y, z'

loop_
  _atom_site_type_symbol
  _atom_site_label
  _atom_site_symmetry_multiplicity
  _atom_site_fract_x
  _atom_site_fract_y
  _atom_site_fract_z
  _atom_site_occupancy
  In  In1       1.0  0.03526  0.09049  0.55932  1.0000
  In  In2       1.0  0.96474  0.59049  0.94068  1.0000
  In  In3       1.0  0.96474  0.90951  0.44068  1.0000
  In  In4       1.0  0.03526  0.40951  0.05932  1.0000
  In  In5       1.0  0.50000  0.50000  0.00000  1.0000
  In  In6       1.0  0.50000  0.00000  0.50000  1.0000
  C   C1        1.0  0.43770  0.34480  0.12680  1.0000
  C   C2        1.0  0.56230  0.84480  0.37320  1.0000
  C   C3        1.0  0.56230  0.65520  0.87320  1.0000
  C   C4        1.0  0.43770  0.15520  0.62680  1.0000
  C   C5        1.0  0.42060  0.13860  0.36190  1.0000
  C   C6        1.0  0.57940  0.63860  0.13810  1.0000
  C   C7        1.0  0.57940  0.86140  0.63810  1.0000
  C   C8        1.0  0.42060  0.36140  0.86190  1.0000
  C   C9        1.0  0.83220  0.11590  0.38570  1.0000
  C   C10       1.0  0.16780  0.61590  0.11430  1.0000
  C   C11       1.0  0.16780  0.88410  0.61430  1.0000
  C   C12       1.0  0.83220  0.38410  0.88570  1.0000
  C   C13       1.0  0.53040  0.18480  0.30660  1.0000
  C   C14       1.0  0.46960  0.68480  0.19340  1.0000
  C   C15       1.0  0.46960  0.81520  0.69340  1.0000
  C   C16       1.0  0.53040  0.31520  0.80660  1.0000
  C   C17       1.0  0.73670  0.27800  0.20940  1.0000
  C   C18       1.0  0.26330  0.77800  0.29060  1.0000
  C   C19       1.0  0.26330  0.72200  0.79060  1.0000
  C   C20       1.0  0.73670  0.22200  0.70940  1.0000
  C   C21       1.0  0.82860  0.22540  0.27230  1.0000
  C   C22       1.0  0.17140  0.72540  0.22770  1.0000
  C   C23       1.0  0.17140  0.77460  0.72770  1.0000
  C   C24       1.0  0.82860  0.27460  0.77230  1.0000
  H   H1        1.0  0.95910  0.22110  0.28200  1.0000
  H   H2        1.0  0.04090  0.72110  0.21800  1.0000
  H   H3        1.0  0.04090  0.77890  0.71800  1.0000
  H   H4        1.0  0.95910  0.27890  0.78200  1.0000
  C   C25       1.0  0.43900  0.23650  0.24270  1.0000
  C   C26       1.0  0.56100  0.73650  0.25730  1.0000
  C   C27       1.0  0.56100  0.76350  0.75730  1.0000
  C   C28       1.0  0.43900  0.26350  0.74270  1.0000
  H   H5        1.0  0.30830  0.23920  0.23230  1.0000
  H   H6        1.0  0.69170  0.73920  0.26770  1.0000
  H   H7        1.0  0.69170  0.76080  0.76770  1.0000
  H   H8        1.0  0.30830  0.26080  0.73230  1.0000
  C   C29       1.0  0.72630  0.17860  0.32150  1.0000
  C   C30       1.0  0.27370  0.67860  0.17850  1.0000
  C   C31       1.0  0.27370  0.82140  0.67850  1.0000
  C   C32       1.0  0.72630  0.32140  0.82150  1.0000
  C   C33       1.0  0.54010  0.28490  0.19300  1.0000
  C   C34       1.0  0.45990  0.78490  0.30700  1.0000
  C   C35       1.0  0.45990  0.71510  0.80700  1.0000
  C   C36       1.0  0.54010  0.21510  0.69300  1.0000
  C   C37       1.0  0.85350  0.32490  0.15690  1.0000
  C   C38       1.0  0.14650  0.82490  0.34310  1.0000
  C   C39       1.0  0.14650  0.67510  0.84310  1.0000
  C   C40       1.0  0.85350  0.17510  0.65690  1.0000
  O   O1        1.0  0.84760  0.29570  0.08810  1.0000
  O   O2        1.0  0.15240  0.79570  0.41190  1.0000
  O   O3        1.0  0.15240  0.70430  0.91190  1.0000
  O   O4        1.0  0.84760  0.20430  0.58810  1.0000
  O   O5        1.0  0.95980  0.39110  0.18330  1.0000
  O   O6        1.0  0.04020  0.89110  0.31670  1.0000
  O   O7        1.0  0.04020  0.60890  0.81670  1.0000
  O   O8        1.0  0.95980  0.10890  0.68330  1.0000
  O   O9        1.0  0.27030  0.32160  0.09850  1.0000
  O   O10       1.0  0.72970  0.82160  0.40150  1.0000
  O   O11       1.0  0.72970  0.67840  0.90150  1.0000
  O   O12       1.0  0.27030  0.17840  0.59850  1.0000
  O   O13       1.0  0.52680  0.41150  0.10510  1.0000
  O   O14       1.0  0.47320  0.91150  0.39490  1.0000
  O   O15       1.0  0.47320  0.58850  0.89490  1.0000
  O   O16       1.0  0.52680  0.08850  0.60510  1.0000
  O   O17       1.0  0.51950  0.11980  0.43100  1.0000
  O   O18       1.0  0.48050  0.61980  0.06900  1.0000
  O   O19       1.0  0.48050  0.88020  0.56900  1.0000
  O   O20       1.0  0.51950  0.38020  0.93100  1.0000
  O   O21       1.0  0.25240  0.12090  0.34250  1.0000
  O   O22       1.0  0.74760  0.62090  0.15750  1.0000
  O   O23       1.0  0.74760  0.87910  0.65750  1.0000
  O   O24       1.0  0.25240  0.37910  0.84250  1.0000
  O   O25       1.0  0.92940  0.15720  0.44460  1.0000
  O   O26       1.0  0.07060  0.65720  0.05540  1.0000
  O   O27       1.0  0.07060  0.84280  0.55540  1.0000
  O   O28       1.0  0.92940  0.34280  0.94460  1.0000
  O   O29       1.0  0.82490  0.03000  0.37210  1.0000
  O   O30       1.0  0.17510  0.53000  0.12790  1.0000
  O   O31       1.0  0.17510  0.97000  0.62790  1.0000
  O   O32       1.0  0.82490  0.47000  0.87210  1.0000
  O   O33       1.0  0.80630  0.98700  0.52860  1.0000
  O   O34       1.0  0.19370  0.48700  0.97140  1.0000
  O   O35       1.0  0.19370  0.01300  0.47140  1.0000
  O   O36       1.0  0.80630  0.51300  0.02860  1.0000
  H   H9        1.0  0.82650  0.94520  0.57480  1.0000
  H   H10       1.0  0.17350  0.44520  0.92520  1.0000
  H   H11       1.0  0.17350  0.05480  0.42520  1.0000
  H   H12       1.0  0.82650  0.55480  0.07480  1.0000
