data_image0
_chemical_formula_structural       U4S8O48C16H4C4H4C4H4C4H4C16H4C4H4C4H4C4H4
_chemical_formula_sum              "U4 S8 O48 C56 H32"
_cell_length_a       11.2043
_cell_length_b       15.0029
_cell_length_c       17.9274
_cell_angle_alpha    90
_cell_angle_beta     96.5021
_cell_angle_gamma    90

_space_group_name_H-M_alt    "P 1"
_space_group_IT_number       1

loop_
  _space_group_symop_operation_xyz
  'x, y, z'

loop_
  _atom_site_type_symbol
  _atom_site_label
  _atom_site_symmetry_multiplicity
  _atom_site_fract_x
  _atom_site_fract_y
  _atom_site_fract_z
  _atom_site_occupancy
  U   U1        1.0  0.62623  0.33542  0.03675  1.0000
  U   U2        1.0  0.87377  0.83542  0.46325  1.0000
  U   U3        1.0  0.37377  0.66458  0.96325  1.0000
  U   U4        1.0  0.12623  0.16458  0.53675  1.0000
  S   S1        1.0  0.79700  0.38778  0.88011  1.0000
  S   S2        1.0  0.70300  0.88778  0.61989  1.0000
  S   S3        1.0  0.20300  0.61222  0.11989  1.0000
  S   S4        1.0  0.29700  0.11222  0.38011  1.0000
  S   S5        1.0  0.55570  0.14697  0.14793  1.0000
  S   S6        1.0  0.94430  0.64697  0.35207  1.0000
  S   S7        1.0  0.44430  0.85303  0.85207  1.0000
  S   S8        1.0  0.05570  0.35303  0.64793  1.0000
  O   O1        1.0  0.52796  0.27562  0.97153  1.0000
  O   O2        1.0  0.97204  0.77562  0.52847  1.0000
  O   O3        1.0  0.47204  0.72438  0.02847  1.0000
  O   O4        1.0  0.02796  0.22438  0.47153  1.0000
  O   O5        1.0  0.72320  0.39945  0.10043  1.0000
  O   O6        1.0  0.77680  0.89945  0.39957  1.0000
  O   O7        1.0  0.27680  0.60055  0.89957  1.0000
  O   O8        1.0  0.22320  0.10055  0.60043  1.0000
  O   O9        1.0  0.59034  0.45851  0.95779  1.0000
  O   O10       1.0  0.90966  0.95851  0.54221  1.0000
  O   O11       1.0  0.40966  0.54149  0.04221  1.0000
  O   O12       1.0  0.09034  0.04149  0.45779  1.0000
  O   O13       1.0  0.53379  0.59152  0.91395  1.0000
  O   O14       1.0  0.96621  0.09152  0.58605  1.0000
  O   O15       1.0  0.46621  0.40848  0.08605  1.0000
  O   O16       1.0  0.03379  0.90848  0.41395  1.0000
  O   O17       1.0  0.77610  0.33876  0.94931  1.0000
  O   O18       1.0  0.72390  0.83876  0.55069  1.0000
  O   O19       1.0  0.22390  0.66124  0.05069  1.0000
  O   O20       1.0  0.27610  0.16124  0.44931  1.0000
  O   O21       1.0  0.69245  0.39034  0.82515  1.0000
  O   O22       1.0  0.80755  0.89034  0.67485  1.0000
  O   O23       1.0  0.30755  0.60966  0.17485  1.0000
  O   O24       1.0  0.19245  0.10966  0.32515  1.0000
  O   O25       1.0  0.90400  0.35290  0.85222  1.0000
  O   O26       1.0  0.59600  0.85290  0.64778  1.0000
  O   O27       1.0  0.09600  0.64710  0.14778  1.0000
  O   O28       1.0  0.40400  0.14710  0.35222  1.0000
  O   O29       1.0  0.75806  0.21924  0.06433  1.0000
  O   O30       1.0  0.74194  0.71924  0.43567  1.0000
  O   O31       1.0  0.24194  0.78076  0.93567  1.0000
  O   O32       1.0  0.25806  0.28076  0.56433  1.0000
  O   O33       1.0  0.88779  0.10981  0.06862  1.0000
  O   O34       1.0  0.61221  0.60981  0.43138  1.0000
  O   O35       1.0  0.11221  0.89019  0.93138  1.0000
  O   O36       1.0  0.38779  0.39019  0.56862  1.0000
  O   O37       1.0  0.54370  0.24524  0.13372  1.0000
  O   O38       1.0  0.95630  0.74524  0.36628  1.0000
  O   O39       1.0  0.45630  0.75476  0.86628  1.0000
  O   O40       1.0  0.04370  0.25476  0.63372  1.0000
  O   O41       1.0  0.56731  0.09688  0.08083  1.0000
  O   O42       1.0  0.93269  0.59688  0.41917  1.0000
  O   O43       1.0  0.43269  0.90312  0.91917  1.0000
  O   O44       1.0  0.06731  0.40312  0.58083  1.0000
  O   O45       1.0  0.46134  0.11788  0.19118  1.0000
  O   O46       1.0  0.03866  0.61788  0.30882  1.0000
  O   O47       1.0  0.53866  0.88212  0.80882  1.0000
  O   O48       1.0  0.96134  0.38212  0.69118  1.0000
  C   C1        1.0  0.61320  0.53331  0.93217  1.0000
  C   C2        1.0  0.88680  0.03331  0.56783  1.0000
  C   C3        1.0  0.38680  0.46669  0.06783  1.0000
  C   C4        1.0  0.11320  0.96669  0.43217  1.0000
  C   C5        1.0  0.74070  0.55940  0.92428  1.0000
  C   C6        1.0  0.75930  0.05940  0.57572  1.0000
  C   C7        1.0  0.25930  0.44060  0.07572  1.0000
  C   C8        1.0  0.24070  0.94060  0.42428  1.0000
  C   C9        1.0  0.83040  0.49950  0.90738  1.0000
  C   C10       1.0  0.66960  0.99950  0.59262  1.0000
  C   C11       1.0  0.16960  0.50050  0.09262  1.0000
  C   C12       1.0  0.33040  0.00050  0.40738  1.0000
  C   C13       1.0  0.94730  0.53010  0.90602  1.0000
  C   C14       1.0  0.55270  0.03010  0.59398  1.0000
  C   C15       1.0  0.05270  0.46990  0.09398  1.0000
  C   C16       1.0  0.44730  0.96990  0.40602  1.0000
  H   H1        1.0  0.00680  0.49070  0.89470  1.0000
  H   H2        1.0  0.49320  0.99070  0.60530  1.0000
  H   H3        1.0  0.99320  0.50930  0.10530  1.0000
  H   H4        1.0  0.50680  0.00930  0.39470  1.0000
  C   C17       1.0  0.97640  0.61850  0.92120  1.0000
  C   C18       1.0  0.52360  0.11850  0.57880  1.0000
  C   C19       1.0  0.02360  0.38150  0.07880  1.0000
  C   C20       1.0  0.47640  0.88150  0.42120  1.0000
  H   H5        1.0  0.05540  0.63770  0.92200  1.0000
  H   H6        1.0  0.44460  0.13770  0.57800  1.0000
  H   H7        1.0  0.94460  0.36230  0.07800  1.0000
  H   H8        1.0  0.55540  0.86230  0.42200  1.0000
  C   C21       1.0  0.88770  0.67790  0.93520  1.0000
  C   C22       1.0  0.61230  0.17790  0.56480  1.0000
  C   C23       1.0  0.11230  0.32210  0.06480  1.0000
  C   C24       1.0  0.38770  0.82210  0.43520  1.0000
  H   H9        1.0  0.90670  0.73760  0.94390  1.0000
  H   H10       1.0  0.59330  0.23760  0.55610  1.0000
  H   H11       1.0  0.09330  0.26240  0.05610  1.0000
  H   H12       1.0  0.40670  0.76240  0.44390  1.0000
  C   C25       1.0  0.77050  0.64900  0.93620  1.0000
  C   C26       1.0  0.72950  0.14900  0.56380  1.0000
  C   C27       1.0  0.22950  0.35100  0.06380  1.0000
  C   C28       1.0  0.27050  0.85100  0.43620  1.0000
  H   H13       1.0  0.71110  0.68970  0.94490  1.0000
  H   H14       1.0  0.78890  0.18970  0.55510  1.0000
  H   H15       1.0  0.28890  0.31030  0.05510  1.0000
  H   H16       1.0  0.21110  0.81030  0.44490  1.0000
  C   C29       1.0  0.81650  0.15681  0.09903  1.0000
  C   C30       1.0  0.68350  0.65681  0.40097  1.0000
  C   C31       1.0  0.18350  0.84319  0.90097  1.0000
  C   C32       1.0  0.31650  0.34319  0.59903  1.0000
  C   C33       1.0  0.80260  0.14290  0.18049  1.0000
  C   C34       1.0  0.69740  0.64290  0.31951  1.0000
  C   C35       1.0  0.19740  0.85710  0.81951  1.0000
  C   C36       1.0  0.30260  0.35710  0.68049  1.0000
  C   C37       1.0  0.69150  0.13820  0.20851  1.0000
  C   C38       1.0  0.80850  0.63820  0.29149  1.0000
  C   C39       1.0  0.30850  0.86180  0.79149  1.0000
  C   C40       1.0  0.19150  0.36180  0.70851  1.0000
  C   C41       1.0  0.68450  0.12810  0.28503  1.0000
  C   C42       1.0  0.81550  0.62810  0.21497  1.0000
  C   C43       1.0  0.31550  0.87190  0.71497  1.0000
  C   C44       1.0  0.18450  0.37190  0.78503  1.0000
  H   H17       1.0  0.61010  0.12410  0.30310  1.0000
  H   H18       1.0  0.88990  0.62410  0.19690  1.0000
  H   H19       1.0  0.38990  0.87590  0.69690  1.0000
  H   H20       1.0  0.11010  0.37590  0.80310  1.0000
  C   C45       1.0  0.78960  0.12410  0.33420  1.0000
  C   C46       1.0  0.71040  0.62410  0.16580  1.0000
  C   C47       1.0  0.21040  0.87590  0.66580  1.0000
  C   C48       1.0  0.28960  0.37590  0.83420  1.0000
  H   H21       1.0  0.78520  0.11820  0.38550  1.0000
  H   H22       1.0  0.71480  0.61820  0.11450  1.0000
  H   H23       1.0  0.21480  0.88180  0.61450  1.0000
  H   H24       1.0  0.28520  0.38180  0.88550  1.0000
  C   C49       1.0  0.90030  0.12880  0.30775  1.0000
  C   C50       1.0  0.59970  0.62880  0.19225  1.0000
  C   C51       1.0  0.09970  0.87120  0.69225  1.0000
  C   C52       1.0  0.40030  0.37120  0.80775  1.0000
  H   H25       1.0  0.97010  0.12590  0.34110  1.0000
  H   H26       1.0  0.52990  0.62590  0.15890  1.0000
  H   H27       1.0  0.02990  0.87410  0.65890  1.0000
  H   H28       1.0  0.47010  0.37410  0.84110  1.0000
  C   C53       1.0  0.90720  0.13780  0.23149  1.0000
  C   C54       1.0  0.59280  0.63780  0.26851  1.0000
  C   C55       1.0  0.09280  0.86220  0.76851  1.0000
  C   C56       1.0  0.40720  0.36220  0.73149  1.0000
  H   H29       1.0  0.98210  0.14050  0.21380  1.0000
  H   H30       1.0  0.51790  0.64050  0.28620  1.0000
  H   H31       1.0  0.01790  0.85950  0.78620  1.0000
  H   H32       1.0  0.48210  0.35950  0.71380  1.0000
