data_image0
_chemical_formula_structural       U3S2O18C8H2C2H2C2H2C2H2
_chemical_formula_sum              "U3 S2 O18 C14 H8"
_cell_length_a       7.0444
_cell_length_b       10.6214
_cell_length_c       11.5329
_cell_angle_alpha    83.349
_cell_angle_beta     87.808
_cell_angle_gamma    80.027

_space_group_name_H-M_alt    "P 1"
_space_group_IT_number       1

loop_
  _space_group_symop_operation_xyz
  'x, y, z'

loop_
  _atom_site_type_symbol
  _atom_site_label
  _atom_site_symmetry_multiplicity
  _atom_site_fract_x
  _atom_site_fract_y
  _atom_site_fract_z
  _atom_site_occupancy
  U   U1        1.0  0.00000  0.00000  0.00000  1.0000
  U   U2        1.0  0.47205  0.08200  0.13194  1.0000
  U   U3        1.0  0.52795  0.91800  0.86806  1.0000
  S   S1        1.0  0.23480  0.30061  0.32788  1.0000
  S   S2        1.0  0.76520  0.69939  0.67212  1.0000
  O   O1        1.0  0.04610  0.85030  0.08970  1.0000
  O   O2        1.0  0.95390  0.14970  0.91030  1.0000
  O   O3        1.0  0.50160  0.93590  0.22780  1.0000
  O   O4        1.0  0.49840  0.06410  0.77220  1.0000
  O   O5        1.0  0.45000  0.23630  0.04940  1.0000
  O   O6        1.0  0.55000  0.76370  0.95060  1.0000
  O   O7        1.0  0.11210  0.10470  0.17340  1.0000
  O   O8        1.0  0.88790  0.89530  0.82660  1.0000
  O   O9        1.0  0.80590  0.10410  0.17760  1.0000
  O   O10       1.0  0.19410  0.89590  0.82240  1.0000
  O   O11       1.0  0.39200  0.19600  0.30090  1.0000
  O   O12       1.0  0.60800  0.80400  0.69910  1.0000
  O   O13       1.0  0.29780  0.37930  0.40860  1.0000
  O   O14       1.0  0.70220  0.62070  0.59140  1.0000
  O   O15       1.0  0.14450  0.37140  0.22440  1.0000
  O   O16       1.0  0.85550  0.62860  0.77560  1.0000
  O   O17       1.0  0.31270  0.00710  0.99700  1.0000
  O   O18       1.0  0.68730  0.99290  0.00300  1.0000
  C   C1        1.0  0.95350  0.12190  0.22950  1.0000
  C   C2        1.0  0.04650  0.87810  0.77050  1.0000
  C   C3        1.0  0.93730  0.15190  0.35250  1.0000
  C   C4        1.0  0.06270  0.84810  0.64750  1.0000
  C   C5        1.0  0.05620  0.21980  0.40560  1.0000
  C   C6        1.0  0.94380  0.78020  0.59440  1.0000
  C   C7        1.0  0.02910  0.23570  0.52240  1.0000
  C   C8        1.0  0.97090  0.76430  0.47760  1.0000
  H   H1        1.0  0.10680  0.28260  0.55700  1.0000
  H   H2        1.0  0.89320  0.71740  0.44300  1.0000
  C   C9        1.0  0.88890  0.18340  0.58910  1.0000
  C   C10       1.0  0.11110  0.81660  0.41090  1.0000
  H   H3        1.0  0.87460  0.19310  0.66820  1.0000
  H   H4        1.0  0.12540  0.80690  0.33180  1.0000
  C   C11       1.0  0.77220  0.11750  0.53790  1.0000
  C   C12       1.0  0.22780  0.88250  0.46210  1.0000
  H   H5        1.0  0.67700  0.08260  0.58240  1.0000
  H   H6        1.0  0.32300  0.91740  0.41760  1.0000
  C   C13       1.0  0.79350  0.10160  0.42000  1.0000
  C   C14       1.0  0.20650  0.89840  0.58000  1.0000
  H   H7        1.0  0.71160  0.05720  0.38590  1.0000
  H   H8        1.0  0.28840  0.94280  0.61410  1.0000
