data_image0
_chemical_formula_structural       Zn16O64N12C20H4C24H4C8H4C28H4C4H4C12H4C4H4C8H4C12H4C4H4C8H4C4H4C16H4C4H4C20H4C4H4C8H4C4H4C4H4C4H4C4H4C4H4C4H4C4H4C4H4C4H4C4H4C20H4C8H4C8H4C4H4C4H4C4H4C4H4C4H4C4H4C4H4C8H4C4H4C4H4C4H4C4H4C4H4C4H4C4H4C4H4C4H4C4H4C4H4C4H4C4H4C4H4C8H4C4H4C4H4C4H4C4H4C12H4C4H4C4H4C4H4C4H4C4H4C8H4C4H4C4H4C4H4C4H4C4H4C8H4C4H4C12H4O8C4
_chemical_formula_sum              "Zn16 O72 N12 C468 H288"
_cell_length_a       30.1777
_cell_length_b       21.4903
_cell_length_c       33.5299
_cell_angle_alpha    90
_cell_angle_beta     90
_cell_angle_gamma    90

_space_group_name_H-M_alt    "P 1"
_space_group_IT_number       1

loop_
  _space_group_symop_operation_xyz
  'x, y, z'

loop_
  _atom_site_type_symbol
  _atom_site_label
  _atom_site_symmetry_multiplicity
  _atom_site_fract_x
  _atom_site_fract_y
  _atom_site_fract_z
  _atom_site_occupancy
  Zn  Zn1       1.0  0.89741  0.27502  0.02990  1.0000
  Zn  Zn2       1.0  0.10259  0.72498  0.52990  1.0000
  Zn  Zn3       1.0  0.39741  0.22498  0.02990  1.0000
  Zn  Zn4       1.0  0.60259  0.77502  0.52990  1.0000
  Zn  Zn5       1.0  0.00923  0.21363  0.05138  1.0000
  Zn  Zn6       1.0  0.99077  0.78637  0.55138  1.0000
  Zn  Zn7       1.0  0.50923  0.28637  0.05138  1.0000
  Zn  Zn8       1.0  0.49077  0.71363  0.55138  1.0000
  Zn  Zn9       1.0  0.87056  0.76828  0.57264  1.0000
  Zn  Zn10      1.0  0.12944  0.23172  0.07264  1.0000
  Zn  Zn11      1.0  0.37056  0.73172  0.57264  1.0000
  Zn  Zn12      1.0  0.62944  0.26828  0.07264  1.0000
  Zn  Zn13      1.0  0.76319  0.77440  0.53093  1.0000
  Zn  Zn14      1.0  0.23681  0.22560  0.03093  1.0000
  Zn  Zn15      1.0  0.26319  0.72560  0.53093  1.0000
  Zn  Zn16      1.0  0.73681  0.27440  0.03093  1.0000
  O   O1        1.0  0.76000  0.69930  0.56180  1.0000
  O   O2        1.0  0.24000  0.30070  0.06180  1.0000
  O   O3        1.0  0.26000  0.80070  0.56180  1.0000
  O   O4        1.0  0.74000  0.19930  0.06180  1.0000
  O   O5        1.0  0.81670  0.73410  0.59990  1.0000
  O   O6        1.0  0.18330  0.26590  0.09990  1.0000
  O   O7        1.0  0.31670  0.76590  0.59990  1.0000
  O   O8        1.0  0.68330  0.23410  0.09990  1.0000
  O   O9        1.0  0.95849  0.27310  0.00971  1.0000
  O   O10       1.0  0.04151  0.72690  0.50971  1.0000
  O   O11       1.0  0.45849  0.22690  0.00971  1.0000
  O   O12       1.0  0.54151  0.77310  0.50971  1.0000
  O   O13       1.0  0.00560  0.19610  0.99460  1.0000
  O   O14       1.0  0.99440  0.80390  0.49460  1.0000
  O   O15       1.0  0.50560  0.30390  0.99460  1.0000
  O   O16       1.0  0.49440  0.69610  0.49460  1.0000
  O   O17       1.0  0.63820  0.76150  0.48200  1.0000
  O   O18       1.0  0.36180  0.23850  0.98200  1.0000
  O   O19       1.0  0.13820  0.73850  0.48200  1.0000
  O   O20       1.0  0.86180  0.26150  0.98200  1.0000
  O   O21       1.0  0.70460  0.78110  0.51110  1.0000
  O   O22       1.0  0.29540  0.21890  0.01110  1.0000
  O   O23       1.0  0.20460  0.71890  0.51110  1.0000
  O   O24       1.0  0.79540  0.28110  0.01110  1.0000
  O   O25       1.0  0.02110  0.29220  0.07690  1.0000
  O   O26       1.0  0.97890  0.70780  0.57690  1.0000
  O   O27       1.0  0.52110  0.20780  0.07690  1.0000
  O   O28       1.0  0.47890  0.79220  0.57690  1.0000
  O   O29       1.0  0.09240  0.30530  0.08970  1.0000
  O   O30       1.0  0.90760  0.69470  0.58970  1.0000
  O   O31       1.0  0.59240  0.19470  0.08970  1.0000
  O   O32       1.0  0.40760  0.80530  0.58970  1.0000
  O   O33       1.0  0.89530  0.19630  0.05520  1.0000
  O   O34       1.0  0.10470  0.80370  0.55520  1.0000
  O   O35       1.0  0.39530  0.30370  0.05520  1.0000
  O   O36       1.0  0.60470  0.69630  0.55520  1.0000
  O   O37       1.0  0.96230  0.17340  0.08150  1.0000
  O   O38       1.0  0.03770  0.82660  0.58150  1.0000
  O   O39       1.0  0.46230  0.32660  0.08150  1.0000
  O   O40       1.0  0.53770  0.67340  0.58150  1.0000
  O   O41       1.0  0.10610  0.17500  0.11530  1.0000
  O   O42       1.0  0.89390  0.82500  0.61530  1.0000
  O   O43       1.0  0.60610  0.32500  0.11530  1.0000
  O   O44       1.0  0.39390  0.67500  0.61530  1.0000
  O   O45       1.0  0.06100  0.16240  0.06190  1.0000
  O   O46       1.0  0.93900  0.83760  0.56190  1.0000
  O   O47       1.0  0.56100  0.33760  0.06190  1.0000
  O   O48       1.0  0.43900  0.66240  0.56190  1.0000
  O   O49       1.0  0.87080  0.73460  0.51683  1.0000
  O   O50       1.0  0.12920  0.26540  0.01683  1.0000
  O   O51       1.0  0.37080  0.76540  0.51683  1.0000
  O   O52       1.0  0.62920  0.23460  0.01683  1.0000
  O   O53       1.0  0.80280  0.75010  0.48860  1.0000
  O   O54       1.0  0.19720  0.24990  0.98860  1.0000
  O   O55       1.0  0.30280  0.74990  0.48860  1.0000
  O   O56       1.0  0.69720  0.25010  0.98860  1.0000
  O   O57       1.0  0.76170  0.85570  0.55757  1.0000
  O   O58       1.0  0.23830  0.14430  0.05757  1.0000
  O   O59       1.0  0.26170  0.64430  0.55757  1.0000
  O   O60       1.0  0.73830  0.35570  0.05757  1.0000
  O   O61       1.0  0.83600  0.85120  0.54949  1.0000
  O   O62       1.0  0.16400  0.14880  0.04949  1.0000
  O   O63       1.0  0.33600  0.64880  0.54949  1.0000
  O   O64       1.0  0.66400  0.35120  0.04949  1.0000
  N   N1        1.0  0.81110  0.77280  0.20530  1.0000
  N   N2        1.0  0.18890  0.22720  0.70530  1.0000
  N   N3        1.0  0.31110  0.72720  0.20530  1.0000
  N   N4        1.0  0.68890  0.27280  0.70530  1.0000
  N   N5        1.0  0.84990  0.27500  0.70770  1.0000
  N   N6        1.0  0.15010  0.72500  0.20770  1.0000
  N   N7        1.0  0.34990  0.22500  0.70770  1.0000
  N   N8        1.0  0.65010  0.77500  0.20770  1.0000
  N   N9        1.0  0.97990  0.73290  0.21420  1.0000
  N   N10       1.0  0.02010  0.26710  0.71420  1.0000
  N   N11       1.0  0.47990  0.76710  0.21420  1.0000
  N   N12       1.0  0.52010  0.23290  0.71420  1.0000
  C   C1        1.0  0.82040  0.71600  0.18720  1.0000
  C   C2        1.0  0.17960  0.28400  0.68720  1.0000
  C   C3        1.0  0.32040  0.78400  0.18720  1.0000
  C   C4        1.0  0.67960  0.21600  0.68720  1.0000
  C   C5        1.0  0.83760  0.33470  0.69450  1.0000
  C   C6        1.0  0.16240  0.66530  0.19450  1.0000
  C   C7        1.0  0.33760  0.16530  0.69450  1.0000
  C   C8        1.0  0.66240  0.83470  0.19450  1.0000
  C   C9        1.0  0.84250  0.22230  0.68450  1.0000
  C   C10       1.0  0.15750  0.77770  0.18450  1.0000
  C   C11       1.0  0.34250  0.27770  0.68450  1.0000
  C   C12       1.0  0.65750  0.72230  0.18450  1.0000
  C   C13       1.0  0.87160  0.26920  0.74600  1.0000
  C   C14       1.0  0.12840  0.73080  0.24600  1.0000
  C   C15       1.0  0.37160  0.23080  0.74600  1.0000
  C   C16       1.0  0.62840  0.76920  0.24600  1.0000
  C   C17       1.0  0.80160  0.21130  0.66810  1.0000
  C   C18       1.0  0.19840  0.78870  0.16810  1.0000
  C   C19       1.0  0.30160  0.28870  0.66810  1.0000
  C   C20       1.0  0.69840  0.71130  0.16810  1.0000
  H   H1        1.0  0.77920  0.24010  0.67300  1.0000
  H   H2        1.0  0.22080  0.75990  0.17300  1.0000
  H   H3        1.0  0.27920  0.25990  0.67300  1.0000
  H   H4        1.0  0.72080  0.74010  0.17300  1.0000
  C   C21       1.0  0.99070  0.79200  0.19840  1.0000
  C   C22       1.0  0.00930  0.20800  0.69840  1.0000
  C   C23       1.0  0.49070  0.70800  0.19840  1.0000
  C   C24       1.0  0.50930  0.29200  0.69840  1.0000
  C   C25       1.0  0.82600  0.83060  0.18720  1.0000
  C   C26       1.0  0.17400  0.16940  0.68720  1.0000
  C   C27       1.0  0.32600  0.66940  0.18720  1.0000
  C   C28       1.0  0.67400  0.33060  0.68720  1.0000
  C   C29       1.0  0.81430  0.45100  0.66280  1.0000
  C   C30       1.0  0.18570  0.54900  0.16280  1.0000
  C   C31       1.0  0.31430  0.04900  0.66280  1.0000
  C   C32       1.0  0.68570  0.95100  0.16280  1.0000
  C   C33       1.0  0.97700  0.23250  0.98450  1.0000
  C   C34       1.0  0.02300  0.76750  0.48450  1.0000
  C   C35       1.0  0.47700  0.26750  0.98450  1.0000
  C   C36       1.0  0.52300  0.73250  0.48450  1.0000
  C   C37       1.0  0.80440  0.51220  0.64440  1.0000
  C   C38       1.0  0.19560  0.48780  0.14440  1.0000
  C   C39       1.0  0.30440  0.98780  0.64440  1.0000
  C   C40       1.0  0.69560  0.01220  0.14440  1.0000
  C   C41       1.0  0.00560  0.85800  0.14160  1.0000
  C   C42       1.0  0.99440  0.14200  0.64160  1.0000
  C   C43       1.0  0.50560  0.64200  0.14160  1.0000
  C   C44       1.0  0.49440  0.35800  0.64160  1.0000
  H   H5        1.0  0.00640  0.86210  0.11400  1.0000
  H   H6        1.0  0.99360  0.13790  0.61400  1.0000
  H   H7        1.0  0.50640  0.63790  0.11400  1.0000
  H   H8        1.0  0.49360  0.36210  0.61400  1.0000
  C   C45       1.0  0.99090  0.67790  0.19400  1.0000
  C   C46       1.0  0.00910  0.32210  0.69400  1.0000
  C   C47       1.0  0.49090  0.82210  0.19400  1.0000
  C   C48       1.0  0.50910  0.17790  0.69400  1.0000
  C   C49       1.0  0.96690  0.19330  0.91350  1.0000
  C   C50       1.0  0.03310  0.80670  0.41350  1.0000
  C   C51       1.0  0.46690  0.30670  0.91350  1.0000
  C   C52       1.0  0.53310  0.69330  0.41350  1.0000
  H   H9        1.0  0.98070  0.15690  0.92210  1.0000
  H   H10       1.0  0.01930  0.84310  0.42210  1.0000
  H   H11       1.0  0.48070  0.34310  0.92210  1.0000
  H   H12       1.0  0.51930  0.65690  0.42210  1.0000
  C   C53       1.0  0.85550  0.93960  0.15310  1.0000
  C   C54       1.0  0.14450  0.06040  0.65310  1.0000
  C   C55       1.0  0.35550  0.56040  0.15310  1.0000
  C   C56       1.0  0.64450  0.43960  0.65310  1.0000
  C   C57       1.0  0.04150  0.38640  0.10620  1.0000
  C   C58       1.0  0.95850  0.61360  0.60620  1.0000
  C   C59       1.0  0.54150  0.11360  0.10620  1.0000
  C   C60       1.0  0.45850  0.88640  0.60620  1.0000
  C   C61       1.0  0.90300  0.72280  0.37000  1.0000
  C   C62       1.0  0.09700  0.27720  0.87000  1.0000
  C   C63       1.0  0.40300  0.77720  0.37000  1.0000
  C   C64       1.0  0.59700  0.22280  0.87000  1.0000
  C   C65       1.0  0.91500  0.26000  0.81980  1.0000
  C   C66       1.0  0.08500  0.74000  0.31980  1.0000
  C   C67       1.0  0.41500  0.24000  0.81980  1.0000
  C   C68       1.0  0.58500  0.76000  0.31980  1.0000
  C   C69       1.0  0.02400  0.50150  0.13940  1.0000
  C   C70       1.0  0.97600  0.49850  0.63940  1.0000
  C   C71       1.0  0.52400  0.99850  0.13940  1.0000
  C   C72       1.0  0.47600  0.00150  0.63940  1.0000
  C   C73       1.0  0.73120  0.78470  0.35940  1.0000
  C   C74       1.0  0.26880  0.21530  0.85940  1.0000
  C   C75       1.0  0.23120  0.71530  0.35940  1.0000
  C   C76       1.0  0.76880  0.28470  0.85940  1.0000
  C   C77       1.0  0.87150  0.21120  0.76590  1.0000
  C   C78       1.0  0.12850  0.78880  0.26590  1.0000
  C   C79       1.0  0.37150  0.28880  0.76590  1.0000
  C   C80       1.0  0.62850  0.71120  0.26590  1.0000
  H   H13       1.0  0.85670  0.17700  0.75530  1.0000
  H   H14       1.0  0.14330  0.82300  0.25530  1.0000
  H   H15       1.0  0.35670  0.32300  0.75530  1.0000
  H   H16       1.0  0.64330  0.67700  0.25530  1.0000
  C   C81       1.0  0.83940  0.72960  0.41330  1.0000
  C   C82       1.0  0.16060  0.27040  0.91330  1.0000
  C   C83       1.0  0.33940  0.77040  0.41330  1.0000
  C   C84       1.0  0.66060  0.22960  0.91330  1.0000
  H   H17       1.0  0.80880  0.72880  0.41690  1.0000
  H   H18       1.0  0.19120  0.27120  0.91690  1.0000
  H   H19       1.0  0.30880  0.77120  0.41690  1.0000
  H   H20       1.0  0.69120  0.22880  0.91690  1.0000
  C   C85       1.0  0.86970  0.43870  0.08340  1.0000
  C   C86       1.0  0.13030  0.56130  0.58340  1.0000
  C   C87       1.0  0.36970  0.06130  0.08340  1.0000
  C   C88       1.0  0.63030  0.93870  0.58340  1.0000
  C   C89       1.0  0.79140  0.63010  0.60890  1.0000
  C   C90       1.0  0.20860  0.36990  0.10890  1.0000
  C   C91       1.0  0.29140  0.86990  0.60890  1.0000
  C   C92       1.0  0.70860  0.13010  0.10890  1.0000
  C   C93       1.0  0.67660  0.74870  0.40800  1.0000
  C   C94       1.0  0.32340  0.25130  0.90800  1.0000
  C   C95       1.0  0.17660  0.75130  0.40800  1.0000
  C   C96       1.0  0.82340  0.24870  0.90800  1.0000
  H   H21       1.0  0.65130  0.72510  0.41280  1.0000
  H   H22       1.0  0.34870  0.27490  0.91280  1.0000
  H   H23       1.0  0.15130  0.77490  0.41280  1.0000
  H   H24       1.0  0.84870  0.22510  0.91280  1.0000
  C   C97       1.0  0.81600  0.56910  0.66520  1.0000
  C   C98       1.0  0.18400  0.43090  0.16520  1.0000
  C   C99       1.0  0.31600  0.93090  0.66520  1.0000
  C   C100      1.0  0.68400  0.06910  0.16520  1.0000
  H   H25       1.0  0.82790  0.56730  0.69070  1.0000
  H   H26       1.0  0.17210  0.43270  0.19070  1.0000
  H   H27       1.0  0.32790  0.93270  0.69070  1.0000
  H   H28       1.0  0.67210  0.06730  0.19070  1.0000
  C   C101      1.0  0.79190  0.77510  0.24450  1.0000
  C   C102      1.0  0.20810  0.22490  0.74450  1.0000
  C   C103      1.0  0.29190  0.72490  0.24450  1.0000
  C   C104      1.0  0.70810  0.27510  0.74450  1.0000
  C   C105      1.0  0.82020  0.37960  0.71890  1.0000
  C   C106      1.0  0.17980  0.62040  0.21890  1.0000
  C   C107      1.0  0.32020  0.12040  0.71890  1.0000
  C   C108      1.0  0.67980  0.87960  0.21890  1.0000
  H   H29       1.0  0.81530  0.37150  0.74580  1.0000
  H   H30       1.0  0.18470  0.62850  0.24580  1.0000
  H   H31       1.0  0.31530  0.12850  0.74580  1.0000
  H   H32       1.0  0.68470  0.87150  0.24580  1.0000
  C   C109      1.0  0.74930  0.78170  0.32040  1.0000
  C   C110      1.0  0.25070  0.21830  0.82040  1.0000
  C   C111      1.0  0.24930  0.71830  0.32040  1.0000
  C   C112      1.0  0.75070  0.28170  0.82040  1.0000
  C   C113      1.0  0.93400  0.24730  0.86130  1.0000
  C   C114      1.0  0.06600  0.75270  0.36130  1.0000
  C   C115      1.0  0.43400  0.25270  0.86130  1.0000
  C   C116      1.0  0.56600  0.74730  0.36130  1.0000
  C   C117      1.0  0.99320  0.80250  0.15820  1.0000
  C   C118      1.0  0.00680  0.19750  0.65820  1.0000
  C   C119      1.0  0.49320  0.69750  0.15820  1.0000
  C   C120      1.0  0.50680  0.30250  0.65820  1.0000
  H   H33       1.0  0.98600  0.76990  0.14110  1.0000
  H   H34       1.0  0.01400  0.23010  0.64110  1.0000
  H   H35       1.0  0.48600  0.73010  0.14110  1.0000
  H   H36       1.0  0.51400  0.26990  0.64110  1.0000
  C   C121      1.0  0.03370  0.03770  0.09130  1.0000
  C   C122      1.0  0.96630  0.96230  0.59130  1.0000
  C   C123      1.0  0.53370  0.46230  0.09130  1.0000
  C   C124      1.0  0.46630  0.53770  0.59130  1.0000
  H   H37       1.0  0.02600  0.04730  0.06520  1.0000
  H   H38       1.0  0.97400  0.95270  0.56520  1.0000
  H   H39       1.0  0.52600  0.45270  0.06520  1.0000
  H   H40       1.0  0.47400  0.54730  0.56520  1.0000
  C   C125      1.0  0.96260  0.73120  0.25420  1.0000
  C   C126      1.0  0.03740  0.26880  0.75420  1.0000
  C   C127      1.0  0.46260  0.76880  0.25420  1.0000
  C   C128      1.0  0.53740  0.23120  0.75420  1.0000
  C   C129      1.0  0.76980  0.97130  0.59550  1.0000
  C   C130      1.0  0.23020  0.02870  0.09550  1.0000
  C   C131      1.0  0.26980  0.52870  0.59550  1.0000
  C   C132      1.0  0.73020  0.47130  0.09550  1.0000
  H   H41       1.0  0.74170  0.95350  0.59580  1.0000
  H   H42       1.0  0.25830  0.04650  0.09580  1.0000
  H   H43       1.0  0.24170  0.54650  0.59580  1.0000
  H   H44       1.0  0.75830  0.45350  0.09580  1.0000
  C   C133      1.0  0.91130  0.72440  0.44220  1.0000
  C   C134      1.0  0.08870  0.27560  0.94220  1.0000
  C   C135      1.0  0.41130  0.77560  0.44220  1.0000
  C   C136      1.0  0.58870  0.22440  0.94220  1.0000
  H   H45       1.0  0.92990  0.72320  0.46430  1.0000
  H   H46       1.0  0.07010  0.27680  0.96430  1.0000
  H   H47       1.0  0.42990  0.77680  0.46430  1.0000
  H   H48       1.0  0.57010  0.22320  0.96430  1.0000
  C   C137      1.0  0.92220  0.72490  0.32960  1.0000
  C   C138      1.0  0.07780  0.27510  0.82960  1.0000
  C   C139      1.0  0.42220  0.77510  0.32960  1.0000
  C   C140      1.0  0.57780  0.22490  0.82960  1.0000
  C   C141      1.0  0.69580  0.77940  0.43820  1.0000
  C   C142      1.0  0.30420  0.22060  0.93820  1.0000
  C   C143      1.0  0.19580  0.72060  0.43820  1.0000
  C   C144      1.0  0.80420  0.27940  0.93820  1.0000
  C   C145      1.0  0.01120  0.56550  0.15780  1.0000
  C   C146      1.0  0.98880  0.43450  0.65780  1.0000
  C   C147      1.0  0.51120  0.93450  0.15780  1.0000
  C   C148      1.0  0.48880  0.06550  0.65780  1.0000
  C   C149      1.0  0.85150  0.03050  0.59460  1.0000
  C   C150      1.0  0.14850  0.96950  0.09460  1.0000
  C   C151      1.0  0.35150  0.46950  0.59460  1.0000
  C   C152      1.0  0.64850  0.53050  0.09460  1.0000
  H   H49       1.0  0.87900  0.04990  0.59300  1.0000
  H   H50       1.0  0.12100  0.95010  0.09300  1.0000
  H   H51       1.0  0.37900  0.45010  0.59300  1.0000
  H   H52       1.0  0.62100  0.54990  0.09300  1.0000
  C   C153      1.0  0.02280  0.98490  0.10650  1.0000
  C   C154      1.0  0.97720  0.01510  0.60650  1.0000
  C   C155      1.0  0.52280  0.51510  0.10650  1.0000
  C   C156      1.0  0.47720  0.48490  0.60650  1.0000
  H   H53       1.0  0.00990  0.95530  0.08990  1.0000
  H   H54       1.0  0.99010  0.04470  0.58990  1.0000
  H   H55       1.0  0.50990  0.54470  0.08990  1.0000
  H   H56       1.0  0.49010  0.45530  0.58990  1.0000
  C   C157      1.0  0.80410  0.94010  0.57570  1.0000
  C   C158      1.0  0.19590  0.05990  0.07570  1.0000
  C   C159      1.0  0.30410  0.55990  0.57570  1.0000
  C   C160      1.0  0.69590  0.44010  0.07570  1.0000
  C   C161      1.0  0.05340  0.32380  0.09000  1.0000
  C   C162      1.0  0.94660  0.67620  0.59000  1.0000
  C   C163      1.0  0.55340  0.17620  0.09000  1.0000
  C   C164      1.0  0.44660  0.82380  0.59000  1.0000
  C   C165      1.0  0.87000  0.00070  0.13310  1.0000
  C   C166      1.0  0.13000  0.99930  0.63310  1.0000
  C   C167      1.0  0.37000  0.49930  0.13310  1.0000
  C   C168      1.0  0.63000  0.50070  0.63310  1.0000
  C   C169      1.0  0.82530  0.11540  0.63820  1.0000
  C   C170      1.0  0.17470  0.88460  0.13820  1.0000
  C   C171      1.0  0.32530  0.38460  0.63820  1.0000
  C   C172      1.0  0.67470  0.61540  0.13820  1.0000
  C   C173      1.0  0.77810  0.57700  0.59100  1.0000
  C   C174      1.0  0.22190  0.42300  0.09100  1.0000
  C   C175      1.0  0.27810  0.92300  0.59100  1.0000
  C   C176      1.0  0.72190  0.07700  0.09100  1.0000
  H   H57       1.0  0.76350  0.57960  0.56670  1.0000
  H   H58       1.0  0.23650  0.42040  0.06670  1.0000
  H   H59       1.0  0.26350  0.92040  0.56670  1.0000
  H   H60       1.0  0.73650  0.07960  0.06670  1.0000
  C   C177      1.0  0.03180  0.66810  0.17860  1.0000
  C   C178      1.0  0.96820  0.33190  0.67860  1.0000
  C   C179      1.0  0.53180  0.83190  0.17860  1.0000
  C   C180      1.0  0.46820  0.16810  0.67860  1.0000
  H   H61       1.0  0.05330  0.69890  0.18050  1.0000
  H   H62       1.0  0.94670  0.30110  0.68050  1.0000
  H   H63       1.0  0.55330  0.80110  0.18050  1.0000
  H   H64       1.0  0.44670  0.19890  0.68050  1.0000
  C   C181      1.0  0.02960  0.96930  0.14820  1.0000
  C   C182      1.0  0.97040  0.03070  0.64820  1.0000
  C   C183      1.0  0.52960  0.53070  0.14820  1.0000
  C   C184      1.0  0.47040  0.46930  0.64820  1.0000
  C   C185      1.0  0.98930  0.46180  0.12180  1.0000
  C   C186      1.0  0.01070  0.53820  0.62180  1.0000
  C   C187      1.0  0.48930  0.03820  0.12180  1.0000
  C   C188      1.0  0.51070  0.96180  0.62180  1.0000
  H   H65       1.0  0.95990  0.47460  0.12170  1.0000
  H   H66       1.0  0.04010  0.52540  0.62170  1.0000
  H   H67       1.0  0.45990  0.02540  0.12170  1.0000
  H   H68       1.0  0.54010  0.97460  0.62170  1.0000
  C   C189      1.0  0.80920  0.62560  0.64700  1.0000
  C   C190      1.0  0.19080  0.37440  0.14700  1.0000
  C   C191      1.0  0.30920  0.87440  0.64700  1.0000
  C   C192      1.0  0.69080  0.12560  0.14700  1.0000
  H   H69       1.0  0.81680  0.66180  0.66050  1.0000
  H   H70       1.0  0.18320  0.33820  0.16050  1.0000
  H   H71       1.0  0.31680  0.83820  0.66050  1.0000
  H   H72       1.0  0.68320  0.16180  0.16050  1.0000
  C   C193      1.0  0.95940  0.63250  0.19210  1.0000
  C   C194      1.0  0.04060  0.36750  0.69210  1.0000
  C   C195      1.0  0.45940  0.86750  0.19210  1.0000
  C   C196      1.0  0.54060  0.13250  0.69210  1.0000
  H   H73       1.0  0.93160  0.63930  0.20310  1.0000
  H   H74       1.0  0.06840  0.36070  0.70310  1.0000
  H   H75       1.0  0.43160  0.86070  0.20310  1.0000
  H   H76       1.0  0.56840  0.13930  0.70310  1.0000
  C   C197      1.0  0.85940  0.08960  0.09310  1.0000
  C   C198      1.0  0.14060  0.91040  0.59310  1.0000
  C   C199      1.0  0.35940  0.41040  0.09310  1.0000
  C   C200      1.0  0.64060  0.58960  0.59310  1.0000
  H   H77       1.0  0.84080  0.11480  0.07810  1.0000
  H   H78       1.0  0.15920  0.88520  0.57810  1.0000
  H   H79       1.0  0.34080  0.38520  0.07810  1.0000
  H   H80       1.0  0.65920  0.61480  0.57810  1.0000
  C   C201      1.0  0.79790  0.87880  0.18260  1.0000
  C   C202      1.0  0.20210  0.12120  0.68260  1.0000
  C   C203      1.0  0.29790  0.62120  0.18260  1.0000
  C   C204      1.0  0.70210  0.37880  0.68260  1.0000
  H   H81       1.0  0.76870  0.87450  0.19130  1.0000
  H   H82       1.0  0.23130  0.12550  0.69130  1.0000
  H   H83       1.0  0.26870  0.62550  0.19130  1.0000
  H   H84       1.0  0.73130  0.37450  0.69130  1.0000
  C   C205      1.0  0.89480  0.20710  0.80240  1.0000
  C   C206      1.0  0.10520  0.79290  0.30240  1.0000
  C   C207      1.0  0.39480  0.29290  0.80240  1.0000
  C   C208      1.0  0.60520  0.70710  0.30240  1.0000
  H   H85       1.0  0.89690  0.16880  0.81530  1.0000
  H   H86       1.0  0.10310  0.83120  0.31530  1.0000
  H   H87       1.0  0.39690  0.33120  0.81530  1.0000
  H   H88       1.0  0.60310  0.66880  0.31530  1.0000
  C   C209      1.0  0.86790  0.12750  0.65580  1.0000
  C   C210      1.0  0.13210  0.87250  0.15580  1.0000
  C   C211      1.0  0.36790  0.37250  0.65580  1.0000
  C   C212      1.0  0.63210  0.62750  0.15580  1.0000
  H   H89       1.0  0.89070  0.09900  0.65240  1.0000
  H   H90       1.0  0.10930  0.90100  0.15240  1.0000
  H   H91       1.0  0.39070  0.40100  0.65240  1.0000
  H   H92       1.0  0.60930  0.59900  0.15240  1.0000
  C   C213      1.0  0.00360  0.84150  0.22190  1.0000
  C   C214      1.0  0.99640  0.15850  0.72190  1.0000
  C   C215      1.0  0.50360  0.65850  0.22190  1.0000
  C   C216      1.0  0.49640  0.34150  0.72190  1.0000
  H   H93       1.0  0.00400  0.83650  0.24950  1.0000
  H   H94       1.0  0.99600  0.16350  0.74950  1.0000
  H   H95       1.0  0.50400  0.66350  0.24950  1.0000
  H   H96       1.0  0.49600  0.33650  0.74950  1.0000
  C   C217      1.0  0.86960  0.83580  0.17430  1.0000
  C   C218      1.0  0.13040  0.16420  0.67430  1.0000
  C   C219      1.0  0.36960  0.66420  0.17430  1.0000
  C   C220      1.0  0.63040  0.33580  0.67430  1.0000
  H   H97       1.0  0.88930  0.80290  0.17750  1.0000
  H   H98       1.0  0.11070  0.19710  0.67750  1.0000
  H   H99       1.0  0.38930  0.69710  0.17750  1.0000
  H   H100      1.0  0.61070  0.30290  0.67750  1.0000
  C   C221      1.0  0.79160  0.15990  0.64480  1.0000
  C   C222      1.0  0.20840  0.84010  0.14480  1.0000
  C   C223      1.0  0.29160  0.34010  0.64480  1.0000
  C   C224      1.0  0.70840  0.65990  0.14480  1.0000
  H   H101      1.0  0.76350  0.15480  0.63390  1.0000
  H   H102      1.0  0.23650  0.84520  0.13390  1.0000
  H   H103      1.0  0.26350  0.34520  0.63390  1.0000
  H   H104      1.0  0.73650  0.65480  0.13390  1.0000
  C   C225      1.0  0.95340  0.19660  0.87500  1.0000
  C   C226      1.0  0.04660  0.80340  0.37500  1.0000
  C   C227      1.0  0.45340  0.30340  0.87500  1.0000
  C   C228      1.0  0.54660  0.69660  0.37500  1.0000
  H   H105      1.0  0.95780  0.16290  0.85810  1.0000
  H   H106      1.0  0.04220  0.83710  0.35810  1.0000
  H   H107      1.0  0.45780  0.33710  0.85810  1.0000
  H   H108      1.0  0.54220  0.66290  0.35810  1.0000
  C   C229      1.0  0.01680  0.90780  0.16530  1.0000
  C   C230      1.0  0.98320  0.09220  0.66530  1.0000
  C   C231      1.0  0.51680  0.59220  0.16530  1.0000
  C   C232      1.0  0.48320  0.40780  0.66530  1.0000
  C   C233      1.0  0.68200  0.77330  0.48250  1.0000
  C   C234      1.0  0.31800  0.22670  0.98250  1.0000
  C   C235      1.0  0.18200  0.72670  0.48250  1.0000
  C   C236      1.0  0.81800  0.27330  0.98250  1.0000
  C   C237      1.0  0.80130  0.87690  0.55840  1.0000
  C   C238      1.0  0.19870  0.12310  0.05840  1.0000
  C   C239      1.0  0.30130  0.62310  0.55840  1.0000
  C   C240      1.0  0.69870  0.37690  0.05840  1.0000
  C   C241      1.0  0.78900  0.69190  0.58970  1.0000
  C   C242      1.0  0.21100  0.30810  0.08970  1.0000
  C   C243      1.0  0.28900  0.80810  0.58970  1.0000
  C   C244      1.0  0.71100  0.19190  0.08970  1.0000
  C   C245      1.0  0.91310  0.31460  0.79670  1.0000
  C   C246      1.0  0.08690  0.68540  0.29670  1.0000
  C   C247      1.0  0.41310  0.18540  0.79670  1.0000
  C   C248      1.0  0.58690  0.81460  0.29670  1.0000
  H   H109      1.0  0.92670  0.34980  0.80720  1.0000
  H   H110      1.0  0.07330  0.65020  0.30720  1.0000
  H   H111      1.0  0.42670  0.15020  0.80720  1.0000
  H   H112      1.0  0.57330  0.84980  0.30720  1.0000
  C   C249      1.0  0.81750  0.05840  0.61500  1.0000
  C   C250      1.0  0.18250  0.94160  0.11500  1.0000
  C   C251      1.0  0.31750  0.44160  0.61500  1.0000
  C   C252      1.0  0.68250  0.55840  0.11500  1.0000
  C   C253      1.0  0.06560  0.06840  0.15500  1.0000
  C   C254      1.0  0.93440  0.93160  0.65500  1.0000
  C   C255      1.0  0.56560  0.43160  0.15500  1.0000
  C   C256      1.0  0.43440  0.56840  0.65500  1.0000
  H   H113      1.0  0.08060  0.09810  0.17010  1.0000
  H   H114      1.0  0.91940  0.90190  0.67010  1.0000
  H   H115      1.0  0.58060  0.40190  0.17010  1.0000
  H   H116      1.0  0.41940  0.59810  0.67010  1.0000
  C   C257      1.0  0.85350  0.54880  0.12270  1.0000
  C   C258      1.0  0.14650  0.45120  0.62270  1.0000
  C   C259      1.0  0.35350  0.95120  0.12270  1.0000
  C   C260      1.0  0.64650  0.04880  0.62270  1.0000
  C   C261      1.0  0.82930  0.40280  0.63770  1.0000
  C   C262      1.0  0.17070  0.59720  0.13770  1.0000
  C   C263      1.0  0.32930  0.09720  0.63770  1.0000
  C   C264      1.0  0.67070  0.90280  0.13770  1.0000
  H   H117      1.0  0.83110  0.40950  0.61030  1.0000
  H   H118      1.0  0.16890  0.59050  0.11030  1.0000
  H   H119      1.0  0.33110  0.09050  0.61030  1.0000
  H   H120      1.0  0.66890  0.90950  0.11030  1.0000
  C   C265      1.0  0.05270  0.01470  0.17270  1.0000
  C   C266      1.0  0.94730  0.98530  0.67270  1.0000
  C   C267      1.0  0.55270  0.48530  0.17270  1.0000
  C   C268      1.0  0.44730  0.51470  0.67270  1.0000
  H   H121      1.0  0.05840  0.00730  0.19960  1.0000
  H   H122      1.0  0.94160  0.99270  0.69960  1.0000
  H   H123      1.0  0.55840  0.49270  0.19960  1.0000
  H   H124      1.0  0.44160  0.50730  0.69960  1.0000
  C   C269      1.0  0.87550  0.18180  0.67820  1.0000
  C   C270      1.0  0.12450  0.81820  0.17820  1.0000
  C   C271      1.0  0.37550  0.31820  0.67820  1.0000
  C   C272      1.0  0.62450  0.68180  0.17820  1.0000
  H   H125      1.0  0.90340  0.18950  0.68870  1.0000
  H   H126      1.0  0.09660  0.81050  0.18870  1.0000
  H   H127      1.0  0.40340  0.31050  0.68870  1.0000
  H   H128      1.0  0.59660  0.68950  0.18870  1.0000
  C   C273      1.0  0.84290  0.03670  0.11130  1.0000
  C   C274      1.0  0.15710  0.96330  0.61130  1.0000
  C   C275      1.0  0.34290  0.46330  0.11130  1.0000
  C   C276      1.0  0.65710  0.53670  0.61130  1.0000
  H   H129      1.0  0.81310  0.02620  0.10850  1.0000
  H   H130      1.0  0.18690  0.97380  0.60850  1.0000
  H   H131      1.0  0.31310  0.47380  0.10850  1.0000
  H   H132      1.0  0.68690  0.52620  0.60850  1.0000
  C   C277      1.0  0.82940  0.65860  0.12440  1.0000
  C   C278      1.0  0.17060  0.34140  0.62440  1.0000
  C   C279      1.0  0.32940  0.84140  0.12440  1.0000
  C   C280      1.0  0.67060  0.15860  0.62440  1.0000
  H   H133      1.0  0.82780  0.65880  0.09670  1.0000
  H   H134      1.0  0.17220  0.34120  0.59670  1.0000
  H   H135      1.0  0.32780  0.84120  0.09670  1.0000
  H   H136      1.0  0.67220  0.15880  0.59670  1.0000
  C   C281      1.0  0.83330  0.66410  0.20680  1.0000
  C   C282      1.0  0.16670  0.33590  0.70680  1.0000
  C   C283      1.0  0.33330  0.83590  0.20680  1.0000
  C   C284      1.0  0.66670  0.16410  0.70680  1.0000
  H   H137      1.0  0.83640  0.66590  0.23440  1.0000
  H   H138      1.0  0.16360  0.33410  0.73440  1.0000
  H   H139      1.0  0.33640  0.83410  0.23440  1.0000
  H   H140      1.0  0.66360  0.16590  0.73440  1.0000
  C   C285      1.0  0.69390  0.75160  0.36950  1.0000
  C   C286      1.0  0.30610  0.24840  0.86950  1.0000
  C   C287      1.0  0.19390  0.74840  0.36950  1.0000
  C   C288      1.0  0.80610  0.25160  0.86950  1.0000
  H   H141      1.0  0.67930  0.72990  0.34940  1.0000
  H   H142      1.0  0.32070  0.27010  0.84940  1.0000
  H   H143      1.0  0.17930  0.77010  0.34940  1.0000
  H   H144      1.0  0.82070  0.22990  0.84940  1.0000
  C   C289      1.0  0.77630  0.02800  0.61480  1.0000
  C   C290      1.0  0.22370  0.97200  0.11480  1.0000
  C   C291      1.0  0.27630  0.47200  0.61480  1.0000
  C   C292      1.0  0.72370  0.52800  0.11480  1.0000
  H   H145      1.0  0.75250  0.04640  0.62790  1.0000
  H   H146      1.0  0.24750  0.95360  0.12790  1.0000
  H   H147      1.0  0.25250  0.45360  0.62790  1.0000
  H   H148      1.0  0.74750  0.54640  0.12790  1.0000
  C   C293      1.0  0.86670  0.73160  0.44550  1.0000
  C   C294      1.0  0.13330  0.26840  0.94550  1.0000
  C   C295      1.0  0.36670  0.76840  0.44550  1.0000
  C   C296      1.0  0.63330  0.23160  0.94550  1.0000
  C   C297      1.0  0.81010  0.43640  0.70310  1.0000
  C   C298      1.0  0.18990  0.56360  0.20310  1.0000
  C   C299      1.0  0.31010  0.06360  0.70310  1.0000
  C   C300      1.0  0.68990  0.93640  0.20310  1.0000
  H   H149      1.0  0.79980  0.46720  0.72030  1.0000
  H   H150      1.0  0.20020  0.53280  0.22030  1.0000
  H   H151      1.0  0.29980  0.03280  0.72030  1.0000
  H   H152      1.0  0.70020  0.96720  0.22030  1.0000
  C   C301      1.0  0.06570  0.47890  0.13630  1.0000
  C   C302      1.0  0.93430  0.52110  0.63630  1.0000
  C   C303      1.0  0.56570  0.02110  0.13630  1.0000
  C   C304      1.0  0.43430  0.97890  0.63630  1.0000
  H   H153      1.0  0.08930  0.50320  0.14490  1.0000
  H   H154      1.0  0.91070  0.49680  0.64490  1.0000
  H   H155      1.0  0.58930  0.99680  0.14490  1.0000
  H   H156      1.0  0.41070  0.00320  0.64490  1.0000
  C   C305      1.0  0.74380  0.73340  0.29350  1.0000
  C   C306      1.0  0.25620  0.26660  0.79350  1.0000
  C   C307      1.0  0.24380  0.76660  0.29350  1.0000
  C   C308      1.0  0.75620  0.23340  0.79350  1.0000
  H   H157      1.0  0.72600  0.70050  0.30160  1.0000
  H   H158      1.0  0.27400  0.29950  0.80160  1.0000
  H   H159      1.0  0.22600  0.79950  0.30160  1.0000
  H   H160      1.0  0.77400  0.20050  0.80160  1.0000
  C   C309      1.0  0.78510  0.52010  0.60700  1.0000
  C   C310      1.0  0.21490  0.47990  0.10700  1.0000
  C   C311      1.0  0.28510  0.97990  0.60700  1.0000
  C   C312      1.0  0.71490  0.02010  0.10700  1.0000
  H   H161      1.0  0.77680  0.48510  0.59250  1.0000
  H   H162      1.0  0.22320  0.51490  0.09250  1.0000
  H   H163      1.0  0.27680  0.01490  0.59250  1.0000
  H   H164      1.0  0.72320  0.98510  0.09250  1.0000
  C   C313      1.0  0.89370  0.32040  0.76150  1.0000
  C   C314      1.0  0.10630  0.67960  0.26150  1.0000
  C   C315      1.0  0.39370  0.17960  0.76150  1.0000
  C   C316      1.0  0.60630  0.82040  0.26150  1.0000
  H   H165      1.0  0.89480  0.35770  0.74750  1.0000
  H   H166      1.0  0.10520  0.64230  0.24750  1.0000
  H   H167      1.0  0.39480  0.14230  0.74750  1.0000
  H   H168      1.0  0.60520  0.85770  0.24750  1.0000
  C   C317      1.0  0.85760  0.72880  0.37450  1.0000
  C   C318      1.0  0.14240  0.27120  0.87450  1.0000
  C   C319      1.0  0.35760  0.77120  0.37450  1.0000
  C   C320      1.0  0.64240  0.22880  0.87450  1.0000
  H   H169      1.0  0.83930  0.73220  0.35230  1.0000
  H   H170      1.0  0.16070  0.26780  0.85230  1.0000
  H   H171      1.0  0.33930  0.76780  0.35230  1.0000
  H   H172      1.0  0.66070  0.23220  0.85230  1.0000
  C   C321      1.0  0.91390  0.02250  0.14050  1.0000
  C   C322      1.0  0.08610  0.97750  0.64050  1.0000
  C   C323      1.0  0.41390  0.47750  0.14050  1.0000
  C   C324      1.0  0.58610  0.52250  0.64050  1.0000
  H   H173      1.0  0.93200  0.00010  0.15780  1.0000
  H   H174      1.0  0.06800  0.99990  0.65780  1.0000
  H   H175      1.0  0.43200  0.49990  0.15780  1.0000
  H   H176      1.0  0.56800  0.50010  0.65780  1.0000
  C   C325      1.0  0.92680  0.76700  0.26360  1.0000
  C   C326      1.0  0.07320  0.23300  0.76360  1.0000
  C   C327      1.0  0.42680  0.73300  0.26360  1.0000
  C   C328      1.0  0.57320  0.26700  0.76360  1.0000
  H   H177      1.0  0.91440  0.79250  0.24410  1.0000
  H   H178      1.0  0.08560  0.20750  0.74410  1.0000
  H   H179      1.0  0.41440  0.70750  0.24410  1.0000
  H   H180      1.0  0.58560  0.29250  0.74410  1.0000
  C   C329      1.0  0.90870  0.76610  0.30070  1.0000
  C   C330      1.0  0.09130  0.23390  0.80070  1.0000
  C   C331      1.0  0.40870  0.73390  0.30070  1.0000
  C   C332      1.0  0.59130  0.26610  0.80070  1.0000
  H   H181      1.0  0.88640  0.79450  0.30680  1.0000
  H   H182      1.0  0.11360  0.20550  0.80680  1.0000
  H   H183      1.0  0.38640  0.70550  0.30680  1.0000
  H   H184      1.0  0.61360  0.29450  0.80680  1.0000
  C   C333      1.0  0.81090  0.93400  0.16550  1.0000
  C   C334      1.0  0.18910  0.06600  0.66550  1.0000
  C   C335      1.0  0.31090  0.56600  0.16550  1.0000
  C   C336      1.0  0.68910  0.43400  0.66550  1.0000
  H   H185      1.0  0.79100  0.96660  0.16210  1.0000
  H   H186      1.0  0.20900  0.03340  0.66210  1.0000
  H   H187      1.0  0.29100  0.53340  0.16210  1.0000
  H   H188      1.0  0.70900  0.46660  0.66210  1.0000
  C   C337      1.0  0.07370  0.42250  0.12100  1.0000
  C   C338      1.0  0.92630  0.57750  0.62100  1.0000
  C   C339      1.0  0.57370  0.07750  0.12100  1.0000
  C   C340      1.0  0.42630  0.92250  0.62100  1.0000
  H   H189      1.0  0.10270  0.40780  0.12070  1.0000
  H   H190      1.0  0.89730  0.59220  0.62070  1.0000
  H   H191      1.0  0.60270  0.09220  0.12070  1.0000
  H   H192      1.0  0.39730  0.90780  0.62070  1.0000
  C   C341      1.0  0.97350  0.68970  0.28180  1.0000
  C   C342      1.0  0.02650  0.31030  0.78180  1.0000
  C   C343      1.0  0.47350  0.81030  0.28180  1.0000
  C   C344      1.0  0.52650  0.18970  0.78180  1.0000
  H   H193      1.0  0.99460  0.66010  0.27500  1.0000
  H   H194      1.0  0.00540  0.33990  0.77500  1.0000
  H   H195      1.0  0.49460  0.83990  0.27500  1.0000
  H   H196      1.0  0.50540  0.16010  0.77500  1.0000
  C   C345      1.0  0.84440  0.97130  0.57550  1.0000
  C   C346      1.0  0.15560  0.02870  0.07550  1.0000
  C   C347      1.0  0.34440  0.52870  0.57550  1.0000
  C   C348      1.0  0.65560  0.47130  0.07550  1.0000
  H   H197      1.0  0.86820  0.95290  0.56230  1.0000
  H   H198      1.0  0.13180  0.04710  0.06230  1.0000
  H   H199      1.0  0.36820  0.54710  0.56230  1.0000
  H   H200      1.0  0.63180  0.45290  0.06230  1.0000
  C   C349      1.0  0.76160  0.72950  0.25680  1.0000
  C   C350      1.0  0.23840  0.27050  0.75680  1.0000
  C   C351      1.0  0.26160  0.77050  0.25680  1.0000
  C   C352      1.0  0.73840  0.22950  0.75680  1.0000
  H   H201      1.0  0.75400  0.69700  0.23980  1.0000
  H   H202      1.0  0.24600  0.30300  0.73980  1.0000
  H   H203      1.0  0.25400  0.80300  0.23980  1.0000
  H   H204      1.0  0.74600  0.19700  0.73980  1.0000
  C   C353      1.0  0.84210  0.60770  0.18730  1.0000
  C   C354      1.0  0.15790  0.39230  0.68730  1.0000
  C   C355      1.0  0.34210  0.89230  0.18730  1.0000
  C   C356      1.0  0.65790  0.10770  0.68730  1.0000
  H   H205      1.0  0.84840  0.57210  0.20200  1.0000
  H   H206      1.0  0.15160  0.42790  0.70200  1.0000
  H   H207      1.0  0.34840  0.92790  0.20200  1.0000
  H   H208      1.0  0.65160  0.07210  0.70200  1.0000
  C   C357      1.0  0.96160  0.23910  0.93940  1.0000
  C   C358      1.0  0.03840  0.76090  0.43940  1.0000
  C   C359      1.0  0.46160  0.26090  0.93940  1.0000
  C   C360      1.0  0.53840  0.73910  0.43940  1.0000
  C   C361      1.0  0.00060  0.40810  0.10630  1.0000
  C   C362      1.0  0.99940  0.59190  0.60630  1.0000
  C   C363      1.0  0.50060  0.09190  0.10630  1.0000
  C   C364      1.0  0.49940  0.90810  0.60630  1.0000
  H   H209      1.0  0.97850  0.38390  0.09460  1.0000
  H   H210      1.0  0.02150  0.61610  0.59460  1.0000
  H   H211      1.0  0.47850  0.11610  0.09460  1.0000
  H   H212      1.0  0.52150  0.88390  0.59460  1.0000
  C   C365      1.0  0.92930  0.07210  0.12400  1.0000
  C   C366      1.0  0.07070  0.92790  0.62400  1.0000
  C   C367      1.0  0.42930  0.42790  0.12400  1.0000
  C   C368      1.0  0.57070  0.57210  0.62400  1.0000
  H   H213      1.0  0.95780  0.08590  0.13000  1.0000
  H   H214      1.0  0.04220  0.91410  0.63000  1.0000
  H   H215      1.0  0.45780  0.41410  0.13000  1.0000
  H   H216      1.0  0.54220  0.58590  0.63000  1.0000
  C   C369      1.0  0.84110  0.34720  0.65300  1.0000
  C   C370      1.0  0.15890  0.65280  0.15300  1.0000
  C   C371      1.0  0.34110  0.15280  0.65300  1.0000
  C   C372      1.0  0.65890  0.84720  0.15300  1.0000
  H   H217      1.0  0.85170  0.31640  0.63610  1.0000
  H   H218      1.0  0.14830  0.68360  0.13610  1.0000
  H   H219      1.0  0.35170  0.18360  0.63610  1.0000
  H   H220      1.0  0.64830  0.81640  0.13610  1.0000
  C   C373      1.0  0.94180  0.29780  0.92630  1.0000
  C   C374      1.0  0.05820  0.70220  0.42630  1.0000
  C   C375      1.0  0.44180  0.20220  0.92630  1.0000
  C   C376      1.0  0.55820  0.79780  0.42630  1.0000
  H   H221      1.0  0.93900  0.33220  0.94290  1.0000
  H   H222      1.0  0.06100  0.66780  0.44290  1.0000
  H   H223      1.0  0.43900  0.16780  0.94290  1.0000
  H   H224      1.0  0.56100  0.83220  0.44290  1.0000
  C   C377      1.0  0.81980  0.71160  0.14650  1.0000
  C   C378      1.0  0.18020  0.28840  0.64650  1.0000
  C   C379      1.0  0.31980  0.78840  0.14650  1.0000
  C   C380      1.0  0.68020  0.21160  0.64650  1.0000
  H   H225      1.0  0.81240  0.74740  0.13240  1.0000
  H   H226      1.0  0.18760  0.25260  0.63240  1.0000
  H   H227      1.0  0.31240  0.75260  0.13240  1.0000
  H   H228      1.0  0.68760  0.24740  0.63240  1.0000
  C   C381      1.0  0.90310  0.10490  0.09720  1.0000
  C   C382      1.0  0.09690  0.89510  0.59720  1.0000
  C   C383      1.0  0.40310  0.39510  0.09720  1.0000
  C   C384      1.0  0.59690  0.60490  0.59720  1.0000
  C   C385      1.0  0.84130  0.60520  0.14520  1.0000
  C   C386      1.0  0.15870  0.39480  0.64520  1.0000
  C   C387      1.0  0.34130  0.89480  0.14520  1.0000
  C   C388      1.0  0.65870  0.10520  0.64520  1.0000
  C   C389      1.0  0.01550  0.89680  0.20640  1.0000
  C   C390      1.0  0.98450  0.10320  0.70640  1.0000
  C   C391      1.0  0.51550  0.60320  0.20640  1.0000
  C   C392      1.0  0.48450  0.39680  0.70640  1.0000
  H   H229      1.0  0.02330  0.92890  0.22360  1.0000
  H   H230      1.0  0.97670  0.07110  0.72360  1.0000
  H   H231      1.0  0.52330  0.57110  0.22360  1.0000
  H   H232      1.0  0.47670  0.42890  0.72360  1.0000
  C   C393      1.0  0.88290  0.88960  0.15700  1.0000
  C   C394      1.0  0.11710  0.11040  0.65700  1.0000
  C   C395      1.0  0.38290  0.61040  0.15700  1.0000
  C   C396      1.0  0.61710  0.38960  0.65700  1.0000
  H   H233      1.0  0.91180  0.89250  0.14750  1.0000
  H   H234      1.0  0.08820  0.10750  0.64750  1.0000
  H   H235      1.0  0.41180  0.60750  0.14750  1.0000
  H   H236      1.0  0.58820  0.39250  0.64750  1.0000
  C   C397      1.0  0.85000  0.49430  0.14140  1.0000
  C   C398      1.0  0.15000  0.50570  0.64140  1.0000
  C   C399      1.0  0.35000  0.00570  0.14140  1.0000
  C   C400      1.0  0.65000  0.99430  0.64140  1.0000
  H   H237      1.0  0.84030  0.49430  0.16780  1.0000
  H   H238      1.0  0.15970  0.50570  0.66780  1.0000
  H   H239      1.0  0.34030  0.00570  0.16780  1.0000
  H   H240      1.0  0.65970  0.99430  0.66780  1.0000
  C   C401      1.0  0.80080  0.82730  0.26960  1.0000
  C   C402      1.0  0.19920  0.17270  0.76960  1.0000
  C   C403      1.0  0.30080  0.67270  0.26960  1.0000
  C   C404      1.0  0.69920  0.32730  0.76960  1.0000
  H   H241      1.0  0.81960  0.85920  0.26140  1.0000
  H   H242      1.0  0.18040  0.14080  0.76140  1.0000
  H   H243      1.0  0.31960  0.64080  0.26140  1.0000
  H   H244      1.0  0.68040  0.35920  0.76140  1.0000
  C   C405      1.0  0.78070  0.82890  0.30630  1.0000
  C   C406      1.0  0.21930  0.17110  0.80630  1.0000
  C   C407      1.0  0.28070  0.67110  0.30630  1.0000
  C   C408      1.0  0.71930  0.32890  0.80630  1.0000
  H   H245      1.0  0.78740  0.86180  0.32330  1.0000
  H   H246      1.0  0.21260  0.13820  0.82330  1.0000
  H   H247      1.0  0.28740  0.63820  0.32330  1.0000
  H   H248      1.0  0.71260  0.36180  0.82330  1.0000
  C   C409      1.0  0.04130  0.61220  0.16020  1.0000
  C   C410      1.0  0.95870  0.38780  0.66020  1.0000
  C   C411      1.0  0.54130  0.88780  0.16020  1.0000
  C   C412      1.0  0.45870  0.11220  0.66020  1.0000
  H   H249      1.0  0.06930  0.60630  0.14920  1.0000
  H   H250      1.0  0.93070  0.39370  0.64920  1.0000
  H   H251      1.0  0.56930  0.89370  0.14920  1.0000
  H   H252      1.0  0.43070  0.10630  0.64920  1.0000
  C   C413      1.0  0.84370  0.74100  0.48720  1.0000
  C   C414      1.0  0.15630  0.25900  0.98720  1.0000
  C   C415      1.0  0.34370  0.75900  0.48720  1.0000
  C   C416      1.0  0.65630  0.24100  0.98720  1.0000
  C   C417      1.0  0.87810  0.49200  0.06790  1.0000
  C   C418      1.0  0.12190  0.50800  0.56790  1.0000
  C   C419      1.0  0.37810  0.00800  0.06790  1.0000
  C   C420      1.0  0.62190  0.99200  0.56790  1.0000
  H   H253      1.0  0.89280  0.49040  0.04360  1.0000
  H   H254      1.0  0.10720  0.50960  0.54360  1.0000
  H   H255      1.0  0.39280  0.00960  0.04360  1.0000
  H   H256      1.0  0.60720  0.99040  0.54360  1.0000
  C   C421      1.0  0.73250  0.81570  0.42770  1.0000
  C   C422      1.0  0.26750  0.18430  0.92770  1.0000
  C   C423      1.0  0.23250  0.68430  0.42770  1.0000
  C   C424      1.0  0.76750  0.31570  0.92770  1.0000
  H   H257      1.0  0.74610  0.83930  0.44750  1.0000
  H   H258      1.0  0.25390  0.16070  0.94750  1.0000
  H   H259      1.0  0.24610  0.66070  0.44750  1.0000
  H   H260      1.0  0.75390  0.33930  0.94750  1.0000
  C   C425      1.0  0.96840  0.57920  0.17480  1.0000
  C   C426      1.0  0.03160  0.42080  0.67480  1.0000
  C   C427      1.0  0.46840  0.92080  0.17480  1.0000
  C   C428      1.0  0.53160  0.07920  0.67480  1.0000
  H   H261      1.0  0.94630  0.54910  0.17350  1.0000
  H   H262      1.0  0.05370  0.45090  0.67350  1.0000
  H   H263      1.0  0.44630  0.95090  0.17350  1.0000
  H   H264      1.0  0.55370  0.04910  0.67350  1.0000
  C   C429      1.0  0.95700  0.68710  0.31760  1.0000
  C   C430      1.0  0.04300  0.31290  0.81760  1.0000
  C   C431      1.0  0.45700  0.81290  0.31760  1.0000
  C   C432      1.0  0.54300  0.18710  0.81760  1.0000
  H   H265      1.0  0.96890  0.65900  0.33570  1.0000
  H   H266      1.0  0.03110  0.34100  0.83570  1.0000
  H   H267      1.0  0.46890  0.84100  0.33570  1.0000
  H   H268      1.0  0.53110  0.15900  0.83570  1.0000
  C   C433      1.0  0.92800  0.29770  0.88780  1.0000
  C   C434      1.0  0.07200  0.70230  0.38780  1.0000
  C   C435      1.0  0.42800  0.20230  0.88780  1.0000
  C   C436      1.0  0.57200  0.79770  0.38780  1.0000
  H   H269      1.0  0.91370  0.33300  0.87830  1.0000
  H   H270      1.0  0.08630  0.66700  0.37830  1.0000
  H   H271      1.0  0.41370  0.16700  0.87830  1.0000
  H   H272      1.0  0.58630  0.83300  0.37830  1.0000
  C   C437      1.0  0.86790  0.55980  0.08300  1.0000
  C   C438      1.0  0.13210  0.44020  0.58300  1.0000
  C   C439      1.0  0.36790  0.94020  0.08300  1.0000
  C   C440      1.0  0.63210  0.05980  0.58300  1.0000
  H   H273      1.0  0.87060  0.59740  0.06950  1.0000
  H   H274      1.0  0.12940  0.40260  0.56950  1.0000
  H   H275      1.0  0.37060  0.90260  0.06950  1.0000
  H   H276      1.0  0.62940  0.09740  0.56950  1.0000
  C   C441      1.0  0.05730  0.08080  0.11460  1.0000
  C   C442      1.0  0.94270  0.91920  0.61460  1.0000
  C   C443      1.0  0.55730  0.41920  0.11460  1.0000
  C   C444      1.0  0.44270  0.58080  0.61460  1.0000
  C   C445      1.0  0.74900  0.81830  0.39130  1.0000
  C   C446      1.0  0.25100  0.18170  0.89130  1.0000
  C   C447      1.0  0.24900  0.68170  0.39130  1.0000
  C   C448      1.0  0.75100  0.31830  0.89130  1.0000
  H   H277      1.0  0.77340  0.84360  0.38670  1.0000
  H   H278      1.0  0.22660  0.15640  0.88670  1.0000
  H   H279      1.0  0.27340  0.65640  0.38670  1.0000
  H   H280      1.0  0.72660  0.34360  0.88670  1.0000
  C   C449      1.0  0.92740  0.71910  0.40350  1.0000
  C   C450      1.0  0.07260  0.28090  0.90350  1.0000
  C   C451      1.0  0.42740  0.78090  0.40350  1.0000
  C   C452      1.0  0.57260  0.21910  0.90350  1.0000
  H   H281      1.0  0.95770  0.71240  0.40050  1.0000
  H   H282      1.0  0.04230  0.28760  0.90050  1.0000
  H   H283      1.0  0.45770  0.78760  0.40050  1.0000
  H   H284      1.0  0.54230  0.21240  0.90050  1.0000
  C   C453      1.0  0.07470  0.14750  0.09490  1.0000
  C   C454      1.0  0.92530  0.85250  0.59490  1.0000
  C   C455      1.0  0.57470  0.35250  0.09490  1.0000
  C   C456      1.0  0.42530  0.64750  0.59490  1.0000
  C   C457      1.0  0.92170  0.16650  0.07500  1.0000
  C   C458      1.0  0.07830  0.83350  0.57500  1.0000
  C   C459      1.0  0.42170  0.33350  0.07500  1.0000
  C   C460      1.0  0.57830  0.66650  0.57500  1.0000
  C   C461      1.0  0.86040  0.43490  0.12300  1.0000
  C   C462      1.0  0.13960  0.56510  0.62300  1.0000
  C   C463      1.0  0.36040  0.06510  0.12300  1.0000
  C   C464      1.0  0.63960  0.93490  0.62300  1.0000
  H   H285      1.0  0.86070  0.39760  0.13700  1.0000
  H   H286      1.0  0.13930  0.60240  0.63700  1.0000
  H   H287      1.0  0.36070  0.10240  0.13700  1.0000
  H   H288      1.0  0.63930  0.89760  0.63700  1.0000
  O   O65       1.0  0.89070  0.38480  0.02330  1.0000
  O   O66       1.0  0.10930  0.61520  0.52330  1.0000
  O   O67       1.0  0.39070  0.11520  0.02330  1.0000
  O   O68       1.0  0.60930  0.88480  0.52330  1.0000
  O   O69       1.0  0.88670  0.33300  0.07870  1.0000
  O   O70       1.0  0.11330  0.66700  0.57870  1.0000
  O   O71       1.0  0.38670  0.16700  0.07870  1.0000
  O   O72       1.0  0.61330  0.83300  0.57870  1.0000
  C   C465      1.0  0.88690  0.36610  0.05760  1.0000
  C   C466      1.0  0.11310  0.63390  0.55760  1.0000
  C   C467      1.0  0.38690  0.13390  0.05760  1.0000
  C   C468      1.0  0.61310  0.86610  0.55760  1.0000
