data_image0
_chemical_formula_structural       U8O64C12H4C12H4C4H4C4H4C8H4C4H4C16H4C12H4C4H4C4H4C8H4C4H4C16H4C12H4C4H4C4H4C8H4C4H4C4
_chemical_formula_sum              "U8 O64 C144 H72"
_cell_length_a       16.2231
_cell_length_b       22.3002
_cell_length_c       18.4139
_cell_angle_alpha    90
_cell_angle_beta     99.8152
_cell_angle_gamma    90

_space_group_name_H-M_alt    "P 1"
_space_group_IT_number       1

loop_
  _space_group_symop_operation_xyz
  'x, y, z'

loop_
  _atom_site_type_symbol
  _atom_site_label
  _atom_site_symmetry_multiplicity
  _atom_site_fract_x
  _atom_site_fract_y
  _atom_site_fract_z
  _atom_site_occupancy
  U   U1        1.0  0.66037  0.41306  0.93567  1.0000
  U   U2        1.0  0.83963  0.91306  0.56433  1.0000
  U   U3        1.0  0.33963  0.58694  0.06433  1.0000
  U   U4        1.0  0.16037  0.08694  0.43567  1.0000
  U   U5        1.0  0.37456  0.38581  0.58772  1.0000
  U   U6        1.0  0.12544  0.88581  0.91228  1.0000
  U   U7        1.0  0.62544  0.61419  0.41228  1.0000
  U   U8        1.0  0.87456  0.11419  0.08772  1.0000
  O   O1        1.0  0.55660  0.40702  0.88680  1.0000
  O   O2        1.0  0.94340  0.90702  0.61320  1.0000
  O   O3        1.0  0.44340  0.59298  0.11320  1.0000
  O   O4        1.0  0.05660  0.09298  0.38680  1.0000
  O   O5        1.0  0.76260  0.42089  0.98671  1.0000
  O   O6        1.0  0.73740  0.92089  0.51329  1.0000
  O   O7        1.0  0.23740  0.57911  0.01329  1.0000
  O   O8        1.0  0.26260  0.07911  0.48671  1.0000
  O   O9        1.0  0.27360  0.37730  0.53335  1.0000
  O   O10       1.0  0.22640  0.87730  0.96665  1.0000
  O   O11       1.0  0.72640  0.62270  0.46665  1.0000
  O   O12       1.0  0.77360  0.12270  0.03335  1.0000
  O   O13       1.0  0.47450  0.39516  0.64290  1.0000
  O   O14       1.0  0.02550  0.89516  0.85710  1.0000
  O   O15       1.0  0.52550  0.60484  0.35710  1.0000
  O   O16       1.0  0.97450  0.10484  0.14290  1.0000
  O   O17       1.0  0.60680  0.46244  0.03646  1.0000
  O   O18       1.0  0.89320  0.96244  0.46354  1.0000
  O   O19       1.0  0.39320  0.53756  0.96354  1.0000
  O   O20       1.0  0.10680  0.03756  0.53646  1.0000
  O   O21       1.0  0.61340  0.36452  0.04090  1.0000
  O   O22       1.0  0.88660  0.86452  0.45910  1.0000
  O   O23       1.0  0.38660  0.63548  0.95910  1.0000
  O   O24       1.0  0.11340  0.13548  0.54090  1.0000
  O   O25       1.0  0.45050  0.33974  0.49550  1.0000
  O   O26       1.0  0.04950  0.83974  0.00450  1.0000
  O   O27       1.0  0.54950  0.66026  0.50450  1.0000
  O   O28       1.0  0.95050  0.16026  0.99550  1.0000
  O   O29       1.0  0.42220  0.43539  0.48280  1.0000
  O   O30       1.0  0.07780  0.93539  0.01720  1.0000
  O   O31       1.0  0.57780  0.56461  0.51720  1.0000
  O   O32       1.0  0.92220  0.06461  0.98280  1.0000
  O   O33       1.0  0.67860  0.30250  0.93554  1.0000
  O   O34       1.0  0.82140  0.80250  0.56446  1.0000
  O   O35       1.0  0.32140  0.69750  0.06446  1.0000
  O   O36       1.0  0.17860  0.19750  0.43554  1.0000
  O   O37       1.0  0.70980  0.35141  0.84091  1.0000
  O   O38       1.0  0.79020  0.85141  0.65909  1.0000
  O   O39       1.0  0.29020  0.64859  0.15909  1.0000
  O   O40       1.0  0.20980  0.14859  0.34091  1.0000
  O   O41       1.0  0.80210  0.97412  0.66502  1.0000
  O   O42       1.0  0.69790  0.47412  0.83498  1.0000
  O   O43       1.0  0.19790  0.02588  0.33498  1.0000
  O   O44       1.0  0.30210  0.52588  0.16502  1.0000
  O   O45       1.0  0.84050  0.02387  0.57412  1.0000
  O   O46       1.0  0.65950  0.52387  0.92588  1.0000
  O   O47       1.0  0.15950  0.97613  0.42588  1.0000
  O   O48       1.0  0.34050  0.47613  0.07412  1.0000
  O   O49       1.0  0.34500  0.49346  0.58362  1.0000
  O   O50       1.0  0.15500  0.99346  0.91638  1.0000
  O   O51       1.0  0.65500  0.50654  0.41638  1.0000
  O   O52       1.0  0.84500  0.00654  0.08362  1.0000
  O   O53       1.0  0.30760  0.44359  0.67558  1.0000
  O   O54       1.0  0.19240  0.94359  0.82442  1.0000
  O   O55       1.0  0.69240  0.55641  0.32442  1.0000
  O   O56       1.0  0.80760  0.05641  0.17558  1.0000
  O   O57       1.0  0.16530  0.82112  0.81582  1.0000
  O   O58       1.0  0.33470  0.32112  0.68418  1.0000
  O   O59       1.0  0.83470  0.17888  0.18418  1.0000
  O   O60       1.0  0.66530  0.67888  0.31582  1.0000
  O   O61       1.0  0.12250  0.77393  0.90705  1.0000
  O   O62       1.0  0.37750  0.27393  0.59295  1.0000
  O   O63       1.0  0.87750  0.22607  0.09295  1.0000
  O   O64       1.0  0.62250  0.72607  0.40705  1.0000
  C   C1        1.0  0.59740  0.41430  0.06970  1.0000
  C   C2        1.0  0.90260  0.91430  0.43030  1.0000
  C   C3        1.0  0.40260  0.58570  0.93030  1.0000
  C   C4        1.0  0.09740  0.08570  0.56970  1.0000
  C   C5        1.0  0.56850  0.41660  0.14210  1.0000
  C   C6        1.0  0.93150  0.91660  0.35790  1.0000
  C   C7        1.0  0.43150  0.58340  0.85790  1.0000
  C   C8        1.0  0.06850  0.08340  0.64210  1.0000
  C   C9        1.0  0.57120  0.36830  0.18490  1.0000
  C   C10       1.0  0.92880  0.86830  0.31510  1.0000
  C   C11       1.0  0.42880  0.63170  0.81510  1.0000
  C   C12       1.0  0.07120  0.13170  0.68490  1.0000
  H   H1        1.0  0.59080  0.33110  0.16930  1.0000
  H   H2        1.0  0.90920  0.83110  0.33070  1.0000
  H   H3        1.0  0.40920  0.66890  0.83070  1.0000
  H   H4        1.0  0.09080  0.16890  0.66930  1.0000
  C   C13       1.0  0.54270  0.37350  0.25830  1.0000
  C   C14       1.0  0.95730  0.87350  0.24170  1.0000
  C   C15       1.0  0.45730  0.62650  0.74170  1.0000
  C   C16       1.0  0.04270  0.12650  0.75830  1.0000
  C   C17       1.0  0.51400  0.43000  0.27460  1.0000
  C   C18       1.0  0.98600  0.93000  0.22540  1.0000
  C   C19       1.0  0.48600  0.57000  0.72540  1.0000
  C   C20       1.0  0.01400  0.07000  0.77460  1.0000
  C   C21       1.0  0.51140  0.47950  0.23250  1.0000
  C   C22       1.0  0.98860  0.97950  0.26750  1.0000
  C   C23       1.0  0.48860  0.52050  0.76750  1.0000
  C   C24       1.0  0.01140  0.02050  0.73250  1.0000
  H   H5        1.0  0.49140  0.51670  0.24770  1.0000
  H   H6        1.0  0.00860  0.01670  0.25230  1.0000
  H   H7        1.0  0.50860  0.48330  0.75230  1.0000
  H   H8        1.0  0.99140  0.98330  0.74770  1.0000
  C   C25       1.0  0.53920  0.47330  0.16570  1.0000
  C   C26       1.0  0.96080  0.97330  0.33430  1.0000
  C   C27       1.0  0.46080  0.52670  0.83430  1.0000
  C   C28       1.0  0.03920  0.02670  0.66570  1.0000
  H   H9        1.0  0.53900  0.50730  0.13470  1.0000
  H   H10       1.0  0.96100  0.00730  0.36530  1.0000
  H   H11       1.0  0.46100  0.49270  0.86530  1.0000
  H   H12       1.0  0.03900  0.99270  0.63470  1.0000
  C   C29       1.0  0.48560  0.43410  0.34800  1.0000
  C   C30       1.0  0.01440  0.93410  0.15200  1.0000
  C   C31       1.0  0.51440  0.56590  0.65200  1.0000
  C   C32       1.0  0.98560  0.06590  0.84800  1.0000
  H   H13       1.0  0.46450  0.47090  0.36330  1.0000
  H   H14       1.0  0.03550  0.97090  0.13670  1.0000
  H   H15       1.0  0.53550  0.52910  0.63670  1.0000
  H   H16       1.0  0.96450  0.02910  0.86330  1.0000
  C   C33       1.0  0.49010  0.38610  0.39160  1.0000
  C   C34       1.0  0.00990  0.88610  0.10840  1.0000
  C   C35       1.0  0.50990  0.61390  0.60840  1.0000
  C   C36       1.0  0.99010  0.11390  0.89160  1.0000
  C   C37       1.0  0.52700  0.33190  0.37150  1.0000
  C   C38       1.0  0.97300  0.83190  0.12850  1.0000
  C   C39       1.0  0.47300  0.66810  0.62850  1.0000
  C   C40       1.0  0.02700  0.16810  0.87150  1.0000
  H   H17       1.0  0.53410  0.29940  0.40540  1.0000
  H   H18       1.0  0.96590  0.79940  0.09460  1.0000
  H   H19       1.0  0.46590  0.70060  0.59460  1.0000
  H   H20       1.0  0.03410  0.20060  0.90540  1.0000
  C   C41       1.0  0.55290  0.32500  0.30400  1.0000
  C   C42       1.0  0.94710  0.82500  0.19600  1.0000
  C   C43       1.0  0.44710  0.67500  0.69600  1.0000
  C   C44       1.0  0.05290  0.17500  0.80400  1.0000
  H   H21       1.0  0.57630  0.28860  0.29040  1.0000
  H   H22       1.0  0.92370  0.78860  0.20960  1.0000
  H   H23       1.0  0.42370  0.71140  0.70960  1.0000
  H   H24       1.0  0.07630  0.21140  0.79040  1.0000
  C   C45       1.0  0.45340  0.38810  0.46030  1.0000
  C   C46       1.0  0.04660  0.88810  0.03970  1.0000
  C   C47       1.0  0.54660  0.61190  0.53970  1.0000
  C   C48       1.0  0.95340  0.11190  0.96030  1.0000
  C   C49       1.0  0.70360  0.30190  0.87390  1.0000
  C   C50       1.0  0.79640  0.80190  0.62610  1.0000
  C   C51       1.0  0.29640  0.69810  0.12610  1.0000
  C   C52       1.0  0.20360  0.19810  0.37390  1.0000
  C   C53       1.0  0.72580  0.24480  0.84040  1.0000
  C   C54       1.0  0.77420  0.74480  0.65960  1.0000
  C   C55       1.0  0.27420  0.75520  0.15960  1.0000
  C   C56       1.0  0.22580  0.25520  0.34040  1.0000
  C   C57       1.0  0.74120  0.24400  0.76940  1.0000
  C   C58       1.0  0.75880  0.74400  0.73060  1.0000
  C   C59       1.0  0.25880  0.75600  0.23060  1.0000
  C   C60       1.0  0.24120  0.25600  0.26940  1.0000
  H   H25       1.0  0.73680  0.28010  0.74170  1.0000
  H   H26       1.0  0.76320  0.78010  0.75830  1.0000
  H   H27       1.0  0.26320  0.71990  0.25830  1.0000
  H   H28       1.0  0.23680  0.21990  0.24170  1.0000
  C   C61       1.0  0.76370  0.19000  0.73650  1.0000
  C   C62       1.0  0.73630  0.69000  0.76350  1.0000
  C   C63       1.0  0.23630  0.81000  0.26350  1.0000
  C   C64       1.0  0.26370  0.31000  0.23650  1.0000
  C   C65       1.0  0.76810  0.13590  0.77800  1.0000
  C   C66       1.0  0.73190  0.63590  0.72200  1.0000
  C   C67       1.0  0.23190  0.86410  0.22200  1.0000
  C   C68       1.0  0.26810  0.36410  0.27800  1.0000
  C   C69       1.0  0.75300  0.13820  0.85160  1.0000
  C   C70       1.0  0.74700  0.63820  0.64840  1.0000
  C   C71       1.0  0.24700  0.86180  0.14840  1.0000
  C   C72       1.0  0.25300  0.36180  0.35160  1.0000
  H   H29       1.0  0.75690  0.10250  0.88010  1.0000
  H   H30       1.0  0.74310  0.60250  0.61990  1.0000
  H   H31       1.0  0.24310  0.89750  0.11990  1.0000
  H   H32       1.0  0.25690  0.39750  0.38010  1.0000
  C   C73       1.0  0.73260  0.19140  0.88260  1.0000
  C   C74       1.0  0.76740  0.69140  0.61740  1.0000
  C   C75       1.0  0.26740  0.80860  0.11740  1.0000
  C   C76       1.0  0.23260  0.30860  0.38260  1.0000
  H   H33       1.0  0.72330  0.19220  0.93210  1.0000
  H   H34       1.0  0.77670  0.69220  0.56790  1.0000
  H   H35       1.0  0.27670  0.80780  0.06790  1.0000
  H   H36       1.0  0.22330  0.30780  0.43210  1.0000
  C   C77       1.0  0.78600  0.08170  0.74380  1.0000
  C   C78       1.0  0.71400  0.58170  0.75620  1.0000
  C   C79       1.0  0.21400  0.91830  0.25620  1.0000
  C   C80       1.0  0.28600  0.41830  0.24380  1.0000
  H   H37       1.0  0.78740  0.04510  0.77040  1.0000
  H   H38       1.0  0.71260  0.54510  0.72960  1.0000
  H   H39       1.0  0.21260  0.95490  0.22960  1.0000
  H   H40       1.0  0.28740  0.45490  0.27040  1.0000
  C   C81       1.0  0.80140  0.08110  0.67270  1.0000
  C   C82       1.0  0.69860  0.58110  0.82730  1.0000
  C   C83       1.0  0.19860  0.91890  0.32730  1.0000
  C   C84       1.0  0.30140  0.41890  0.17270  1.0000
  C   C85       1.0  0.80010  0.13570  0.63320  1.0000
  C   C86       1.0  0.69990  0.63570  0.86680  1.0000
  C   C87       1.0  0.19990  0.86430  0.36680  1.0000
  C   C88       1.0  0.30010  0.36430  0.13320  1.0000
  H   H41       1.0  0.81230  0.13560  0.58450  1.0000
  H   H42       1.0  0.68770  0.63560  0.91550  1.0000
  H   H43       1.0  0.18770  0.86440  0.41550  1.0000
  H   H44       1.0  0.31230  0.36440  0.08450  1.0000
  C   C89       1.0  0.78170  0.18820  0.66400  1.0000
  C   C90       1.0  0.71830  0.68820  0.83600  1.0000
  C   C91       1.0  0.21830  0.81180  0.33600  1.0000
  C   C92       1.0  0.28170  0.31180  0.16400  1.0000
  H   H45       1.0  0.78080  0.22430  0.63650  1.0000
  H   H46       1.0  0.71920  0.72430  0.86350  1.0000
  H   H47       1.0  0.21920  0.77570  0.36350  1.0000
  H   H48       1.0  0.28080  0.27570  0.13650  1.0000
  C   C93       1.0  0.81600  0.02360  0.63590  1.0000
  C   C94       1.0  0.68400  0.52360  0.86410  1.0000
  C   C95       1.0  0.18400  0.97640  0.36410  1.0000
  C   C96       1.0  0.31600  0.47640  0.13590  1.0000
  C   C97       1.0  0.31090  0.49280  0.64090  1.0000
  C   C98       1.0  0.18910  0.99280  0.85910  1.0000
  C   C99       1.0  0.68910  0.50720  0.35910  1.0000
  C   C100      1.0  0.81090  0.00720  0.14090  1.0000
  C   C101      1.0  0.27540  0.54850  0.66610  1.0000
  C   C102      1.0  0.22460  0.04850  0.83390  1.0000
  C   C103      1.0  0.72460  0.45150  0.33390  1.0000
  C   C104      1.0  0.77540  0.95150  0.16610  1.0000
  C   C105      1.0  0.25260  0.55080  0.73470  1.0000
  C   C106      1.0  0.24740  0.05080  0.76530  1.0000
  C   C107      1.0  0.74740  0.44920  0.26530  1.0000
  C   C108      1.0  0.75260  0.94920  0.23470  1.0000
  H   H49       1.0  0.25610  0.51540  0.76380  1.0000
  H   H50       1.0  0.24390  0.01540  0.73620  1.0000
  H   H51       1.0  0.74390  0.48460  0.23620  1.0000
  H   H52       1.0  0.75610  0.98460  0.26380  1.0000
  C   C109      1.0  0.22400  0.60470  0.76310  1.0000
  C   C110      1.0  0.27600  0.10470  0.73690  1.0000
  C   C111      1.0  0.77600  0.39530  0.23690  1.0000
  C   C112      1.0  0.72400  0.89530  0.26310  1.0000
  C   C113      1.0  0.21930  0.65700  0.71810  1.0000
  C   C114      1.0  0.28070  0.15700  0.78190  1.0000
  C   C115      1.0  0.78070  0.34300  0.28190  1.0000
  C   C116      1.0  0.71930  0.84300  0.21810  1.0000
  C   C117      1.0  0.24010  0.65330  0.64650  1.0000
  C   C118      1.0  0.25990  0.15330  0.85350  1.0000
  C   C119      1.0  0.75990  0.34670  0.35350  1.0000
  C   C120      1.0  0.74010  0.84670  0.14650  1.0000
  H   H53       1.0  0.23430  0.68770  0.61570  1.0000
  H   H54       1.0  0.26570  0.18770  0.88430  1.0000
  H   H55       1.0  0.76570  0.31230  0.38430  1.0000
  H   H56       1.0  0.73430  0.81230  0.11570  1.0000
  C   C121      1.0  0.26860  0.60070  0.62110  1.0000
  C   C122      1.0  0.23140  0.10070  0.87890  1.0000
  C   C123      1.0  0.73140  0.39930  0.37890  1.0000
  C   C124      1.0  0.76860  0.89930  0.12110  1.0000
  H   H57       1.0  0.28370  0.59910  0.57350  1.0000
  H   H58       1.0  0.21630  0.09910  0.92650  1.0000
  H   H59       1.0  0.71630  0.40090  0.42650  1.0000
  H   H60       1.0  0.78370  0.90090  0.07350  1.0000
  C   C125      1.0  0.19620  0.71170  0.74810  1.0000
  C   C126      1.0  0.30380  0.21170  0.75190  1.0000
  C   C127      1.0  0.80380  0.28830  0.25190  1.0000
  C   C128      1.0  0.69620  0.78830  0.24810  1.0000
  H   H61       1.0  0.19390  0.74730  0.71950  1.0000
  H   H62       1.0  0.30610  0.24730  0.78050  1.0000
  H   H63       1.0  0.80610  0.25270  0.28050  1.0000
  H   H64       1.0  0.69390  0.75270  0.21950  1.0000
  C   C129      1.0  0.17700  0.71430  0.81810  1.0000
  C   C130      1.0  0.32300  0.21430  0.68190  1.0000
  C   C131      1.0  0.82300  0.28570  0.18190  1.0000
  C   C132      1.0  0.67700  0.78570  0.31810  1.0000
  C   C133      1.0  0.18120  0.66180  0.86170  1.0000
  C   C134      1.0  0.31880  0.16180  0.63830  1.0000
  C   C135      1.0  0.81880  0.33820  0.13830  1.0000
  C   C136      1.0  0.68120  0.83820  0.36170  1.0000
  H   H65       1.0  0.16800  0.66360  0.90990  1.0000
  H   H66       1.0  0.33200  0.16360  0.59010  1.0000
  H   H67       1.0  0.83200  0.33640  0.09010  1.0000
  H   H68       1.0  0.66800  0.83640  0.40990  1.0000
  C   C137      1.0  0.20420  0.60840  0.83430  1.0000
  C   C138      1.0  0.29580  0.10840  0.66570  1.0000
  C   C139      1.0  0.79580  0.39160  0.16570  1.0000
  C   C140      1.0  0.70420  0.89160  0.33430  1.0000
  H   H69       1.0  0.20690  0.57340  0.86390  1.0000
  H   H70       1.0  0.29310  0.07340  0.63610  1.0000
  H   H71       1.0  0.79310  0.42660  0.13610  1.0000
  H   H72       1.0  0.70690  0.92660  0.36390  1.0000
  C   C141      1.0  0.15380  0.77230  0.84880  1.0000
  C   C142      1.0  0.34620  0.27230  0.65120  1.0000
  C   C143      1.0  0.84620  0.22770  0.15120  1.0000
  C   C144      1.0  0.65380  0.72770  0.34880  1.0000
