data_image0
_chemical_formula_structural       U8O64C8H8C16H8C8H8C8H8C28H4C16H8C4H4C8
_chemical_formula_sum              "U8 O64 C96 H48"
_cell_length_a       17.2556
_cell_length_b       13.6441
_cell_length_c       28.5214
_cell_angle_alpha    90
_cell_angle_beta     90
_cell_angle_gamma    90

_space_group_name_H-M_alt    "P 1"
_space_group_IT_number       1

loop_
  _space_group_symop_operation_xyz
  'x, y, z'

loop_
  _atom_site_type_symbol
  _atom_site_label
  _atom_site_symmetry_multiplicity
  _atom_site_fract_x
  _atom_site_fract_y
  _atom_site_fract_z
  _atom_site_occupancy
  U   U1        1.0  0.53592  0.36410  0.41555  1.0000
  U   U2        1.0  0.96408  0.63590  0.41555  1.0000
  U   U3        1.0  0.96408  0.86410  0.08445  1.0000
  U   U4        1.0  0.53592  0.13590  0.08445  1.0000
  U   U5        1.0  0.46408  0.63590  0.58445  1.0000
  U   U6        1.0  0.03592  0.36410  0.58445  1.0000
  U   U7        1.0  0.03592  0.13590  0.91555  1.0000
  U   U8        1.0  0.46408  0.86410  0.91555  1.0000
  O   O1        1.0  0.54230  0.49010  0.40159  1.0000
  O   O2        1.0  0.95770  0.50990  0.40159  1.0000
  O   O3        1.0  0.95770  0.99010  0.09841  1.0000
  O   O4        1.0  0.54230  0.00990  0.09841  1.0000
  O   O5        1.0  0.45770  0.50990  0.59841  1.0000
  O   O6        1.0  0.04230  0.49010  0.59841  1.0000
  O   O7        1.0  0.04230  0.00990  0.90159  1.0000
  O   O8        1.0  0.45770  0.99010  0.90159  1.0000
  O   O9        1.0  0.52999  0.23650  0.42873  1.0000
  O   O10       1.0  0.97001  0.76350  0.42873  1.0000
  O   O11       1.0  0.97001  0.73650  0.07127  1.0000
  O   O12       1.0  0.52999  0.26350  0.07127  1.0000
  O   O13       1.0  0.47001  0.76350  0.57127  1.0000
  O   O14       1.0  0.02999  0.23650  0.57127  1.0000
  O   O15       1.0  0.02999  0.26350  0.92873  1.0000
  O   O16       1.0  0.47001  0.73650  0.92873  1.0000
  O   O17       1.0  0.40870  0.35440  0.37596  1.0000
  O   O18       1.0  0.09130  0.64560  0.37596  1.0000
  O   O19       1.0  0.09130  0.85440  0.12404  1.0000
  O   O20       1.0  0.40870  0.14560  0.12404  1.0000
  O   O21       1.0  0.59130  0.64560  0.62404  1.0000
  O   O22       1.0  0.90870  0.35440  0.62404  1.0000
  O   O23       1.0  0.90870  0.14560  0.87596  1.0000
  O   O24       1.0  0.59130  0.85440  0.87596  1.0000
  O   O25       1.0  0.40797  0.38610  0.45109  1.0000
  O   O26       1.0  0.09203  0.61390  0.45109  1.0000
  O   O27       1.0  0.09203  0.88610  0.04891  1.0000
  O   O28       1.0  0.40797  0.11390  0.04891  1.0000
  O   O29       1.0  0.59203  0.61390  0.54891  1.0000
  O   O30       1.0  0.90797  0.38610  0.54891  1.0000
  O   O31       1.0  0.90797  0.11390  0.95109  1.0000
  O   O32       1.0  0.59203  0.88610  0.95109  1.0000
  O   O33       1.0  0.04653  0.38870  0.49944  1.0000
  O   O34       1.0  0.45347  0.61130  0.49944  1.0000
  O   O35       1.0  0.45347  0.88870  0.00056  1.0000
  O   O36       1.0  0.04653  0.11130  0.00056  1.0000
  O   O37       1.0  0.95347  0.61130  0.50056  1.0000
  O   O38       1.0  0.54653  0.38870  0.50056  1.0000
  O   O39       1.0  0.54653  0.11130  0.99944  1.0000
  O   O40       1.0  0.95347  0.88870  0.99944  1.0000
  O   O41       1.0  0.15570  0.37710  0.53845  1.0000
  O   O42       1.0  0.34430  0.62290  0.53845  1.0000
  O   O43       1.0  0.34430  0.87710  0.96155  1.0000
  O   O44       1.0  0.15570  0.12290  0.96155  1.0000
  O   O45       1.0  0.84430  0.62290  0.46155  1.0000
  O   O46       1.0  0.65570  0.37710  0.46155  1.0000
  O   O47       1.0  0.65570  0.12290  0.03845  1.0000
  O   O48       1.0  0.84430  0.87710  0.03845  1.0000
  O   O49       1.0  0.65369  0.33550  0.36876  1.0000
  O   O50       1.0  0.84631  0.66450  0.36876  1.0000
  O   O51       1.0  0.84631  0.83550  0.13124  1.0000
  O   O52       1.0  0.65369  0.16450  0.13124  1.0000
  O   O53       1.0  0.34631  0.66450  0.63124  1.0000
  O   O54       1.0  0.15369  0.33550  0.63124  1.0000
  O   O55       1.0  0.15369  0.16450  0.86876  1.0000
  O   O56       1.0  0.34631  0.83550  0.86876  1.0000
  O   O57       1.0  0.54300  0.32100  0.33093  1.0000
  O   O58       1.0  0.95700  0.67900  0.33093  1.0000
  O   O59       1.0  0.95700  0.82100  0.16907  1.0000
  O   O60       1.0  0.54300  0.17900  0.16907  1.0000
  O   O61       1.0  0.45700  0.67900  0.66907  1.0000
  O   O62       1.0  0.04300  0.32100  0.66907  1.0000
  O   O63       1.0  0.04300  0.17900  0.83093  1.0000
  O   O64       1.0  0.45700  0.82100  0.83093  1.0000
  C   C1        1.0  0.24460  0.37840  0.45509  1.0000
  C   C2        1.0  0.25540  0.62160  0.45509  1.0000
  C   C3        1.0  0.25540  0.87840  0.04491  1.0000
  C   C4        1.0  0.24460  0.12160  0.04491  1.0000
  C   C5        1.0  0.75540  0.62160  0.54491  1.0000
  C   C6        1.0  0.74460  0.37840  0.54491  1.0000
  C   C7        1.0  0.74460  0.12160  0.95509  1.0000
  C   C8        1.0  0.75540  0.87840  0.95509  1.0000
  H   H1        1.0  0.27210  0.37860  0.48400  1.0000
  H   H2        1.0  0.22790  0.62140  0.48400  1.0000
  H   H3        1.0  0.22790  0.87860  0.01600  1.0000
  H   H4        1.0  0.27210  0.12140  0.01600  1.0000
  H   H5        1.0  0.72790  0.62140  0.51600  1.0000
  H   H6        1.0  0.77210  0.37860  0.51600  1.0000
  H   H7        1.0  0.77210  0.12140  0.98400  1.0000
  H   H8        1.0  0.72790  0.87860  0.98400  1.0000
  C   C9        1.0  0.28450  0.37390  0.41288  1.0000
  C   C10       1.0  0.21550  0.62610  0.41288  1.0000
  C   C11       1.0  0.21550  0.87390  0.08712  1.0000
  C   C12       1.0  0.28450  0.12610  0.08712  1.0000
  C   C13       1.0  0.71550  0.62610  0.58712  1.0000
  C   C14       1.0  0.78450  0.37390  0.58712  1.0000
  C   C15       1.0  0.78450  0.12610  0.91288  1.0000
  C   C16       1.0  0.71550  0.87390  0.91288  1.0000
  C   C17       1.0  0.24500  0.37440  0.37031  1.0000
  C   C18       1.0  0.25500  0.62560  0.37031  1.0000
  C   C19       1.0  0.25500  0.87440  0.12969  1.0000
  C   C20       1.0  0.24500  0.12560  0.12969  1.0000
  C   C21       1.0  0.75500  0.62560  0.62969  1.0000
  C   C22       1.0  0.74500  0.37440  0.62969  1.0000
  C   C23       1.0  0.74500  0.12560  0.87031  1.0000
  C   C24       1.0  0.75500  0.87440  0.87031  1.0000
  H   H9        1.0  0.27290  0.37110  0.34170  1.0000
  H   H10       1.0  0.22710  0.62890  0.34170  1.0000
  H   H11       1.0  0.22710  0.87110  0.15830  1.0000
  H   H12       1.0  0.27290  0.12890  0.15830  1.0000
  H   H13       1.0  0.72710  0.62890  0.65830  1.0000
  H   H14       1.0  0.77290  0.37110  0.65830  1.0000
  H   H15       1.0  0.77290  0.12890  0.84170  1.0000
  H   H16       1.0  0.72710  0.87110  0.84170  1.0000
  C   C25       1.0  0.16420  0.37970  0.36987  1.0000
  C   C26       1.0  0.33580  0.62030  0.36987  1.0000
  C   C27       1.0  0.33580  0.87970  0.13013  1.0000
  C   C28       1.0  0.16420  0.12030  0.13013  1.0000
  C   C29       1.0  0.83580  0.62030  0.63013  1.0000
  C   C30       1.0  0.66420  0.37970  0.63013  1.0000
  C   C31       1.0  0.66420  0.12030  0.86987  1.0000
  C   C32       1.0  0.83580  0.87970  0.86987  1.0000
  H   H17       1.0  0.13690  0.38010  0.34100  1.0000
  H   H18       1.0  0.36310  0.61990  0.34100  1.0000
  H   H19       1.0  0.36310  0.88010  0.15900  1.0000
  H   H20       1.0  0.13690  0.11990  0.15900  1.0000
  H   H21       1.0  0.86310  0.61990  0.65900  1.0000
  H   H22       1.0  0.63690  0.38010  0.65900  1.0000
  H   H23       1.0  0.63690  0.11990  0.84100  1.0000
  H   H24       1.0  0.86310  0.88010  0.84100  1.0000
  C   C33       1.0  0.12440  0.38440  0.41176  1.0000
  C   C34       1.0  0.37560  0.61560  0.41176  1.0000
  C   C35       1.0  0.37560  0.88440  0.08824  1.0000
  C   C36       1.0  0.12440  0.11560  0.08824  1.0000
  C   C37       1.0  0.87560  0.61560  0.58824  1.0000
  C   C38       1.0  0.62440  0.38440  0.58824  1.0000
  C   C39       1.0  0.62440  0.11560  0.91176  1.0000
  C   C40       1.0  0.87560  0.88440  0.91176  1.0000
  H   H25       1.0  0.06940  0.38900  0.41140  1.0000
  H   H26       1.0  0.43060  0.61100  0.41140  1.0000
  H   H27       1.0  0.43060  0.88900  0.08860  1.0000
  H   H28       1.0  0.06940  0.11100  0.08860  1.0000
  H   H29       1.0  0.93060  0.61100  0.58860  1.0000
  H   H30       1.0  0.56940  0.38900  0.58860  1.0000
  H   H31       1.0  0.56940  0.11100  0.91140  1.0000
  H   H32       1.0  0.93060  0.88900  0.91140  1.0000
  C   C41       1.0  0.16330  0.38250  0.45476  1.0000
  C   C42       1.0  0.33670  0.61750  0.45476  1.0000
  C   C43       1.0  0.33670  0.88250  0.04524  1.0000
  C   C44       1.0  0.16330  0.11750  0.04524  1.0000
  C   C45       1.0  0.83670  0.61750  0.54524  1.0000
  C   C46       1.0  0.66330  0.38250  0.54524  1.0000
  C   C47       1.0  0.66330  0.11750  0.95476  1.0000
  C   C48       1.0  0.83670  0.88250  0.95476  1.0000
  C   C49       1.0  0.37240  0.37080  0.41355  1.0000
  C   C50       1.0  0.12760  0.62920  0.41355  1.0000
  C   C51       1.0  0.12760  0.87080  0.08645  1.0000
  C   C52       1.0  0.37240  0.12920  0.08645  1.0000
  C   C53       1.0  0.62760  0.62920  0.58645  1.0000
  C   C54       1.0  0.87240  0.37080  0.58645  1.0000
  C   C55       1.0  0.87240  0.12920  0.91355  1.0000
  C   C56       1.0  0.62760  0.87080  0.91355  1.0000
  C   C57       1.0  0.11970  0.38410  0.49982  1.0000
  C   C58       1.0  0.38030  0.61590  0.49982  1.0000
  C   C59       1.0  0.38030  0.88410  0.00018  1.0000
  C   C60       1.0  0.11970  0.11590  0.00018  1.0000
  C   C61       1.0  0.88030  0.61590  0.50018  1.0000
  C   C62       1.0  0.61970  0.38410  0.50018  1.0000
  C   C63       1.0  0.61970  0.11590  0.99982  1.0000
  C   C64       1.0  0.88030  0.88410  0.99982  1.0000
  C   C65       1.0  0.61900  0.25000  0.25000  1.0000
  C   C66       1.0  0.88100  0.75000  0.25000  1.0000
  C   C67       1.0  0.38100  0.75000  0.75000  1.0000
  C   C68       1.0  0.11900  0.25000  0.75000  1.0000
  H   H33       1.0  0.56400  0.25000  0.25000  1.0000
  H   H34       1.0  0.93600  0.75000  0.25000  1.0000
  H   H35       1.0  0.43600  0.75000  0.75000  1.0000
  H   H36       1.0  0.06400  0.25000  0.75000  1.0000
  C   C69       1.0  0.65970  0.28290  0.28934  1.0000
  C   C70       1.0  0.84030  0.71710  0.28934  1.0000
  C   C71       1.0  0.84030  0.78290  0.21066  1.0000
  C   C72       1.0  0.65970  0.21710  0.21066  1.0000
  C   C73       1.0  0.34030  0.71710  0.71066  1.0000
  C   C74       1.0  0.15970  0.28290  0.71066  1.0000
  C   C75       1.0  0.15970  0.21710  0.78934  1.0000
  C   C76       1.0  0.34030  0.78290  0.78934  1.0000
  C   C77       1.0  0.74010  0.28300  0.28902  1.0000
  C   C78       1.0  0.75990  0.71700  0.28902  1.0000
  C   C79       1.0  0.75990  0.78300  0.21098  1.0000
  C   C80       1.0  0.74010  0.21700  0.21098  1.0000
  C   C81       1.0  0.25990  0.71700  0.71098  1.0000
  C   C82       1.0  0.24010  0.28300  0.71098  1.0000
  C   C83       1.0  0.24010  0.21700  0.78902  1.0000
  C   C84       1.0  0.25990  0.78300  0.78902  1.0000
  H   H37       1.0  0.76790  0.30570  0.31570  1.0000
  H   H38       1.0  0.73210  0.69430  0.31570  1.0000
  H   H39       1.0  0.73210  0.80570  0.18430  1.0000
  H   H40       1.0  0.76790  0.19430  0.18430  1.0000
  H   H41       1.0  0.23210  0.69430  0.68430  1.0000
  H   H42       1.0  0.26790  0.30570  0.68430  1.0000
  H   H43       1.0  0.26790  0.19430  0.81570  1.0000
  H   H44       1.0  0.23210  0.80570  0.81570  1.0000
  C   C85       1.0  0.78000  0.25000  0.25000  1.0000
  C   C86       1.0  0.72000  0.75000  0.25000  1.0000
  C   C87       1.0  0.22000  0.75000  0.75000  1.0000
  C   C88       1.0  0.28000  0.25000  0.75000  1.0000
  H   H45       1.0  0.83510  0.25000  0.25000  1.0000
  H   H46       1.0  0.66490  0.75000  0.25000  1.0000
  H   H47       1.0  0.16490  0.75000  0.75000  1.0000
  H   H48       1.0  0.33510  0.25000  0.75000  1.0000
  C   C89       1.0  0.61690  0.31540  0.33139  1.0000
  C   C90       1.0  0.88310  0.68460  0.33139  1.0000
  C   C91       1.0  0.88310  0.81540  0.16861  1.0000
  C   C92       1.0  0.61690  0.18460  0.16861  1.0000
  C   C93       1.0  0.38310  0.68460  0.66861  1.0000
  C   C94       1.0  0.11690  0.31540  0.66861  1.0000
  C   C95       1.0  0.11690  0.18460  0.83139  1.0000
  C   C96       1.0  0.38310  0.81540  0.83139  1.0000
