data_image0
_chemical_formula_structural       ZnCoO12C4H2C4H2C4H2C6O2H4O2H4O2H4
_chemical_formula_sum              "Zn1 Co1 O18 C18 H18"
_cell_length_a       7.189
_cell_length_b       10.588
_cell_length_c       10.593
_cell_angle_alpha    110.675
_cell_angle_beta     91.429
_cell_angle_gamma    102.538

_space_group_name_H-M_alt    "P 1"
_space_group_IT_number       1

loop_
  _space_group_symop_operation_xyz
  'x, y, z'

loop_
  _atom_site_type_symbol
  _atom_site_label
  _atom_site_symmetry_multiplicity
  _atom_site_fract_x
  _atom_site_fract_y
  _atom_site_fract_z
  _atom_site_occupancy
  Zn  Zn1       1.0  0.00000  0.00000  0.50000  1.0000
  Co  Co1       1.0  0.00000  0.50000  0.00000  1.0000
  O   O1        1.0  0.10550  0.18750  0.47420  1.0000
  O   O2        1.0  0.89450  0.81250  0.52580  1.0000
  O   O3        1.0  0.27160  0.30800  0.67910  1.0000
  O   O4        1.0  0.72840  0.69200  0.32090  1.0000
  O   O5        1.0  0.02740  0.41390  0.15030  1.0000
  O   O6        1.0  0.97260  0.58610  0.84970  1.0000
  O   O7        1.0  0.15260  0.63650  0.20030  1.0000
  O   O8        1.0  0.84740  0.36350  0.79970  1.0000
  O   O9        1.0  0.50630  0.92180  0.66670  1.0000
  O   O10       1.0  0.49370  0.07820  0.33330  1.0000
  O   O11       1.0  0.60710  0.81010  0.78840  1.0000
  O   O12       1.0  0.39290  0.18990  0.21160  1.0000
  C   C1        1.0  0.23720  0.43020  0.53190  1.0000
  C   C2        1.0  0.76280  0.56980  0.46810  1.0000
  C   C3        1.0  0.16450  0.42340  0.40560  1.0000
  C   C4        1.0  0.83550  0.57660  0.59440  1.0000
  H   H1        1.0  0.09290  0.33920  0.34320  1.0000
  H   H2        1.0  0.90710  0.66080  0.65680  1.0000
  C   C5        1.0  0.19850  0.54240  0.37220  1.0000
  C   C6        1.0  0.80150  0.45760  0.62780  1.0000
  C   C7        1.0  0.30500  0.66890  0.46750  1.0000
  C   C8        1.0  0.69500  0.33110  0.53250  1.0000
  H   H3        1.0  0.32670  0.74850  0.44620  1.0000
  H   H4        1.0  0.67330  0.25150  0.55380  1.0000
  C   C9        1.0  0.37890  0.67710  0.59390  1.0000
  C   C10       1.0  0.62110  0.32290  0.40610  1.0000
  C   C11       1.0  0.34560  0.55630  0.62510  1.0000
  C   C12       1.0  0.65440  0.44370  0.37490  1.0000
  H   H5        1.0  0.39620  0.56040  0.70850  1.0000
  H   H6        1.0  0.60380  0.43960  0.29150  1.0000
  C   C13       1.0  0.20200  0.29910  0.56440  1.0000
  C   C14       1.0  0.79800  0.70090  0.43560  1.0000
  C   C15       1.0  0.12190  0.53040  0.23400  1.0000
  C   C16       1.0  0.87810  0.46960  0.76600  1.0000
  C   C17       1.0  0.50510  0.81330  0.69100  1.0000
  C   C18       1.0  0.49490  0.18670  0.30900  1.0000
  O   O13       1.0  0.21380  0.04660  0.66360  1.0000
  O   O14       1.0  0.78620  0.95340  0.33640  1.0000
  H   H7        1.0  0.25450  0.13330  0.68490  1.0000
  H   H8        1.0  0.74550  0.86670  0.31510  1.0000
  H   H9        1.0  0.31120  0.01260  0.65570  1.0000
  H   H10       1.0  0.68880  0.98740  0.34430  1.0000
  O   O15       1.0  0.16340  0.91150  0.34620  1.0000
  O   O16       1.0  0.83660  0.08850  0.65380  1.0000
  H   H11       1.0  0.27400  0.95800  0.34520  1.0000
  H   H12       1.0  0.72600  0.04200  0.65480  1.0000
  H   H13       1.0  0.16470  0.82650  0.31340  1.0000
  H   H14       1.0  0.83530  0.17350  0.68660  1.0000
  O   O17       1.0  0.25480  0.45710  0.93590  1.0000
  O   O18       1.0  0.74520  0.54290  0.06410  1.0000
  H   H15       1.0  0.29930  0.41370  0.97780  1.0000
  H   H16       1.0  0.70070  0.58630  0.02220  1.0000
  H   H17       1.0  0.24330  0.40670  0.85230  1.0000
  H   H18       1.0  0.75670  0.59330  0.14770  1.0000
