data_image0
_chemical_formula_structural       N4Co4C32H4C12H4C8H4C4H4C8H4C4H4C8H4C4H4C4H4C4H4C8H4C4H4C4H4C4H4C8H4C4H4C4H4C4H4C4H4C8H4C4H4C4H4C4H4C4H4O24K2
_chemical_formula_sum              "N4 Co4 C156 H96 O24 K2"
_cell_length_a       7.6449
_cell_length_b       27.8028
_cell_length_c       21.4651
_cell_angle_alpha    90
_cell_angle_beta     97.717
_cell_angle_gamma    90

_space_group_name_H-M_alt    "P 1"
_space_group_IT_number       1

loop_
  _space_group_symop_operation_xyz
  'x, y, z'

loop_
  _atom_site_type_symbol
  _atom_site_label
  _atom_site_symmetry_multiplicity
  _atom_site_fract_x
  _atom_site_fract_y
  _atom_site_fract_z
  _atom_site_occupancy
  N   N1        1.0  0.24960  0.36913  0.49013  1.0000
  N   N2        1.0  0.75040  0.86913  0.00987  1.0000
  N   N3        1.0  0.75040  0.63087  0.50987  1.0000
  N   N4        1.0  0.24960  0.13087  0.99013  1.0000
  Co  Co1       1.0  0.08251  0.43684  0.03474  1.0000
  Co  Co2       1.0  0.91749  0.93684  0.46526  1.0000
  Co  Co3       1.0  0.91749  0.56316  0.96526  1.0000
  Co  Co4       1.0  0.08251  0.06316  0.53474  1.0000
  C   C1        1.0  0.83720  0.26831  0.48769  1.0000
  C   C2        1.0  0.16280  0.76831  0.01231  1.0000
  C   C3        1.0  0.16280  0.73169  0.51231  1.0000
  C   C4        1.0  0.83720  0.23169  0.98769  1.0000
  C   C5        1.0  0.85550  0.45901  0.91936  1.0000
  C   C6        1.0  0.14450  0.95901  0.58064  1.0000
  C   C7        1.0  0.14450  0.54099  0.08064  1.0000
  C   C8        1.0  0.85550  0.04099  0.41936  1.0000
  C   C9        1.0  0.76150  0.44433  0.85564  1.0000
  C   C10       1.0  0.23850  0.94433  0.64436  1.0000
  C   C11       1.0  0.23850  0.55567  0.14436  1.0000
  C   C12       1.0  0.76150  0.05567  0.35564  1.0000
  C   C13       1.0  0.69870  0.23151  0.49102  1.0000
  C   C14       1.0  0.30130  0.73151  0.00898  1.0000
  C   C15       1.0  0.30130  0.76849  0.50898  1.0000
  C   C16       1.0  0.69870  0.26849  0.99102  1.0000
  C   C17       1.0  0.33510  0.37924  0.43657  1.0000
  C   C18       1.0  0.66490  0.87924  0.06343  1.0000
  C   C19       1.0  0.66490  0.62076  0.56343  1.0000
  C   C20       1.0  0.33510  0.12076  0.93657  1.0000
  C   C21       1.0  0.59940  0.40963  0.27659  1.0000
  C   C22       1.0  0.40060  0.90963  0.22341  1.0000
  C   C23       1.0  0.40060  0.59037  0.72341  1.0000
  C   C24       1.0  0.59940  0.09037  0.77659  1.0000
  C   C25       1.0  0.59680  0.41921  0.73519  1.0000
  C   C26       1.0  0.40320  0.91921  0.76481  1.0000
  C   C27       1.0  0.40320  0.58079  0.26481  1.0000
  C   C28       1.0  0.59680  0.08079  0.23519  1.0000
  C   C29       1.0  0.85000  0.30795  0.52659  1.0000
  C   C30       1.0  0.15000  0.80795  0.97341  1.0000
  C   C31       1.0  0.15000  0.69205  0.47341  1.0000
  C   C32       1.0  0.85000  0.19205  0.02659  1.0000
  H   H1        1.0  0.76730  0.31210  0.55420  1.0000
  H   H2        1.0  0.23270  0.81210  0.94580  1.0000
  H   H3        1.0  0.23270  0.68790  0.44580  1.0000
  H   H4        1.0  0.76730  0.18790  0.05420  1.0000
  C   C33       1.0  0.50860  0.40627  0.67085  1.0000
  C   C34       1.0  0.49140  0.90627  0.82915  1.0000
  C   C35       1.0  0.49140  0.59373  0.32915  1.0000
  C   C36       1.0  0.50860  0.09373  0.17085  1.0000
  C   C37       1.0  0.33850  0.38104  0.55068  1.0000
  C   C38       1.0  0.66150  0.88104  0.94932  1.0000
  C   C39       1.0  0.66150  0.61896  0.44932  1.0000
  C   C40       1.0  0.33850  0.11896  0.05068  1.0000
  C   C41       1.0  0.67140  0.38541  0.77718  1.0000
  C   C42       1.0  0.32860  0.88541  0.72282  1.0000
  C   C43       1.0  0.32860  0.61459  0.22282  1.0000
  C   C44       1.0  0.67140  0.11459  0.27718  1.0000
  H   H5        1.0  0.66490  0.35320  0.76550  1.0000
  H   H6        1.0  0.33510  0.85320  0.73450  1.0000
  H   H7        1.0  0.33510  0.64680  0.23450  1.0000
  H   H8        1.0  0.66490  0.14680  0.26550  1.0000
  C   C45       1.0  0.10770  0.33636  0.48594  1.0000
  C   C46       1.0  0.89230  0.83636  0.01406  1.0000
  C   C47       1.0  0.89230  0.66364  0.51406  1.0000
  C   C48       1.0  0.10770  0.16364  0.98594  1.0000
  C   C49       1.0  0.40330  0.21054  0.50769  1.0000
  C   C50       1.0  0.59670  0.71054  0.99231  1.0000
  C   C51       1.0  0.59670  0.78946  0.49231  1.0000
  C   C52       1.0  0.40330  0.28946  0.00769  1.0000
  H   H9        1.0  0.29110  0.22030  0.51450  1.0000
  H   H10       1.0  0.70890  0.72030  0.98550  1.0000
  H   H11       1.0  0.70890  0.77970  0.48550  1.0000
  H   H12       1.0  0.29110  0.27970  0.01450  1.0000
  C   C53       1.0  0.09370  0.29792  0.44541  1.0000
  C   C54       1.0  0.90630  0.79792  0.05459  1.0000
  C   C55       1.0  0.90630  0.70208  0.55459  1.0000
  C   C56       1.0  0.09370  0.20208  0.94541  1.0000
  H   H13       1.0  0.17440  0.29440  0.41690  1.0000
  H   H14       1.0  0.82560  0.79440  0.08310  1.0000
  H   H15       1.0  0.82560  0.70560  0.58310  1.0000
  H   H16       1.0  0.17440  0.20560  0.91690  1.0000
  C   C57       1.0  0.44060  0.16233  0.50630  1.0000
  C   C58       1.0  0.55940  0.66233  0.99370  1.0000
  C   C59       1.0  0.55940  0.83767  0.49370  1.0000
  C   C60       1.0  0.44060  0.33767  0.00630  1.0000
  C   C61       1.0  0.68450  0.47860  0.81464  1.0000
  C   C62       1.0  0.31550  0.97860  0.68536  1.0000
  C   C63       1.0  0.31550  0.52140  0.18536  1.0000
  C   C64       1.0  0.68450  0.02140  0.31464  1.0000
  H   H17       1.0  0.68820  0.51060  0.82720  1.0000
  H   H18       1.0  0.31180  0.01060  0.67280  1.0000
  H   H19       1.0  0.31180  0.48940  0.17280  1.0000
  H   H20       1.0  0.68820  0.98940  0.32720  1.0000
  C   C65       1.0  0.52110  0.40537  0.21556  1.0000
  C   C66       1.0  0.47890  0.90537  0.28444  1.0000
  C   C67       1.0  0.47890  0.59463  0.78444  1.0000
  C   C68       1.0  0.52110  0.09463  0.71556  1.0000
  H   H21       1.0  0.40300  0.39630  0.20750  1.0000
  H   H22       1.0  0.59700  0.89630  0.29250  1.0000
  H   H23       1.0  0.59700  0.60370  0.79250  1.0000
  H   H24       1.0  0.40300  0.10370  0.70750  1.0000
  C   C69       1.0  0.50590  0.39924  0.33128  1.0000
  C   C70       1.0  0.49410  0.89924  0.16872  1.0000
  C   C71       1.0  0.49410  0.60076  0.66872  1.0000
  C   C72       1.0  0.50590  0.10076  0.83128  1.0000
  C   C73       1.0  0.73790  0.18286  0.48941  1.0000
  C   C74       1.0  0.26210  0.68286  0.01059  1.0000
  C   C75       1.0  0.26210  0.81714  0.51059  1.0000
  C   C76       1.0  0.73790  0.31714  0.98941  1.0000
  H   H25       1.0  0.85060  0.17300  0.48330  1.0000
  H   H26       1.0  0.14940  0.67300  0.01670  1.0000
  H   H27       1.0  0.14940  0.82700  0.51670  1.0000
  H   H28       1.0  0.85060  0.32700  0.98330  1.0000
  C   C77       1.0  0.51560  0.37691  0.44033  1.0000
  C   C78       1.0  0.48440  0.87691  0.05967  1.0000
  C   C79       1.0  0.48440  0.62309  0.55967  1.0000
  C   C80       1.0  0.51560  0.12309  0.94033  1.0000
  H   H29       1.0  0.58260  0.36860  0.47820  1.0000
  H   H30       1.0  0.41740  0.86860  0.02180  1.0000
  H   H31       1.0  0.41740  0.63140  0.52180  1.0000
  H   H32       1.0  0.58260  0.13140  0.97820  1.0000
  C   C81       1.0  0.44810  0.35970  0.65720  1.0000
  C   C82       1.0  0.55190  0.85970  0.84280  1.0000
  C   C83       1.0  0.55190  0.64030  0.34280  1.0000
  C   C84       1.0  0.44810  0.14030  0.15720  1.0000
  H   H33       1.0  0.46400  0.33620  0.68830  1.0000
  H   H34       1.0  0.53600  0.83620  0.81170  1.0000
  H   H35       1.0  0.53600  0.66380  0.31170  1.0000
  H   H36       1.0  0.46400  0.16380  0.18830  1.0000
  C   C85       1.0  0.96020  0.26421  0.44652  1.0000
  C   C86       1.0  0.03980  0.76421  0.05348  1.0000
  C   C87       1.0  0.03980  0.73579  0.55348  1.0000
  C   C88       1.0  0.96020  0.23579  0.94652  1.0000
  H   H37       1.0  0.95360  0.23830  0.41890  1.0000
  H   H38       1.0  0.04640  0.73830  0.08110  1.0000
  H   H39       1.0  0.04640  0.76170  0.58110  1.0000
  H   H40       1.0  0.95360  0.26170  0.91890  1.0000
  C   C89       1.0  0.79000  0.42689  0.17577  1.0000
  C   C90       1.0  0.21000  0.92689  0.32423  1.0000
  C   C91       1.0  0.21000  0.57311  0.82423  1.0000
  C   C92       1.0  0.79000  0.07311  0.67577  1.0000
  C   C93       1.0  0.60960  0.14865  0.49694  1.0000
  C   C94       1.0  0.39040  0.64865  0.00306  1.0000
  C   C95       1.0  0.39040  0.85135  0.50306  1.0000
  C   C96       1.0  0.60960  0.35135  0.99694  1.0000
  H   H41       1.0  0.63750  0.11610  0.49570  1.0000
  H   H42       1.0  0.36250  0.61610  0.00430  1.0000
  H   H43       1.0  0.36250  0.88390  0.50430  1.0000
  H   H44       1.0  0.63750  0.38390  0.99570  1.0000
  C   C97       1.0  0.60230  0.46701  0.75574  1.0000
  C   C98       1.0  0.39770  0.96701  0.74426  1.0000
  C   C99       1.0  0.39770  0.53299  0.24426  1.0000
  C   C100      1.0  0.60230  0.03299  0.25574  1.0000
  H   H45       1.0  0.55000  0.49100  0.72940  1.0000
  H   H46       1.0  0.45000  0.99100  0.77060  1.0000
  H   H47       1.0  0.45000  0.50900  0.27060  1.0000
  H   H48       1.0  0.55000  0.00900  0.22940  1.0000
  C   C101      1.0  0.98160  0.34153  0.52574  1.0000
  C   C102      1.0  0.01840  0.84153  0.97426  1.0000
  C   C103      1.0  0.01840  0.65847  0.47426  1.0000
  C   C104      1.0  0.98160  0.15847  0.02574  1.0000
  H   H49       1.0  0.98560  0.36800  0.55230  1.0000
  H   H50       1.0  0.01440  0.86800  0.94770  1.0000
  H   H51       1.0  0.01440  0.63200  0.44770  1.0000
  H   H52       1.0  0.98560  0.13200  0.05230  1.0000
  C   C105      1.0  0.36450  0.34789  0.59787  1.0000
  C   C106      1.0  0.63550  0.84789  0.90213  1.0000
  C   C107      1.0  0.63550  0.65211  0.40213  1.0000
  C   C108      1.0  0.36450  0.15211  0.09787  1.0000
  H   H53       1.0  0.32520  0.31650  0.59000  1.0000
  H   H54       1.0  0.67480  0.81650  0.91000  1.0000
  H   H55       1.0  0.67480  0.68350  0.41000  1.0000
  H   H56       1.0  0.32520  0.18350  0.09000  1.0000
  C   C109      1.0  0.30510  0.12609  0.51651  1.0000
  C   C110      1.0  0.69490  0.62609  0.98349  1.0000
  C   C111      1.0  0.69490  0.87391  0.48349  1.0000
  C   C112      1.0  0.30510  0.37391  0.01651  1.0000
  C   C113      1.0  0.77160  0.42650  0.28605  1.0000
  C   C114      1.0  0.22840  0.92650  0.21395  1.0000
  C   C115      1.0  0.22840  0.57350  0.71395  1.0000
  C   C116      1.0  0.77160  0.07350  0.78605  1.0000
  H   H57       1.0  0.82480  0.43310  0.32670  1.0000
  H   H58       1.0  0.17520  0.93310  0.17330  1.0000
  H   H59       1.0  0.17520  0.56690  0.67330  1.0000
  H   H60       1.0  0.82480  0.06690  0.82670  1.0000
  C   C117      1.0  0.59700  0.38659  0.38949  1.0000
  C   C118      1.0  0.40300  0.88659  0.11051  1.0000
  C   C119      1.0  0.40300  0.61341  0.61051  1.0000
  C   C120      1.0  0.59700  0.11341  0.88949  1.0000
  H   H61       1.0  0.71940  0.38470  0.39370  1.0000
  H   H62       1.0  0.28060  0.88470  0.10630  1.0000
  H   H63       1.0  0.28060  0.61530  0.60630  1.0000
  H   H64       1.0  0.71940  0.11530  0.89370  1.0000
  C   C121      1.0  0.75490  0.39719  0.83558  1.0000
  C   C122      1.0  0.24510  0.89719  0.66442  1.0000
  C   C123      1.0  0.24510  0.60281  0.16442  1.0000
  C   C124      1.0  0.75490  0.10281  0.33558  1.0000
  H   H65       1.0  0.80760  0.37320  0.86190  1.0000
  H   H66       1.0  0.19240  0.87320  0.63810  1.0000
  H   H67       1.0  0.19240  0.62680  0.13810  1.0000
  H   H68       1.0  0.80760  0.12680  0.36190  1.0000
  C   C125      1.0  0.32520  0.40095  0.32826  1.0000
  C   C126      1.0  0.67480  0.90095  0.17174  1.0000
  C   C127      1.0  0.67480  0.59905  0.67174  1.0000
  C   C128      1.0  0.32520  0.09905  0.82826  1.0000
  H   H69       1.0  0.25790  0.40910  0.29040  1.0000
  H   H70       1.0  0.74210  0.90910  0.20960  1.0000
  H   H71       1.0  0.74210  0.59090  0.70960  1.0000
  H   H72       1.0  0.25790  0.09090  0.79040  1.0000
  C   C129      1.0  0.24120  0.39106  0.37924  1.0000
  C   C130      1.0  0.75880  0.89106  0.12076  1.0000
  C   C131      1.0  0.75880  0.60894  0.62076  1.0000
  C   C132      1.0  0.24120  0.10894  0.87924  1.0000
  H   H73       1.0  0.11860  0.39230  0.37510  1.0000
  H   H74       1.0  0.88140  0.89230  0.12490  1.0000
  H   H75       1.0  0.88140  0.60770  0.62490  1.0000
  H   H76       1.0  0.11860  0.10770  0.87510  1.0000
  C   C133      1.0  0.89780  0.43278  0.12213  1.0000
  C   C134      1.0  0.10220  0.93278  0.37787  1.0000
  C   C135      1.0  0.10220  0.56722  0.87787  1.0000
  C   C136      1.0  0.89780  0.06722  0.62213  1.0000
  C   C137      1.0  0.61330  0.41414  0.16578  1.0000
  C   C138      1.0  0.38670  0.91414  0.33422  1.0000
  C   C139      1.0  0.38670  0.58586  0.83422  1.0000
  C   C140      1.0  0.61330  0.08586  0.66578  1.0000
  H   H77       1.0  0.55600  0.41150  0.12490  1.0000
  H   H78       1.0  0.44400  0.91150  0.37510  1.0000
  H   H79       1.0  0.44400  0.58850  0.87510  1.0000
  H   H80       1.0  0.55600  0.08850  0.62490  1.0000
  C   C141      1.0  0.86660  0.43367  0.23583  1.0000
  C   C142      1.0  0.13340  0.93367  0.26417  1.0000
  C   C143      1.0  0.13340  0.56633  0.76417  1.0000
  C   C144      1.0  0.86660  0.06633  0.73583  1.0000
  H   H81       1.0  0.98400  0.44330  0.24360  1.0000
  H   H82       1.0  0.01600  0.94330  0.25640  1.0000
  H   H83       1.0  0.01600  0.55670  0.75640  1.0000
  H   H84       1.0  0.98400  0.05670  0.74360  1.0000
  C   C145      1.0  0.52830  0.24480  0.49929  1.0000
  C   C146      1.0  0.47170  0.74480  0.00071  1.0000
  C   C147      1.0  0.47170  0.75520  0.50071  1.0000
  C   C148      1.0  0.52830  0.25520  0.99929  1.0000
  H   H85       1.0  0.49810  0.27720  0.49920  1.0000
  H   H86       1.0  0.50190  0.77720  0.00080  1.0000
  H   H87       1.0  0.50190  0.72280  0.50080  1.0000
  H   H88       1.0  0.49810  0.22280  0.99920  1.0000
  C   C149      1.0  0.48100  0.43911  0.62287  1.0000
  C   C150      1.0  0.51900  0.93911  0.87713  1.0000
  C   C151      1.0  0.51900  0.56089  0.37713  1.0000
  C   C152      1.0  0.48100  0.06089  0.12287  1.0000
  H   H89       1.0  0.51870  0.47070  0.63010  1.0000
  H   H90       1.0  0.48130  0.97070  0.86990  1.0000
  H   H91       1.0  0.48130  0.52930  0.36990  1.0000
  H   H92       1.0  0.51870  0.02930  0.13010  1.0000
  C   C153      1.0  0.39830  0.42632  0.56383  1.0000
  C   C154      1.0  0.60170  0.92632  0.93617  1.0000
  C   C155      1.0  0.60170  0.57368  0.43617  1.0000
  C   C156      1.0  0.39830  0.07368  0.06383  1.0000
  H   H93       1.0  0.38320  0.44950  0.53230  1.0000
  H   H94       1.0  0.61680  0.94950  0.96770  1.0000
  H   H95       1.0  0.61680  0.55050  0.46770  1.0000
  H   H96       1.0  0.38320  0.05050  0.03230  1.0000
  O   O1        1.0  0.82700  0.44563  0.07081  1.0000
  O   O2        1.0  0.17300  0.94563  0.42919  1.0000
  O   O3        1.0  0.17300  0.55437  0.92919  1.0000
  O   O4        1.0  0.82700  0.05437  0.57081  1.0000
  O   O5        1.0  0.05890  0.42388  0.13286  1.0000
  O   O6        1.0  0.94110  0.92388  0.36714  1.0000
  O   O7        1.0  0.94110  0.57612  0.86714  1.0000
  O   O8        1.0  0.05890  0.07612  0.63286  1.0000
  O   O9        1.0  0.33770  0.08235  0.51253  1.0000
  O   O10       1.0  0.66230  0.58235  0.98747  1.0000
  O   O11       1.0  0.66230  0.91765  0.48747  1.0000
  O   O12       1.0  0.33770  0.41765  0.01253  1.0000
  O   O13       1.0  0.15800  0.13936  0.52930  1.0000
  O   O14       1.0  0.84200  0.63936  0.97070  1.0000
  O   O15       1.0  0.84200  0.86064  0.47070  1.0000
  O   O16       1.0  0.15800  0.36064  0.02930  1.0000
  O   O17       1.0  0.81250  0.49766  0.94145  1.0000
  O   O18       1.0  0.18750  0.99766  0.55855  1.0000
  O   O19       1.0  0.18750  0.50234  0.05855  1.0000
  O   O20       1.0  0.81250  0.00234  0.44145  1.0000
  O   O21       1.0  0.96750  0.43065  0.94530  1.0000
  O   O22       1.0  0.03250  0.93065  0.55470  1.0000
  O   O23       1.0  0.03250  0.56935  0.05470  1.0000
  O   O24       1.0  0.96750  0.06935  0.44530  1.0000
  K   K1        1.0  0.50000  0.50000  0.00000  1.0000
  K   K2        1.0  0.50000  0.00000  0.50000  1.0000
