data_image0
_chemical_formula_structural       Zn10O40N8C4O4C24H4C4H4C24H4C4H4O4C12H4C8H4C4H4C8H4C4H4C4H4C4H4C8H4C4H4C4H4C4H4C4H4C4H4C4H4C4H4C4H4C4H4C4H4C4H4C4H4C8O4N4C4H4C4H12C4H12
_chemical_formula_sum              "Zn10 O52 N12 C180 H124"
_cell_length_a       14.6611
_cell_length_b       23.3118
_cell_length_c       15.7765
_cell_angle_alpha    90
_cell_angle_beta     107.491
_cell_angle_gamma    90

_space_group_name_H-M_alt    "P 1"
_space_group_IT_number       1

loop_
  _space_group_symop_operation_xyz
  'x, y, z'

loop_
  _atom_site_type_symbol
  _atom_site_label
  _atom_site_symmetry_multiplicity
  _atom_site_fract_x
  _atom_site_fract_y
  _atom_site_fract_z
  _atom_site_occupancy
  Zn  Zn1       1.0  0.26552  0.06124  0.41279  1.0000
  Zn  Zn2       1.0  0.73448  0.56124  0.08721  1.0000
  Zn  Zn3       1.0  0.73448  0.93876  0.58721  1.0000
  Zn  Zn4       1.0  0.26552  0.43876  0.91279  1.0000
  Zn  Zn5       1.0  0.75617  0.69905  0.19985  1.0000
  Zn  Zn6       1.0  0.24383  0.19905  0.30015  1.0000
  Zn  Zn7       1.0  0.24383  0.30095  0.80015  1.0000
  Zn  Zn8       1.0  0.75617  0.80095  0.69985  1.0000
  Zn  Zn9       1.0  0.50000  0.50000  0.00000  1.0000
  Zn  Zn10      1.0  0.50000  0.00000  0.50000  1.0000
  O   O1        1.0  0.64720  0.62420  0.13780  1.0000
  O   O2        1.0  0.35280  0.12420  0.36220  1.0000
  O   O3        1.0  0.35280  0.37580  0.86220  1.0000
  O   O4        1.0  0.64720  0.87580  0.63780  1.0000
  O   O5        1.0  0.54100  0.59490  0.01430  1.0000
  O   O6        1.0  0.45900  0.09490  0.48570  1.0000
  O   O7        1.0  0.45900  0.40510  0.98570  1.0000
  O   O8        1.0  0.54100  0.90510  0.51430  1.0000
  O   O9        1.0  0.82790  0.65900  0.10090  1.0000
  O   O10       1.0  0.17210  0.15900  0.39910  1.0000
  O   O11       1.0  0.17210  0.34100  0.89910  1.0000
  O   O12       1.0  0.82790  0.84100  0.60090  1.0000
  O   O13       1.0  0.38460  0.51080  0.06250  1.0000
  O   O14       1.0  0.61540  0.01080  0.43750  1.0000
  O   O15       1.0  0.61540  0.48920  0.93750  1.0000
  O   O16       1.0  0.38460  0.98920  0.56250  1.0000
  O   O17       1.0  0.38710  0.98410  0.36310  1.0000
  O   O18       1.0  0.61290  0.48410  0.13690  1.0000
  O   O19       1.0  0.61290  0.01590  0.63690  1.0000
  O   O20       1.0  0.38710  0.51590  0.86310  1.0000
  O   O21       1.0  0.26890  0.44780  0.05660  1.0000
  O   O22       1.0  0.73110  0.94780  0.44340  1.0000
  O   O23       1.0  0.73110  0.55220  0.94340  1.0000
  O   O24       1.0  0.26890  0.05220  0.55660  1.0000
  O   O25       1.0  0.66090  0.72250  0.69890  1.0000
  O   O26       1.0  0.33910  0.22250  0.80110  1.0000
  O   O27       1.0  0.33910  0.27750  0.30110  1.0000
  O   O28       1.0  0.66090  0.77750  0.19890  1.0000
  O   O29       1.0  0.23570  0.97430  0.36080  1.0000
  O   O30       1.0  0.76430  0.47430  0.13920  1.0000
  O   O31       1.0  0.76430  0.02570  0.63920  1.0000
  O   O32       1.0  0.23570  0.52570  0.86080  1.0000
  O   O33       1.0  0.64570  0.75500  0.56580  1.0000
  O   O34       1.0  0.35430  0.25500  0.93420  1.0000
  O   O35       1.0  0.35430  0.24500  0.43420  1.0000
  O   O36       1.0  0.64570  0.74500  0.06580  1.0000
  O   O37       1.0  0.89810  0.57410  0.12230  1.0000
  O   O38       1.0  0.10190  0.07410  0.37770  1.0000
  O   O39       1.0  0.10190  0.42590  0.87770  1.0000
  O   O40       1.0  0.89810  0.92590  0.62230  1.0000
  N   N1        1.0  0.26660  0.73320  0.18880  1.0000
  N   N2        1.0  0.73340  0.23320  0.31120  1.0000
  N   N3        1.0  0.73340  0.26680  0.81120  1.0000
  N   N4        1.0  0.26660  0.76680  0.68880  1.0000
  N   N5        1.0  0.34710  0.54860  0.45260  1.0000
  N   N6        1.0  0.65290  0.04860  0.04740  1.0000
  N   N7        1.0  0.65290  0.45140  0.54740  1.0000
  N   N8        1.0  0.34710  0.95140  0.95260  1.0000
  C   C1        1.0  0.33190  0.50170  0.18900  1.0000
  C   C2        1.0  0.66810  0.00170  0.31100  1.0000
  C   C3        1.0  0.66810  0.49830  0.81100  1.0000
  C   C4        1.0  0.33190  0.99830  0.68900  1.0000
  O   O41       1.0  0.26700  0.33170  0.67000  1.0000
  O   O42       1.0  0.73300  0.83170  0.83000  1.0000
  O   O43       1.0  0.73300  0.66830  0.33000  1.0000
  O   O44       1.0  0.26700  0.16830  0.17000  1.0000
  C   C5        1.0  0.56220  0.62240  0.08590  1.0000
  C   C6        1.0  0.43780  0.12240  0.41410  1.0000
  C   C7        1.0  0.43780  0.37760  0.91410  1.0000
  C   C8        1.0  0.56220  0.87760  0.58590  1.0000
  C   C9        1.0  0.48850  0.65120  0.11470  1.0000
  C   C10       1.0  0.51150  0.15120  0.38530  1.0000
  C   C11       1.0  0.51150  0.34880  0.88530  1.0000
  C   C12       1.0  0.48850  0.84880  0.61470  1.0000
  C   C13       1.0  0.32760  0.48560  0.09660  1.0000
  C   C14       1.0  0.67240  0.98560  0.40340  1.0000
  C   C15       1.0  0.67240  0.51440  0.90340  1.0000
  C   C16       1.0  0.32760  0.01440  0.59660  1.0000
  C   C17       1.0  0.31130  0.95610  0.34580  1.0000
  C   C18       1.0  0.68870  0.45610  0.15420  1.0000
  C   C19       1.0  0.68870  0.04390  0.65420  1.0000
  C   C20       1.0  0.31130  0.54390  0.84580  1.0000
  C   C21       1.0  0.62190  0.72160  0.61400  1.0000
  C   C22       1.0  0.37810  0.22160  0.88600  1.0000
  C   C23       1.0  0.37810  0.27840  0.38600  1.0000
  C   C24       1.0  0.62190  0.77840  0.11400  1.0000
  C   C25       1.0  0.50350  0.67320  0.20070  1.0000
  C   C26       1.0  0.49650  0.17320  0.29930  1.0000
  C   C27       1.0  0.49650  0.32680  0.79930  1.0000
  C   C28       1.0  0.50350  0.82680  0.70070  1.0000
  H   H1        1.0  0.56333  0.66926  0.24252  1.0000
  H   H2        1.0  0.43667  0.16926  0.25748  1.0000
  H   H3        1.0  0.43667  0.33074  0.75748  1.0000
  H   H4        1.0  0.56333  0.83074  0.74252  1.0000
  C   C29       1.0  0.41110  0.53010  0.24190  1.0000
  C   C30       1.0  0.58890  0.03010  0.25810  1.0000
  C   C31       1.0  0.58890  0.46990  0.75810  1.0000
  C   C32       1.0  0.41110  0.96990  0.74190  1.0000
  H   H5        1.0  0.46208  0.53813  0.22024  1.0000
  H   H6        1.0  0.53792  0.03813  0.27976  1.0000
  H   H7        1.0  0.53792  0.46187  0.77976  1.0000
  H   H8        1.0  0.46208  0.96187  0.72024  1.0000
  C   C33       1.0  0.90190  0.62910  0.11810  1.0000
  C   C34       1.0  0.09810  0.12910  0.38190  1.0000
  C   C35       1.0  0.09810  0.37090  0.88190  1.0000
  C   C36       1.0  0.90190  0.87090  0.61810  1.0000
  C   C37       1.0  0.99740  0.65540  0.13660  1.0000
  C   C38       1.0  0.00260  0.15540  0.36340  1.0000
  C   C39       1.0  0.00260  0.34460  0.86340  1.0000
  C   C40       1.0  0.99740  0.84460  0.63660  1.0000
  C   C41       1.0  0.34070  0.70600  0.16260  1.0000
  C   C42       1.0  0.65930  0.20600  0.33740  1.0000
  C   C43       1.0  0.65930  0.29400  0.83740  1.0000
  C   C44       1.0  0.34070  0.79400  0.66260  1.0000
  C   C45       1.0  0.34190  0.53500  0.36370  1.0000
  C   C46       1.0  0.65810  0.03500  0.13630  1.0000
  C   C47       1.0  0.65810  0.46500  0.63630  1.0000
  C   C48       1.0  0.34190  0.96500  0.86370  1.0000
  C   C49       1.0  0.28240  0.78700  0.23080  1.0000
  C   C50       1.0  0.71760  0.28700  0.26920  1.0000
  C   C51       1.0  0.71760  0.21300  0.76920  1.0000
  C   C52       1.0  0.28240  0.71300  0.73080  1.0000
  C   C53       1.0  0.39500  0.65710  0.05540  1.0000
  C   C54       1.0  0.60500  0.15710  0.44460  1.0000
  C   C55       1.0  0.60500  0.34290  0.94460  1.0000
  C   C56       1.0  0.39500  0.84290  0.55540  1.0000
  H   H9        1.0  0.38159  0.64308  0.99780  1.0000
  H   H10       1.0  0.61841  0.14308  0.50220  1.0000
  H   H11       1.0  0.61841  0.35692  0.00220  1.0000
  H   H12       1.0  0.38159  0.85692  0.49780  1.0000
  C   C57       1.0  0.41520  0.54690  0.32870  1.0000
  C   C58       1.0  0.58480  0.04690  0.17130  1.0000
  C   C59       1.0  0.58480  0.45310  0.67130  1.0000
  C   C60       1.0  0.41520  0.95310  0.82870  1.0000
  H   H13       1.0  0.46868  0.56656  0.36323  1.0000
  H   H14       1.0  0.53132  0.06656  0.13677  1.0000
  H   H15       1.0  0.53132  0.43344  0.63677  1.0000
  H   H16       1.0  0.46868  0.93344  0.86323  1.0000
  O   O45       1.0  0.18690  0.39850  0.72000  1.0000
  O   O46       1.0  0.81310  0.89850  0.78000  1.0000
  O   O47       1.0  0.81310  0.60150  0.28000  1.0000
  O   O48       1.0  0.18690  0.10150  0.22000  1.0000
  C   C61       1.0  0.31510  0.50860  0.50520  1.0000
  C   C62       1.0  0.68490  0.00860  0.99480  1.0000
  C   C63       1.0  0.68490  0.49140  0.49480  1.0000
  C   C64       1.0  0.31510  0.99140  0.00520  1.0000
  C   C65       1.0  0.30460  0.89560  0.30920  1.0000
  C   C66       1.0  0.69540  0.39560  0.19080  1.0000
  C   C67       1.0  0.69540  0.10440  0.69080  1.0000
  C   C68       1.0  0.30460  0.60440  0.80920  1.0000
  C   C69       1.0  0.43180  0.70040  0.22430  1.0000
  C   C70       1.0  0.56820  0.20040  0.27570  1.0000
  C   C71       1.0  0.56820  0.29960  0.77570  1.0000
  C   C72       1.0  0.43180  0.79960  0.72430  1.0000
  H   H17       1.0  0.44357  0.71512  0.28141  1.0000
  H   H18       1.0  0.55643  0.21512  0.21859  1.0000
  H   H19       1.0  0.55643  0.28488  0.71859  1.0000
  H   H20       1.0  0.44357  0.78488  0.78141  1.0000
  C   C73       1.0  0.54370  0.67850  0.57610  1.0000
  C   C74       1.0  0.45630  0.17850  0.92390  1.0000
  C   C75       1.0  0.45630  0.32150  0.42390  1.0000
  C   C76       1.0  0.54370  0.82150  0.07610  1.0000
  C   C77       1.0  0.53650  0.62810  0.62140  1.0000
  C   C78       1.0  0.46350  0.12810  0.87860  1.0000
  C   C79       1.0  0.46350  0.37190  0.37860  1.0000
  C   C80       1.0  0.53650  0.87190  0.12140  1.0000
  H   H21       1.0  0.57672  0.62276  0.67896  1.0000
  H   H22       1.0  0.42328  0.12276  0.82104  1.0000
  H   H23       1.0  0.42328  0.37724  0.32104  1.0000
  H   H24       1.0  0.57672  0.87724  0.17896  1.0000
  C   C81       1.0  0.36210  0.87920  0.25850  1.0000
  C   C82       1.0  0.63790  0.37920  0.24150  1.0000
  C   C83       1.0  0.63790  0.12080  0.74150  1.0000
  C   C84       1.0  0.36210  0.62080  0.75850  1.0000
  H   H25       1.0  0.40908  0.90388  0.25154  1.0000
  H   H26       1.0  0.59092  0.40388  0.24846  1.0000
  H   H27       1.0  0.59092  0.09612  0.74846  1.0000
  H   H28       1.0  0.40908  0.59612  0.75154  1.0000
  C   C85       1.0  0.17660  0.70720  0.17000  1.0000
  C   C86       1.0  0.82340  0.20720  0.33000  1.0000
  C   C87       1.0  0.82340  0.29280  0.83000  1.0000
  C   C88       1.0  0.17660  0.79280  0.67000  1.0000
  C   C89       1.0  0.32510  0.68270  0.08090  1.0000
  C   C90       1.0  0.67490  0.18270  0.41910  1.0000
  C   C91       1.0  0.67490  0.31730  0.91910  1.0000
  C   C92       1.0  0.32510  0.81730  0.58090  1.0000
  H   H29       1.0  0.26385  0.68440  0.04084  1.0000
  H   H30       1.0  0.73615  0.18440  0.45916  1.0000
  H   H31       1.0  0.73615  0.31560  0.95916  1.0000
  H   H32       1.0  0.26385  0.81560  0.54084  1.0000
  C   C93       1.0  0.25810  0.48930  0.22620  1.0000
  C   C94       1.0  0.74190  0.98930  0.27380  1.0000
  C   C95       1.0  0.74190  0.51070  0.77380  1.0000
  C   C96       1.0  0.25810  0.01070  0.72620  1.0000
  H   H33       1.0  0.20456  0.46949  0.19213  1.0000
  H   H34       1.0  0.79544  0.96949  0.30787  1.0000
  H   H35       1.0  0.79544  0.53051  0.80787  1.0000
  H   H36       1.0  0.20456  0.03051  0.69213  1.0000
  C   C97       1.0  0.47140  0.58630  0.58290  1.0000
  C   C98       1.0  0.52860  0.08630  0.91710  1.0000
  C   C99       1.0  0.52860  0.41370  0.41710  1.0000
  C   C100      1.0  0.47140  0.91370  0.08290  1.0000
  H   H37       1.0  0.46828  0.55283  0.61407  1.0000
  H   H38       1.0  0.53172  0.05283  0.88593  1.0000
  H   H39       1.0  0.53172  0.44717  0.38593  1.0000
  H   H40       1.0  0.46828  0.94717  0.11407  1.0000
  C   C101      1.0  0.34950  0.82560  0.21780  1.0000
  C   C102      1.0  0.65050  0.32560  0.28220  1.0000
  C   C103      1.0  0.65050  0.17440  0.78220  1.0000
  C   C104      1.0  0.34950  0.67440  0.71780  1.0000
  H   H41       1.0  0.38642  0.81536  0.18142  1.0000
  H   H42       1.0  0.61358  0.31536  0.31858  1.0000
  H   H43       1.0  0.61358  0.18464  0.81858  1.0000
  H   H44       1.0  0.38642  0.68464  0.68142  1.0000
  C   C105      1.0  0.40980  0.59390  0.49700  1.0000
  C   C106      1.0  0.59020  0.09390  0.00300  1.0000
  C   C107      1.0  0.59020  0.40610  0.50300  1.0000
  C   C108      1.0  0.40980  0.90610  0.99700  1.0000
  C   C109      1.0  0.26210  0.50520  0.30920  1.0000
  C   C110      1.0  0.73790  0.00520  0.19080  1.0000
  C   C111      1.0  0.73790  0.49480  0.69080  1.0000
  C   C112      1.0  0.26210  0.99480  0.80920  1.0000
  H   H45       1.0  0.21140  0.49633  0.33092  1.0000
  H   H46       1.0  0.78860  0.99633  0.16908  1.0000
  H   H47       1.0  0.78860  0.50367  0.66908  1.0000
  H   H48       1.0  0.21140  0.00367  0.83092  1.0000
  C   C113      1.0  0.47910  0.68780  0.49140  1.0000
  C   C114      1.0  0.52090  0.18780  0.00860  1.0000
  C   C115      1.0  0.52090  0.31220  0.50860  1.0000
  C   C116      1.0  0.47910  0.81220  0.99140  1.0000
  H   H49       1.0  0.48280  0.72152  0.46104  1.0000
  H   H50       1.0  0.51720  0.22152  0.03896  1.0000
  H   H51       1.0  0.51720  0.27848  0.53896  1.0000
  H   H52       1.0  0.48280  0.77848  0.96104  1.0000
  C   C117      1.0  0.00320  0.71280  0.11830  1.0000
  C   C118      1.0  0.99680  0.21280  0.38170  1.0000
  C   C119      1.0  0.99680  0.28720  0.88170  1.0000
  C   C120      1.0  0.00320  0.78720  0.61830  1.0000
  H   H53       1.0  0.94784  0.73447  0.09639  1.0000
  H   H54       1.0  0.05216  0.23447  0.40361  1.0000
  H   H55       1.0  0.05216  0.26553  0.90361  1.0000
  H   H56       1.0  0.94784  0.76553  0.59639  1.0000
  C   C121      1.0  0.27610  0.52430  0.56900  1.0000
  C   C122      1.0  0.72390  0.02430  0.93100  1.0000
  C   C123      1.0  0.72390  0.47570  0.43100  1.0000
  C   C124      1.0  0.27610  0.97570  0.06900  1.0000
  H   H57       1.0  0.26776  0.56313  0.57810  1.0000
  H   H58       1.0  0.73224  0.06313  0.92190  1.0000
  H   H59       1.0  0.73224  0.43687  0.42190  1.0000
  H   H60       1.0  0.26776  0.93687  0.07810  1.0000
  C   C125      1.0  0.40870  0.64690  0.45190  1.0000
  C   C126      1.0  0.59130  0.14690  0.04810  1.0000
  C   C127      1.0  0.59130  0.35310  0.54810  1.0000
  C   C128      1.0  0.40870  0.85310  0.95190  1.0000
  H   H61       1.0  0.36273  0.65424  0.39787  1.0000
  H   H62       1.0  0.63727  0.15424  0.10213  1.0000
  H   H63       1.0  0.63727  0.34576  0.60213  1.0000
  H   H64       1.0  0.36273  0.84576  0.89787  1.0000
  C   C129      1.0  0.33420  0.44890  0.49790  1.0000
  C   C130      1.0  0.66580  0.94890  0.00210  1.0000
  C   C131      1.0  0.66580  0.55110  0.50210  1.0000
  C   C132      1.0  0.33420  0.05110  0.99790  1.0000
  H   H65       1.0  0.36432  0.43657  0.45708  1.0000
  H   H66       1.0  0.63568  0.93657  0.04292  1.0000
  H   H67       1.0  0.63568  0.56343  0.54292  1.0000
  H   H68       1.0  0.36432  0.06343  0.95708  1.0000
  C   C133      1.0  0.23750  0.85800  0.32210  1.0000
  C   C134      1.0  0.76250  0.35800  0.17790  1.0000
  C   C135      1.0  0.76250  0.14200  0.67790  1.0000
  C   C136      1.0  0.23750  0.64200  0.82210  1.0000
  H   H69       1.0  0.19589  0.86956  0.35314  1.0000
  H   H70       1.0  0.80411  0.36956  0.14686  1.0000
  H   H71       1.0  0.80411  0.13044  0.64686  1.0000
  H   H72       1.0  0.19589  0.63044  0.85314  1.0000
  C   C137      1.0  0.09460  0.73900  0.13300  1.0000
  C   C138      1.0  0.90540  0.23900  0.36700  1.0000
  C   C139      1.0  0.90540  0.26100  0.86700  1.0000
  C   C140      1.0  0.09460  0.76100  0.63300  1.0000
  H   H73       1.0  0.09908  0.77717  0.11778  1.0000
  H   H74       1.0  0.90092  0.27717  0.38222  1.0000
  H   H75       1.0  0.90092  0.22283  0.88222  1.0000
  H   H76       1.0  0.09908  0.72283  0.61778  1.0000
  C   C141      1.0  0.30800  0.41020  0.55100  1.0000
  C   C142      1.0  0.69200  0.91020  0.94900  1.0000
  C   C143      1.0  0.69200  0.58980  0.44900  1.0000
  C   C144      1.0  0.30800  0.08980  0.05100  1.0000
  H   H77       1.0  0.32105  0.37146  0.54619  1.0000
  H   H78       1.0  0.67895  0.87146  0.95381  1.0000
  H   H79       1.0  0.67895  0.62854  0.45381  1.0000
  H   H80       1.0  0.32105  0.12854  0.04619  1.0000
  C   C145      1.0  0.23240  0.80330  0.28880  1.0000
  C   C146      1.0  0.76760  0.30330  0.21120  1.0000
  C   C147      1.0  0.76760  0.19670  0.71120  1.0000
  C   C148      1.0  0.23240  0.69670  0.78880  1.0000
  H   H81       1.0  0.19429  0.77634  0.30560  1.0000
  H   H82       1.0  0.80571  0.27634  0.19440  1.0000
  H   H83       1.0  0.80571  0.22366  0.69440  1.0000
  H   H84       1.0  0.19429  0.72366  0.80560  1.0000
  C   C149      1.0  0.08020  0.62360  0.16720  1.0000
  C   C150      1.0  0.91980  0.12360  0.33280  1.0000
  C   C151      1.0  0.91980  0.37640  0.83280  1.0000
  C   C152      1.0  0.08020  0.87640  0.66720  1.0000
  H   H85       1.0  0.07581  0.58427  0.17487  1.0000
  H   H86       1.0  0.92419  0.08427  0.32513  1.0000
  H   H87       1.0  0.92419  0.41573  0.82513  1.0000
  H   H88       1.0  0.07581  0.91573  0.67487  1.0000
  C   C153      1.0  0.24810  0.48460  0.62120  1.0000
  C   C154      1.0  0.75190  0.98460  0.87880  1.0000
  C   C155      1.0  0.75190  0.51540  0.37880  1.0000
  C   C156      1.0  0.24810  0.01540  0.12120  1.0000
  H   H89       1.0  0.21933  0.49708  0.66296  1.0000
  H   H90       1.0  0.78067  0.99708  0.83704  1.0000
  H   H91       1.0  0.78067  0.50292  0.33704  1.0000
  H   H92       1.0  0.21933  0.00292  0.16296  1.0000
  C   C157      1.0  0.16890  0.64850  0.18660  1.0000
  C   C158      1.0  0.83110  0.14850  0.31340  1.0000
  C   C159      1.0  0.83110  0.35150  0.81340  1.0000
  C   C160      1.0  0.16890  0.85150  0.68660  1.0000
  H   H93       1.0  0.22362  0.62662  0.21069  1.0000
  H   H94       1.0  0.77638  0.12662  0.28931  1.0000
  H   H95       1.0  0.77638  0.37338  0.78931  1.0000
  H   H96       1.0  0.22362  0.87338  0.71069  1.0000
  C   C161      1.0  0.26210  0.42750  0.61240  1.0000
  C   C162      1.0  0.73790  0.92750  0.88760  1.0000
  C   C163      1.0  0.73790  0.57250  0.38760  1.0000
  C   C164      1.0  0.26210  0.07250  0.11240  1.0000
  C   C165      1.0  0.23720  0.38300  0.67160  1.0000
  C   C166      1.0  0.76280  0.88300  0.82840  1.0000
  C   C167      1.0  0.76280  0.61700  0.32840  1.0000
  C   C168      1.0  0.23720  0.11700  0.17160  1.0000
  O   O49       1.0  0.89010  0.75580  0.26840  1.0000
  O   O50       1.0  0.10990  0.25580  0.23160  1.0000
  O   O51       1.0  0.10990  0.24420  0.73160  1.0000
  O   O52       1.0  0.89010  0.74420  0.76840  1.0000
  N   N9        1.0  0.03230  0.72830  0.37050  1.0000
  N   N10       1.0  0.96770  0.22830  0.12950  1.0000
  N   N11       1.0  0.96770  0.27170  0.62950  1.0000
  N   N12       1.0  0.03230  0.77170  0.87050  1.0000
  C   C169      1.0  0.94480  0.72240  0.30210  1.0000
  C   C170      1.0  0.05520  0.22240  0.19790  1.0000
  C   C171      1.0  0.05520  0.27760  0.69790  1.0000
  C   C172      1.0  0.94480  0.77760  0.80210  1.0000
  H   H97       1.0  0.92979  0.68507  0.28171  1.0000
  H   H98       1.0  0.07021  0.18507  0.21829  1.0000
  H   H99       1.0  0.07021  0.31493  0.71829  1.0000
  H   H100      1.0  0.92979  0.81493  0.78171  1.0000
  C   C173      1.0  0.09700  0.68120  0.40800  1.0000
  C   C174      1.0  0.90300  0.18120  0.09200  1.0000
  C   C175      1.0  0.90300  0.31880  0.59200  1.0000
  C   C176      1.0  0.09700  0.81880  0.90800  1.0000
  H   H101      1.0  0.10126  0.65616  0.36117  1.0000
  H   H102      1.0  0.89874  0.15616  0.13883  1.0000
  H   H103      1.0  0.89874  0.34384  0.63883  1.0000
  H   H104      1.0  0.10126  0.84384  0.86117  1.0000
  H   H105      1.0  0.07218  0.66010  0.44884  1.0000
  H   H106      1.0  0.92782  0.16010  0.05116  1.0000
  H   H107      1.0  0.92782  0.33990  0.55116  1.0000
  H   H108      1.0  0.07218  0.83990  0.94884  1.0000
  H   H109      1.0  0.15873  0.69607  0.43888  1.0000
  H   H110      1.0  0.84127  0.19607  0.06112  1.0000
  H   H111      1.0  0.84127  0.30393  0.56112  1.0000
  H   H112      1.0  0.15873  0.80393  0.93888  1.0000
  C   C177      1.0  0.06800  0.78310  0.41100  1.0000
  C   C178      1.0  0.93200  0.28310  0.08900  1.0000
  C   C179      1.0  0.93200  0.21690  0.58900  1.0000
  C   C180      1.0  0.06800  0.71690  0.91100  1.0000
  H   H113      1.0  0.06693  0.81068  0.36563  1.0000
  H   H114      1.0  0.93307  0.31068  0.13437  1.0000
  H   H115      1.0  0.93307  0.18932  0.63437  1.0000
  H   H116      1.0  0.06693  0.68932  0.86563  1.0000
  H   H117      1.0  0.13275  0.77854  0.44894  1.0000
  H   H118      1.0  0.86725  0.27854  0.05106  1.0000
  H   H119      1.0  0.86725  0.22146  0.55106  1.0000
  H   H120      1.0  0.13275  0.72146  0.94894  1.0000
  H   H121      1.0  0.02873  0.79638  0.44596  1.0000
  H   H122      1.0  0.97127  0.29638  0.05404  1.0000
  H   H123      1.0  0.97127  0.20362  0.55404  1.0000
  H   H124      1.0  0.02873  0.70362  0.94596  1.0000
