data_image0
_chemical_formula_structural       In12Cl8O80C8H4C4H4C8H4C4H4C8H4C4H4C8H4C16H4C4H4C8H4C4H4C8H4C4H4C8H4C4H4C16H4C4H4C8H4C4H4C8H4C4H4C8H4C4H4C24H4C4H4C8H4C4H4C8H4C4H4C4H4C16H4C4H4C8H4C4H4C8H4C4H4C8H4C4H4C8H4C4H4
_chemical_formula_sum              "In12 Cl8 O80 C280 H160"
_cell_length_a       29.6876
_cell_length_b       33.7481
_cell_length_c       9.4487
_cell_angle_alpha    90
_cell_angle_beta     90
_cell_angle_gamma    90

_space_group_name_H-M_alt    "P 1"
_space_group_IT_number       1

loop_
  _space_group_symop_operation_xyz
  'x, y, z'

loop_
  _atom_site_type_symbol
  _atom_site_label
  _atom_site_symmetry_multiplicity
  _atom_site_fract_x
  _atom_site_fract_y
  _atom_site_fract_z
  _atom_site_occupancy
  In  In1       1.0  0.52230  0.26635  0.99740  1.0000
  In  In2       1.0  0.02230  0.23365  0.00260  1.0000
  In  In3       1.0  0.97770  0.76635  0.00260  1.0000
  In  In4       1.0  0.47770  0.73365  0.99740  1.0000
  In  In5       1.0  0.70249  0.88559  0.34331  1.0000
  In  In6       1.0  0.20249  0.61441  0.65669  1.0000
  In  In7       1.0  0.79751  0.38559  0.65669  1.0000
  In  In8       1.0  0.29751  0.11441  0.34331  1.0000
  In  In9       1.0  0.74686  0.62609  0.66565  1.0000
  In  In10      1.0  0.24686  0.87391  0.33435  1.0000
  In  In11      1.0  0.75314  0.12609  0.33435  1.0000
  In  In12      1.0  0.25314  0.37391  0.66565  1.0000
  Cl  Cl1       1.0  0.77701  0.88728  0.24760  1.0000
  Cl  Cl2       1.0  0.27701  0.61272  0.75240  1.0000
  Cl  Cl3       1.0  0.72299  0.38728  0.75240  1.0000
  Cl  Cl4       1.0  0.22299  0.11272  0.24760  1.0000
  Cl  Cl5       1.0  0.82178  0.63348  0.75200  1.0000
  Cl  Cl6       1.0  0.32178  0.86652  0.24800  1.0000
  Cl  Cl7       1.0  0.67822  0.13348  0.24800  1.0000
  Cl  Cl8       1.0  0.17822  0.36652  0.75200  1.0000
  O   O1        1.0  0.68720  0.59420  0.58090  1.0000
  O   O2        1.0  0.18720  0.90580  0.41910  1.0000
  O   O3        1.0  0.81280  0.09420  0.41910  1.0000
  O   O4        1.0  0.31280  0.40580  0.58090  1.0000
  O   O5        1.0  0.74940  0.56100  0.61530  1.0000
  O   O6        1.0  0.24940  0.93900  0.38470  1.0000
  O   O7        1.0  0.75060  0.06100  0.38470  1.0000
  O   O8        1.0  0.25060  0.43900  0.61530  1.0000
  O   O9        1.0  0.52160  0.32830  0.08800  1.0000
  O   O10       1.0  0.02160  0.17170  0.91200  1.0000
  O   O11       1.0  0.97840  0.82830  0.91200  1.0000
  O   O12       1.0  0.47840  0.67170  0.08800  1.0000
  O   O13       1.0  0.58600  0.30100  0.04580  1.0000
  O   O14       1.0  0.08600  0.19900  0.95420  1.0000
  O   O15       1.0  0.91400  0.80100  0.95420  1.0000
  O   O16       1.0  0.41400  0.69900  0.04580  1.0000
  O   O17       1.0  0.73790  0.67890  0.53880  1.0000
  O   O18       1.0  0.23790  0.82110  0.46120  1.0000
  O   O19       1.0  0.76210  0.17890  0.46120  1.0000
  O   O20       1.0  0.26210  0.32110  0.53880  1.0000
  O   O21       1.0  0.77090  0.63200  0.41560  1.0000
  O   O22       1.0  0.27090  0.86800  0.58440  1.0000
  O   O23       1.0  0.72910  0.13200  0.58440  1.0000
  O   O24       1.0  0.22910  0.36800  0.41560  1.0000
  O   O25       1.0  0.72860  0.88710  0.60130  1.0000
  O   O26       1.0  0.22860  0.61290  0.39870  1.0000
  O   O27       1.0  0.77140  0.38710  0.39870  1.0000
  O   O28       1.0  0.27140  0.11290  0.60130  1.0000
  O   O29       1.0  0.70710  0.83520  0.48140  1.0000
  O   O30       1.0  0.20710  0.66480  0.51860  1.0000
  O   O31       1.0  0.79290  0.33520  0.51860  1.0000
  O   O32       1.0  0.29290  0.16480  0.48140  1.0000
  O   O33       1.0  0.69730  0.94890  0.38170  1.0000
  O   O34       1.0  0.19730  0.55110  0.61830  1.0000
  O   O35       1.0  0.80270  0.44890  0.61830  1.0000
  O   O36       1.0  0.30270  0.05110  0.38170  1.0000
  O   O37       1.0  0.63850  0.91390  0.44670  1.0000
  O   O38       1.0  0.13850  0.58610  0.55330  1.0000
  O   O39       1.0  0.86150  0.41390  0.55330  1.0000
  O   O40       1.0  0.36150  0.08610  0.44670  1.0000
  O   O41       1.0  0.67270  0.90390  0.11100  1.0000
  O   O42       1.0  0.17270  0.59610  0.88900  1.0000
  O   O43       1.0  0.82730  0.40390  0.88900  1.0000
  O   O44       1.0  0.32730  0.09610  0.11100  1.0000
  O   O45       1.0  0.66510  0.84540  0.20900  1.0000
  O   O46       1.0  0.16510  0.65460  0.79100  1.0000
  O   O47       1.0  0.83490  0.34540  0.79100  1.0000
  O   O48       1.0  0.33490  0.15460  0.20900  1.0000
  O   O49       1.0  0.27700  0.39850  0.89800  1.0000
  O   O50       1.0  0.77700  0.10150  0.10200  1.0000
  O   O51       1.0  0.22300  0.89850  0.10200  1.0000
  O   O52       1.0  0.72300  0.60150  0.89800  1.0000
  O   O53       1.0  0.29760  0.34180  0.80880  1.0000
  O   O54       1.0  0.79760  0.15820  0.19120  1.0000
  O   O55       1.0  0.20240  0.84180  0.19120  1.0000
  O   O56       1.0  0.70240  0.65820  0.80880  1.0000
  O   O57       1.0  0.46890  0.28250  0.85550  1.0000
  O   O58       1.0  0.96890  0.21750  0.14450  1.0000
  O   O59       1.0  0.03110  0.78250  0.14450  1.0000
  O   O60       1.0  0.53110  0.71750  0.85550  1.0000
  O   O61       1.0  0.52870  0.29660  0.74970  1.0000
  O   O62       1.0  0.02870  0.20340  0.25030  1.0000
  O   O63       1.0  0.97130  0.79660  0.25030  1.0000
  O   O64       1.0  0.47130  0.70340  0.74970  1.0000
  O   O65       1.0  0.53560  0.74850  0.13680  1.0000
  O   O66       1.0  0.03560  0.75150  0.86320  1.0000
  O   O67       1.0  0.96440  0.24850  0.86320  1.0000
  O   O68       1.0  0.46440  0.25150  0.13680  1.0000
  O   O69       1.0  0.46910  0.75790  0.22630  1.0000
  O   O70       1.0  0.96910  0.74210  0.77370  1.0000
  O   O71       1.0  0.03090  0.25790  0.77370  1.0000
  O   O72       1.0  0.53090  0.24210  0.22630  1.0000
  O   O73       1.0  0.57380  0.22550  0.90070  1.0000
  O   O74       1.0  0.07380  0.27450  0.09930  1.0000
  O   O75       1.0  0.92620  0.72550  0.09930  1.0000
  O   O76       1.0  0.42620  0.77450  0.90070  1.0000
  O   O77       1.0  0.50900  0.19920  0.94770  1.0000
  O   O78       1.0  0.00900  0.30080  0.05230  1.0000
  O   O79       1.0  0.99100  0.69920  0.05230  1.0000
  O   O80       1.0  0.49100  0.80080  0.94770  1.0000
  C   C1        1.0  0.68780  0.52680  0.50490  1.0000
  C   C2        1.0  0.18780  0.97320  0.49510  1.0000
  C   C3        1.0  0.81220  0.02680  0.49510  1.0000
  C   C4        1.0  0.31220  0.47320  0.50490  1.0000
  C   C5        1.0  0.64560  0.52970  0.44300  1.0000
  C   C6        1.0  0.14560  0.97030  0.55700  1.0000
  C   C7        1.0  0.85440  0.02970  0.55700  1.0000
  C   C8        1.0  0.35440  0.47030  0.44300  1.0000
  H   H1        1.0  0.62980  0.55360  0.44530  1.0000
  H   H2        1.0  0.12980  0.94640  0.55470  1.0000
  H   H3        1.0  0.87020  0.05360  0.55470  1.0000
  H   H4        1.0  0.37020  0.44640  0.44530  1.0000
  C   C9        1.0  0.62790  0.49810  0.38000  1.0000
  C   C10       1.0  0.12790  0.00190  0.62000  1.0000
  C   C11       1.0  0.87210  0.99810  0.62000  1.0000
  C   C12       1.0  0.37210  0.50190  0.38000  1.0000
  H   H5        1.0  0.59970  0.50060  0.33810  1.0000
  H   H6        1.0  0.09970  0.99940  0.66190  1.0000
  H   H7        1.0  0.90030  0.00060  0.66190  1.0000
  H   H8        1.0  0.40030  0.49940  0.33810  1.0000
  C   C13       1.0  0.64950  0.46100  0.37500  1.0000
  C   C14       1.0  0.14950  0.03900  0.62500  1.0000
  C   C15       1.0  0.85050  0.96100  0.62500  1.0000
  C   C16       1.0  0.35050  0.53900  0.37500  1.0000
  C   C17       1.0  0.69200  0.45830  0.43600  1.0000
  C   C18       1.0  0.19200  0.04170  0.56400  1.0000
  C   C19       1.0  0.80800  0.95830  0.56400  1.0000
  C   C20       1.0  0.30800  0.54170  0.43600  1.0000
  H   H9        1.0  0.70790  0.43460  0.43250  1.0000
  H   H10       1.0  0.20790  0.06540  0.56750  1.0000
  H   H11       1.0  0.79210  0.93460  0.56750  1.0000
  H   H12       1.0  0.29210  0.56540  0.43250  1.0000
  C   C21       1.0  0.71010  0.49080  0.50100  1.0000
  C   C22       1.0  0.21010  0.00920  0.49900  1.0000
  C   C23       1.0  0.78990  0.99080  0.49900  1.0000
  C   C24       1.0  0.28990  0.50920  0.50100  1.0000
  H   H13       1.0  0.73820  0.48860  0.54430  1.0000
  H   H14       1.0  0.23820  0.01140  0.45570  1.0000
  H   H15       1.0  0.76180  0.98860  0.45570  1.0000
  H   H16       1.0  0.26180  0.51140  0.54430  1.0000
  C   C25       1.0  0.62850  0.42600  0.30200  1.0000
  C   C26       1.0  0.12850  0.07400  0.69800  1.0000
  C   C27       1.0  0.87150  0.92600  0.69800  1.0000
  C   C28       1.0  0.37150  0.57400  0.30200  1.0000
  C   C29       1.0  0.58170  0.42280  0.30100  1.0000
  C   C30       1.0  0.08170  0.07720  0.69900  1.0000
  C   C31       1.0  0.91830  0.92280  0.69900  1.0000
  C   C32       1.0  0.41830  0.57720  0.30100  1.0000
  H   H17       1.0  0.56410  0.44190  0.34530  1.0000
  H   H18       1.0  0.06410  0.05810  0.65470  1.0000
  H   H19       1.0  0.93590  0.94190  0.65470  1.0000
  H   H20       1.0  0.43590  0.55810  0.34530  1.0000
  C   C33       1.0  0.56110  0.39000  0.23160  1.0000
  C   C34       1.0  0.06110  0.11000  0.76840  1.0000
  C   C35       1.0  0.93890  0.89000  0.76840  1.0000
  C   C36       1.0  0.43890  0.61000  0.23160  1.0000
  H   H21       1.0  0.52990  0.38760  0.23120  1.0000
  H   H22       1.0  0.02990  0.11240  0.76880  1.0000
  H   H23       1.0  0.97010  0.88760  0.76880  1.0000
  H   H24       1.0  0.47010  0.61240  0.23120  1.0000
  C   C37       1.0  0.58650  0.36290  0.16700  1.0000
  C   C38       1.0  0.08650  0.13710  0.83300  1.0000
  C   C39       1.0  0.91350  0.86290  0.83300  1.0000
  C   C40       1.0  0.41350  0.63710  0.16700  1.0000
  C   C41       1.0  0.63240  0.36710  0.15900  1.0000
  C   C42       1.0  0.13240  0.13290  0.84100  1.0000
  C   C43       1.0  0.86760  0.86710  0.84100  1.0000
  C   C44       1.0  0.36760  0.63290  0.15900  1.0000
  H   H25       1.0  0.65010  0.34950  0.10760  1.0000
  H   H26       1.0  0.15010  0.15050  0.89240  1.0000
  H   H27       1.0  0.84990  0.84950  0.89240  1.0000
  H   H28       1.0  0.34990  0.65050  0.10760  1.0000
  C   C45       1.0  0.70860  0.56270  0.57160  1.0000
  C   C46       1.0  0.20860  0.93730  0.42840  1.0000
  C   C47       1.0  0.79140  0.06270  0.42840  1.0000
  C   C48       1.0  0.29140  0.43730  0.57160  1.0000
  C   C49       1.0  0.56210  0.32930  0.09440  1.0000
  C   C50       1.0  0.06210  0.17070  0.90560  1.0000
  C   C51       1.0  0.93790  0.82930  0.90560  1.0000
  C   C52       1.0  0.43790  0.67070  0.09440  1.0000
  C   C53       1.0  0.75170  0.69350  0.29760  1.0000
  C   C54       1.0  0.25170  0.80650  0.70240  1.0000
  C   C55       1.0  0.74830  0.19350  0.70240  1.0000
  C   C56       1.0  0.24830  0.30650  0.29760  1.0000
  C   C57       1.0  0.72920  0.72950  0.31220  1.0000
  C   C58       1.0  0.22920  0.77050  0.68780  1.0000
  C   C59       1.0  0.77080  0.22950  0.68780  1.0000
  C   C60       1.0  0.27080  0.27050  0.31220  1.0000
  H   H29       1.0  0.71650  0.73690  0.39820  1.0000
  H   H30       1.0  0.21650  0.76310  0.60180  1.0000
  H   H31       1.0  0.78350  0.23690  0.60180  1.0000
  H   H32       1.0  0.28350  0.26310  0.39820  1.0000
  C   C61       1.0  0.72650  0.75410  0.19440  1.0000
  C   C62       1.0  0.22650  0.74590  0.80560  1.0000
  C   C63       1.0  0.77350  0.25410  0.80560  1.0000
  C   C64       1.0  0.27350  0.24590  0.19440  1.0000
  H   H33       1.0  0.71040  0.77760  0.20190  1.0000
  H   H34       1.0  0.21040  0.72240  0.79810  1.0000
  H   H35       1.0  0.78960  0.27760  0.79810  1.0000
  H   H36       1.0  0.28960  0.22240  0.20190  1.0000
  C   C65       1.0  0.74630  0.74510  0.06900  1.0000
  C   C66       1.0  0.24630  0.75490  0.93100  1.0000
  C   C67       1.0  0.75370  0.24510  0.93100  1.0000
  C   C68       1.0  0.25370  0.25490  0.06900  1.0000
  C   C69       1.0  0.76960  0.70900  0.05630  1.0000
  C   C70       1.0  0.26960  0.79100  0.94370  1.0000
  C   C71       1.0  0.73040  0.20900  0.94370  1.0000
  C   C72       1.0  0.23040  0.29100  0.05630  1.0000
  H   H37       1.0  0.78340  0.70240  0.97110  1.0000
  H   H38       1.0  0.28340  0.79760  0.02890  1.0000
  H   H39       1.0  0.71660  0.20240  0.02890  1.0000
  H   H40       1.0  0.21660  0.29760  0.97110  1.0000
  C   C73       1.0  0.77210  0.68320  0.16950  1.0000
  C   C74       1.0  0.27210  0.81680  0.83050  1.0000
  C   C75       1.0  0.72790  0.18320  0.83050  1.0000
  C   C76       1.0  0.22790  0.31680  0.16950  1.0000
  H   H41       1.0  0.78730  0.65930  0.16070  1.0000
  H   H42       1.0  0.28730  0.84070  0.83930  1.0000
  H   H43       1.0  0.71270  0.15930  0.83930  1.0000
  H   H44       1.0  0.21270  0.34070  0.16070  1.0000
  C   C77       1.0  0.74110  0.77240  0.94640  1.0000
  C   C78       1.0  0.24110  0.72760  0.05360  1.0000
  C   C79       1.0  0.75890  0.27240  0.05360  1.0000
  C   C80       1.0  0.25890  0.22760  0.94640  1.0000
  C   C81       1.0  0.74860  0.81220  0.95930  1.0000
  C   C82       1.0  0.24860  0.68780  0.04070  1.0000
  C   C83       1.0  0.75140  0.31220  0.04070  1.0000
  C   C84       1.0  0.25140  0.18780  0.95930  1.0000
  H   H45       1.0  0.75850  0.82210  0.04560  1.0000
  H   H46       1.0  0.25850  0.67790  0.95440  1.0000
  H   H47       1.0  0.74150  0.32210  0.95440  1.0000
  H   H48       1.0  0.24150  0.17790  0.04560  1.0000
  C   C85       1.0  0.74190  0.83770  0.84920  1.0000
  C   C86       1.0  0.24190  0.66230  0.15080  1.0000
  C   C87       1.0  0.75810  0.33770  0.15080  1.0000
  C   C88       1.0  0.25810  0.16230  0.84920  1.0000
  H   H49       1.0  0.74650  0.86470  0.86220  1.0000
  H   H50       1.0  0.24650  0.63530  0.13780  1.0000
  H   H51       1.0  0.75350  0.36470  0.13780  1.0000
  H   H52       1.0  0.25350  0.13530  0.86220  1.0000
  C   C89       1.0  0.72820  0.82340  0.71680  1.0000
  C   C90       1.0  0.22820  0.67660  0.28320  1.0000
  C   C91       1.0  0.77180  0.32340  0.28320  1.0000
  C   C92       1.0  0.27180  0.17660  0.71680  1.0000
  C   C93       1.0  0.72090  0.78350  0.70210  1.0000
  C   C94       1.0  0.22090  0.71650  0.29790  1.0000
  C   C95       1.0  0.77910  0.28350  0.29790  1.0000
  C   C96       1.0  0.27910  0.21650  0.70210  1.0000
  H   H53       1.0  0.71160  0.77350  0.61520  1.0000
  H   H54       1.0  0.21160  0.72650  0.38480  1.0000
  H   H55       1.0  0.78840  0.27350  0.38480  1.0000
  H   H56       1.0  0.28840  0.22650  0.61520  1.0000
  C   C97       1.0  0.72720  0.75840  0.81220  1.0000
  C   C98       1.0  0.22720  0.74160  0.18780  1.0000
  C   C99       1.0  0.77280  0.25840  0.18780  1.0000
  C   C100      1.0  0.27280  0.24160  0.81220  1.0000
  H   H57       1.0  0.72230  0.73140  0.79930  1.0000
  H   H58       1.0  0.22230  0.76860  0.20070  1.0000
  H   H59       1.0  0.77770  0.23140  0.20070  1.0000
  H   H60       1.0  0.27770  0.26860  0.79930  1.0000
  C   C101      1.0  0.75240  0.66650  0.42400  1.0000
  C   C102      1.0  0.25240  0.83350  0.57600  1.0000
  C   C103      1.0  0.74760  0.16650  0.57600  1.0000
  C   C104      1.0  0.24760  0.33350  0.42400  1.0000
  C   C105      1.0  0.72050  0.85070  0.59430  1.0000
  C   C106      1.0  0.22050  0.64930  0.40570  1.0000
  C   C107      1.0  0.77950  0.35070  0.40570  1.0000
  C   C108      1.0  0.27950  0.14930  0.59430  1.0000
  C   C109      1.0  0.63500  0.85390  0.97790  1.0000
  C   C110      1.0  0.13500  0.64610  0.02210  1.0000
  C   C111      1.0  0.86500  0.35390  0.02210  1.0000
  C   C112      1.0  0.36500  0.14610  0.97790  1.0000
  C   C113      1.0  0.61880  0.81580  0.97820  1.0000
  C   C114      1.0  0.11880  0.68420  0.02180  1.0000
  C   C115      1.0  0.88120  0.31580  0.02180  1.0000
  C   C116      1.0  0.38120  0.18420  0.97820  1.0000
  H   H61       1.0  0.62230  0.79960  0.05710  1.0000
  H   H62       1.0  0.12230  0.70040  0.94290  1.0000
  H   H63       1.0  0.87770  0.29960  0.94290  1.0000
  H   H64       1.0  0.37770  0.20040  0.05710  1.0000
  C   C117      1.0  0.59650  0.80170  0.85490  1.0000
  C   C118      1.0  0.09650  0.69830  0.14510  1.0000
  C   C119      1.0  0.90350  0.30170  0.14510  1.0000
  C   C120      1.0  0.40350  0.19830  0.85490  1.0000
  H   H65       1.0  0.58310  0.77680  0.85620  1.0000
  H   H66       1.0  0.08310  0.72320  0.14380  1.0000
  H   H67       1.0  0.91690  0.27680  0.14380  1.0000
  H   H68       1.0  0.41690  0.22320  0.85620  1.0000
  C   C121      1.0  0.59440  0.82390  0.73550  1.0000
  C   C122      1.0  0.09440  0.67610  0.26450  1.0000
  C   C123      1.0  0.90560  0.32390  0.26450  1.0000
  C   C124      1.0  0.40560  0.17610  0.73550  1.0000
  C   C125      1.0  0.61240  0.86030  0.73510  1.0000
  C   C126      1.0  0.11240  0.63970  0.26490  1.0000
  C   C127      1.0  0.88760  0.36030  0.26490  1.0000
  C   C128      1.0  0.38760  0.13970  0.73510  1.0000
  H   H69       1.0  0.61160  0.87510  0.65220  1.0000
  H   H70       1.0  0.11160  0.62490  0.34780  1.0000
  H   H71       1.0  0.88840  0.37510  0.34780  1.0000
  H   H72       1.0  0.38840  0.12490  0.65220  1.0000
  C   C129      1.0  0.63250  0.87680  0.85740  1.0000
  C   C130      1.0  0.13250  0.62320  0.14260  1.0000
  C   C131      1.0  0.86750  0.37680  0.14260  1.0000
  C   C132      1.0  0.36750  0.12320  0.85740  1.0000
  H   H73       1.0  0.64370  0.90250  0.85660  1.0000
  H   H74       1.0  0.14370  0.59750  0.14340  1.0000
  H   H75       1.0  0.85630  0.40250  0.14340  1.0000
  H   H76       1.0  0.35630  0.09750  0.85660  1.0000
  C   C133      1.0  0.57230  0.80800  0.60680  1.0000
  C   C134      1.0  0.07230  0.69200  0.39320  1.0000
  C   C135      1.0  0.92770  0.30800  0.39320  1.0000
  C   C136      1.0  0.42770  0.19200  0.60680  1.0000
  C   C137      1.0  0.52890  0.79680  0.60840  1.0000
  C   C138      1.0  0.02890  0.70320  0.39160  1.0000
  C   C139      1.0  0.97110  0.29680  0.39160  1.0000
  C   C140      1.0  0.47110  0.20320  0.60840  1.0000
  H   H77       1.0  0.51240  0.79870  0.69180  1.0000
  H   H78       1.0  0.01240  0.70130  0.30820  1.0000
  H   H79       1.0  0.98760  0.29870  0.30820  1.0000
  H   H80       1.0  0.48760  0.20130  0.69180  1.0000
  C   C141      1.0  0.50840  0.78240  0.48730  1.0000
  C   C142      1.0  0.00840  0.71760  0.51270  1.0000
  C   C143      1.0  0.99160  0.28240  0.51270  1.0000
  C   C144      1.0  0.49160  0.21760  0.48730  1.0000
  H   H81       1.0  0.47770  0.77710  0.48850  1.0000
  H   H82       1.0  0.97770  0.72290  0.51150  1.0000
  H   H83       1.0  0.02230  0.27710  0.51150  1.0000
  H   H84       1.0  0.52230  0.22290  0.48850  1.0000
  C   C145      1.0  0.53240  0.77580  0.36540  1.0000
  C   C146      1.0  0.03240  0.72420  0.63460  1.0000
  C   C147      1.0  0.96760  0.27580  0.63460  1.0000
  C   C148      1.0  0.46760  0.22420  0.36540  1.0000
  C   C149      1.0  0.57920  0.78600  0.36510  1.0000
  C   C150      1.0  0.07920  0.71400  0.63490  1.0000
  C   C151      1.0  0.92080  0.28600  0.63490  1.0000
  C   C152      1.0  0.42080  0.21400  0.36510  1.0000
  H   H85       1.0  0.59670  0.78120  0.28520  1.0000
  H   H86       1.0  0.09670  0.71880  0.71480  1.0000
  H   H87       1.0  0.90330  0.28120  0.71480  1.0000
  H   H88       1.0  0.40330  0.21880  0.28520  1.0000
  C   C153      1.0  0.59800  0.80270  0.48190  1.0000
  C   C154      1.0  0.09800  0.69730  0.51810  1.0000
  C   C155      1.0  0.90200  0.30270  0.51810  1.0000
  C   C156      1.0  0.40200  0.19730  0.48190  1.0000
  H   H89       1.0  0.62790  0.81080  0.47980  1.0000
  H   H90       1.0  0.12790  0.68920  0.52020  1.0000
  H   H91       1.0  0.87210  0.31080  0.52020  1.0000
  H   H92       1.0  0.37210  0.18920  0.47980  1.0000
  C   C157      1.0  0.65800  0.86880  0.10780  1.0000
  C   C158      1.0  0.15800  0.63120  0.89220  1.0000
  C   C159      1.0  0.84200  0.36880  0.89220  1.0000
  C   C160      1.0  0.34200  0.13120  0.10780  1.0000
  C   C161      1.0  0.65840  0.94680  0.43890  1.0000
  C   C162      1.0  0.15840  0.55320  0.56110  1.0000
  C   C163      1.0  0.84160  0.44680  0.56110  1.0000
  C   C164      1.0  0.34160  0.05320  0.43890  1.0000
  C   C165      1.0  0.29800  0.36640  0.91020  1.0000
  C   C166      1.0  0.79800  0.13360  0.08980  1.0000
  C   C167      1.0  0.20200  0.86640  0.08980  1.0000
  C   C168      1.0  0.70200  0.63360  0.91020  1.0000
  C   C169      1.0  0.32640  0.35810  0.03370  1.0000
  C   C170      1.0  0.82640  0.14190  0.96630  1.0000
  C   C171      1.0  0.17360  0.85810  0.96630  1.0000
  C   C172      1.0  0.67360  0.64190  0.03370  1.0000
  C   C173      1.0  0.46000  0.30860  0.62730  1.0000
  C   C174      1.0  0.96000  0.19140  0.37270  1.0000
  C   C175      1.0  0.04000  0.80860  0.37270  1.0000
  C   C176      1.0  0.54000  0.69140  0.62730  1.0000
  C   C177      1.0  0.48020  0.32000  0.50320  1.0000
  C   C178      1.0  0.98020  0.18000  0.49680  1.0000
  C   C179      1.0  0.01980  0.82000  0.49680  1.0000
  C   C180      1.0  0.51980  0.68000  0.50320  1.0000
  H   H93       1.0  0.51140  0.32170  0.49780  1.0000
  H   H94       1.0  0.01140  0.17830  0.50220  1.0000
  H   H95       1.0  0.98860  0.82170  0.50220  1.0000
  H   H96       1.0  0.48860  0.67830  0.49780  1.0000
  C   C181      1.0  0.45390  0.32890  0.38530  1.0000
  C   C182      1.0  0.95390  0.17110  0.61470  1.0000
  C   C183      1.0  0.04610  0.82890  0.61470  1.0000
  C   C184      1.0  0.54610  0.67110  0.38530  1.0000
  H   H97       1.0  0.46790  0.33480  0.29980  1.0000
  H   H98       1.0  0.96790  0.16520  0.70020  1.0000
  H   H99       1.0  0.03210  0.83480  0.70020  1.0000
  H   H100      1.0  0.53210  0.66520  0.29980  1.0000
  C   C185      1.0  0.40780  0.32930  0.39310  1.0000
  C   C186      1.0  0.90780  0.17070  0.60690  1.0000
  C   C187      1.0  0.09220  0.82930  0.60690  1.0000
  C   C188      1.0  0.59220  0.67070  0.39310  1.0000
  C   C189      1.0  0.38740  0.31860  0.52280  1.0000
  C   C190      1.0  0.88740  0.18140  0.47720  1.0000
  C   C191      1.0  0.11260  0.81860  0.47720  1.0000
  C   C192      1.0  0.61260  0.68140  0.52280  1.0000
  H   H101      1.0  0.35620  0.31950  0.53160  1.0000
  H   H102      1.0  0.85620  0.18050  0.46840  1.0000
  H   H103      1.0  0.14380  0.81950  0.46840  1.0000
  H   H104      1.0  0.64380  0.68050  0.53160  1.0000
  C   C193      1.0  0.41310  0.30680  0.63550  1.0000
  C   C194      1.0  0.91310  0.19320  0.36450  1.0000
  C   C195      1.0  0.08690  0.80680  0.36450  1.0000
  C   C196      1.0  0.58690  0.69320  0.63550  1.0000
  H   H105      1.0  0.39930  0.29770  0.71760  1.0000
  H   H106      1.0  0.89930  0.20230  0.28240  1.0000
  H   H107      1.0  0.10070  0.79770  0.28240  1.0000
  H   H108      1.0  0.60070  0.70230  0.71760  1.0000
  C   C197      1.0  0.37890  0.33870  0.26790  1.0000
  C   C198      1.0  0.87890  0.16130  0.73210  1.0000
  C   C199      1.0  0.12110  0.83870  0.73210  1.0000
  C   C200      1.0  0.62110  0.66130  0.26790  1.0000
  C   C201      1.0  0.38320  0.31780  0.14360  1.0000
  C   C202      1.0  0.88320  0.18220  0.85640  1.0000
  C   C203      1.0  0.11680  0.81780  0.85640  1.0000
  C   C204      1.0  0.61680  0.68220  0.14360  1.0000
  H   H109      1.0  0.40450  0.29770  0.13640  1.0000
  H   H110      1.0  0.90450  0.20230  0.86360  1.0000
  H   H111      1.0  0.09550  0.79770  0.86360  1.0000
  H   H112      1.0  0.59550  0.70230  0.13640  1.0000
  C   C205      1.0  0.35600  0.32670  0.02930  1.0000
  C   C206      1.0  0.85600  0.17330  0.97070  1.0000
  C   C207      1.0  0.14400  0.82670  0.97070  1.0000
  C   C208      1.0  0.64400  0.67330  0.02930  1.0000
  H   H113      1.0  0.35760  0.31120  0.94820  1.0000
  H   H114      1.0  0.85760  0.18880  0.05180  1.0000
  H   H115      1.0  0.14240  0.81120  0.05180  1.0000
  H   H116      1.0  0.64240  0.68880  0.94820  1.0000
  C   C209      1.0  0.34780  0.36820  0.27930  1.0000
  C   C210      1.0  0.84780  0.13180  0.72070  1.0000
  C   C211      1.0  0.15220  0.86820  0.72070  1.0000
  C   C212      1.0  0.65220  0.63180  0.27930  1.0000
  H   H117      1.0  0.34410  0.38170  0.36440  1.0000
  H   H118      1.0  0.84410  0.11830  0.63560  1.0000
  H   H119      1.0  0.15590  0.88170  0.63560  1.0000
  H   H120      1.0  0.65590  0.61830  0.36440  1.0000
  C   C213      1.0  0.48710  0.29550  0.75170  1.0000
  C   C214      1.0  0.98710  0.20450  0.24830  1.0000
  C   C215      1.0  0.01290  0.79550  0.24830  1.0000
  C   C216      1.0  0.51290  0.70450  0.75170  1.0000
  C   C217      1.0  0.51140  0.76010  0.23800  1.0000
  C   C218      1.0  0.01140  0.73990  0.76200  1.0000
  C   C219      1.0  0.98860  0.26010  0.76200  1.0000
  C   C220      1.0  0.48860  0.23990  0.23800  1.0000
  C   C221      1.0  0.56150  0.15800  0.83700  1.0000
  C   C222      1.0  0.06150  0.34200  0.16300  1.0000
  C   C223      1.0  0.93850  0.65800  0.16300  1.0000
  C   C224      1.0  0.43850  0.84200  0.83700  1.0000
  C   C225      1.0  0.60710  0.15370  0.79000  1.0000
  C   C226      1.0  0.10710  0.34630  0.21000  1.0000
  C   C227      1.0  0.89290  0.65370  0.21000  1.0000
  C   C228      1.0  0.39290  0.84630  0.79000  1.0000
  H   H121      1.0  0.62740  0.17440  0.80230  1.0000
  H   H122      1.0  0.12740  0.32560  0.19770  1.0000
  H   H123      1.0  0.87260  0.67440  0.19770  1.0000
  H   H124      1.0  0.37260  0.82560  0.80230  1.0000
  C   C229      1.0  0.62050  0.12020  0.73000  1.0000
  C   C230      1.0  0.12050  0.37980  0.27000  1.0000
  C   C231      1.0  0.87950  0.62020  0.27000  1.0000
  C   C232      1.0  0.37950  0.87980  0.73000  1.0000
  H   H125      1.0  0.65060  0.11750  0.70480  1.0000
  H   H126      1.0  0.15060  0.38250  0.29520  1.0000
  H   H127      1.0  0.84940  0.61750  0.29520  1.0000
  H   H128      1.0  0.34940  0.88250  0.70480  1.0000
  C   C233      1.0  0.59140  0.08900  0.70190  1.0000
  C   C234      1.0  0.09140  0.41100  0.29810  1.0000
  C   C235      1.0  0.90860  0.58900  0.29810  1.0000
  C   C236      1.0  0.40860  0.91100  0.70190  1.0000
  C   C237      1.0  0.54610  0.09230  0.74600  1.0000
  C   C238      1.0  0.04610  0.40770  0.25400  1.0000
  C   C239      1.0  0.95390  0.59230  0.25400  1.0000
  C   C240      1.0  0.45390  0.90770  0.74600  1.0000
  H   H129      1.0  0.52560  0.07210  0.72850  1.0000
  H   H130      1.0  0.02560  0.42790  0.27150  1.0000
  H   H131      1.0  0.97440  0.57210  0.27150  1.0000
  H   H132      1.0  0.47440  0.92790  0.72850  1.0000
  C   C241      1.0  0.53270  0.12730  0.81930  1.0000
  C   C242      1.0  0.03270  0.37270  0.18070  1.0000
  C   C243      1.0  0.96730  0.62730  0.18070  1.0000
  C   C244      1.0  0.46730  0.87270  0.81930  1.0000
  H   H133      1.0  0.50360  0.12910  0.85540  1.0000
  H   H134      1.0  0.00360  0.37090  0.14460  1.0000
  H   H135      1.0  0.99640  0.62910  0.14460  1.0000
  H   H136      1.0  0.49640  0.87090  0.85540  1.0000
  C   C245      1.0  0.60850  0.05160  0.63770  1.0000
  C   C246      1.0  0.10850  0.44840  0.36230  1.0000
  C   C247      1.0  0.89150  0.55160  0.36230  1.0000
  C   C248      1.0  0.39150  0.94840  0.63770  1.0000
  C   C249      1.0  0.64270  0.05200  0.53910  1.0000
  C   C250      1.0  0.14270  0.44800  0.46090  1.0000
  C   C251      1.0  0.85730  0.55200  0.46090  1.0000
  C   C252      1.0  0.35730  0.94800  0.53910  1.0000
  H   H137      1.0  0.65490  0.07620  0.51240  1.0000
  H   H138      1.0  0.15490  0.42380  0.48760  1.0000
  H   H139      1.0  0.84510  0.57620  0.48760  1.0000
  H   H140      1.0  0.34510  0.92380  0.51240  1.0000
  C   C253      1.0  0.65870  0.01940  0.48100  1.0000
  C   C254      1.0  0.15870  0.48060  0.51900  1.0000
  C   C255      1.0  0.84130  0.51940  0.51900  1.0000
  C   C256      1.0  0.34130  0.98060  0.48100  1.0000
  H   H141      1.0  0.68390  0.02100  0.42270  1.0000
  H   H142      1.0  0.18390  0.47900  0.57730  1.0000
  H   H143      1.0  0.81610  0.52100  0.57730  1.0000
  H   H144      1.0  0.31610  0.97900  0.42270  1.0000
  C   C257      1.0  0.63890  0.98240  0.50520  1.0000
  C   C258      1.0  0.13890  0.51760  0.49480  1.0000
  C   C259      1.0  0.86110  0.48240  0.49480  1.0000
  C   C260      1.0  0.36110  0.01760  0.50520  1.0000
  C   C261      1.0  0.60280  0.98090  0.59690  1.0000
  C   C262      1.0  0.10280  0.51910  0.40310  1.0000
  C   C263      1.0  0.89720  0.48090  0.40310  1.0000
  C   C264      1.0  0.39720  0.01910  0.59690  1.0000
  H   H145      1.0  0.58890  0.95680  0.61530  1.0000
  H   H146      1.0  0.08890  0.54320  0.38470  1.0000
  H   H147      1.0  0.91110  0.45680  0.38470  1.0000
  H   H148      1.0  0.41110  0.04320  0.61530  1.0000
  C   C265      1.0  0.58710  0.01460  0.66100  1.0000
  C   C266      1.0  0.08710  0.48540  0.33900  1.0000
  C   C267      1.0  0.91290  0.51460  0.33900  1.0000
  C   C268      1.0  0.41290  0.98540  0.66100  1.0000
  H   H149      1.0  0.56220  0.01320  0.72040  1.0000
  H   H150      1.0  0.06220  0.48680  0.27960  1.0000
  H   H151      1.0  0.93780  0.51320  0.27960  1.0000
  H   H152      1.0  0.43780  0.98680  0.72040  1.0000
  C   C269      1.0  0.54820  0.19740  0.90110  1.0000
  C   C270      1.0  0.04820  0.30260  0.09890  1.0000
  C   C271      1.0  0.95180  0.69740  0.09890  1.0000
  C   C272      1.0  0.45180  0.80260  0.90110  1.0000
  C   C273      1.0  0.65160  0.39970  0.23300  1.0000
  C   C274      1.0  0.15160  0.10030  0.76700  1.0000
  C   C275      1.0  0.84840  0.89970  0.76700  1.0000
  C   C276      1.0  0.34840  0.60030  0.23300  1.0000
  H   H153      1.0  0.68270  0.40240  0.23140  1.0000
  H   H154      1.0  0.18270  0.09760  0.76860  1.0000
  H   H155      1.0  0.81730  0.90240  0.76860  1.0000
  H   H156      1.0  0.31730  0.59760  0.23140  1.0000
  C   C277      1.0  0.32110  0.37820  0.15990  1.0000
  C   C278      1.0  0.82110  0.12180  0.84010  1.0000
  C   C279      1.0  0.17890  0.87820  0.84010  1.0000
  C   C280      1.0  0.67890  0.62180  0.15990  1.0000
  H   H157      1.0  0.29990  0.39840  0.16670  1.0000
  H   H158      1.0  0.79990  0.10160  0.83330  1.0000
  H   H159      1.0  0.20010  0.89840  0.83330  1.0000
  H   H160      1.0  0.70010  0.60160  0.16670  1.0000
