data_image0
_chemical_formula_structural       In2O2S2C2O2S2C2O2C2O2C2O2C2O2C2O2C2O2C2O2C2O2C2O2C2O2C34H32
_chemical_formula_sum              "In2 O24 S4 C56 H32"
_cell_length_a       7.2971
_cell_length_b       12.0993
_cell_length_c       21.0277
_cell_angle_alpha    78.691
_cell_angle_beta     85.139
_cell_angle_gamma    84.475

_space_group_name_H-M_alt    "P 1"
_space_group_IT_number       1

loop_
  _space_group_symop_operation_xyz
  'x, y, z'

loop_
  _atom_site_type_symbol
  _atom_site_label
  _atom_site_symmetry_multiplicity
  _atom_site_fract_x
  _atom_site_fract_y
  _atom_site_fract_z
  _atom_site_occupancy
  In  In1       1.0  0.59933  0.41007  0.28215  1.0000
  In  In2       1.0  0.40067  0.58993  0.71785  1.0000
  O   O1        1.0  0.32191  0.46566  0.31474  1.0000
  O   O2        1.0  0.67809  0.53434  0.68526  1.0000
  S   S1        1.0  0.78091  0.74033  0.51695  1.0000
  S   S2        1.0  0.21909  0.25967  0.48305  1.0000
  C   C1        1.0  0.37190  0.51354  0.35818  1.0000
  C   C2        1.0  0.62810  0.48646  0.64182  1.0000
  O   O3        1.0  0.53972  0.51582  0.36538  1.0000
  O   O4        1.0  0.46028  0.48418  0.63462  1.0000
  S   S3        1.0  0.30534  0.89885  0.05872  1.0000
  S   S4        1.0  0.69466  0.10115  0.94128  1.0000
  C   C3        1.0  0.22550  0.56715  0.39942  1.0000
  C   C4        1.0  0.77450  0.43285  0.60058  1.0000
  O   O5        1.0  0.61592  0.68249  0.52451  1.0000
  O   O6        1.0  0.38408  0.31751  0.47549  1.0000
  C   C5        1.0  0.27400  0.61266  0.45102  1.0000
  C   C6        1.0  0.72600  0.38734  0.54898  1.0000
  O   O7        1.0  0.85887  0.76188  0.57333  1.0000
  O   O8        1.0  0.14113  0.23812  0.42667  1.0000
  C   C7        1.0  0.13770  0.66423  0.48797  1.0000
  C   C8        1.0  0.86230  0.33577  0.51203  1.0000
  O   O9        1.0  0.48460  0.22737  0.32432  1.0000
  O   O10       1.0  0.51540  0.77263  0.67568  1.0000
  C   C9        1.0  0.95490  0.66896  0.47281  1.0000
  C   C10       1.0  0.04510  0.33104  0.52719  1.0000
  O   O11       1.0  0.74260  0.27551  0.35213  1.0000
  O   O12       1.0  0.25740  0.72449  0.64787  1.0000
  C   C11       1.0  0.90600  0.62156  0.42262  1.0000
  C   C12       1.0  0.09400  0.37844  0.57738  1.0000
  O   O13       1.0  0.87153  0.48963  0.26345  1.0000
  O   O14       1.0  0.12847  0.51037  0.73655  1.0000
  C   C13       1.0  0.04270  0.57045  0.38589  1.0000
  C   C14       1.0  0.95730  0.42955  0.61411  1.0000
  O   O15       1.0  0.63557  0.57834  0.21254  1.0000
  O   O16       1.0  0.36443  0.42166  0.78746  1.0000
  C   C15       1.0  0.73650  0.87308  0.46467  1.0000
  C   C16       1.0  0.26350  0.12692  0.53533  1.0000
  O   O17       1.0  0.20330  0.00683  0.04299  1.0000
  O   O18       1.0  0.79670  0.99317  0.95701  1.0000
  C   C17       1.0  0.56300  0.90470  0.44246  1.0000
  C   C18       1.0  0.43700  0.09530  0.55754  1.0000
  O   O19       1.0  0.47724  0.89060  0.08792  1.0000
  O   O20       1.0  0.52276  0.10940  0.91208  1.0000
  C   C19       1.0  0.52780  0.01161  0.40620  1.0000
  C   C20       1.0  0.47220  0.98839  0.59380  1.0000
  O   O21       1.0  0.55240  0.63364  0.80628  1.0000
  O   O22       1.0  0.44760  0.36636  0.19372  1.0000
  C   C21       1.0  0.66520  0.08636  0.39272  1.0000
  C   C22       1.0  0.33480  0.91364  0.60728  1.0000
  O   O23       1.0  0.26140  0.68411  0.79119  1.0000
  O   O24       1.0  0.73860  0.31589  0.20881  1.0000
  C   C23       1.0  0.83950  0.05257  0.41445  1.0000
  C   C24       1.0  0.16050  0.94743  0.58555  1.0000
  C   C25       1.0  0.87560  0.94549  0.45031  1.0000
  C   C26       1.0  0.12440  0.05451  0.54969  1.0000
  C   C27       1.0  0.62690  0.20341  0.35390  1.0000
  C   C28       1.0  0.37310  0.79659  0.64610  1.0000
  C   C29       1.0  0.80440  0.57080  0.22222  1.0000
  C   C30       1.0  0.19560  0.42920  0.77778  1.0000
  C   C31       1.0  0.92920  0.65439  0.18436  1.0000
  C   C32       1.0  0.07080  0.34561  0.81564  1.0000
  C   C33       1.0  0.85390  0.74900  0.14310  1.0000
  C   C34       1.0  0.14610  0.25100  0.85690  1.0000
  C   C35       1.0  0.96770  0.82565  0.10561  1.0000
  C   C36       1.0  0.03230  0.17435  0.89439  1.0000
  C   C37       1.0  0.15790  0.80470  0.10953  1.0000
  C   C38       1.0  0.84210  0.19530  0.89047  1.0000
  C   C39       1.0  0.23420  0.71134  0.14991  1.0000
  C   C40       1.0  0.76580  0.28866  0.85009  1.0000
  C   C41       1.0  0.11740  0.63599  0.18813  1.0000
  C   C42       1.0  0.88260  0.36401  0.81187  1.0000
  C   C43       1.0  0.34170  0.84067  0.98732  1.0000
  C   C44       1.0  0.65830  0.15933  0.01268  1.0000
  C   C45       1.0  0.50930  0.78580  0.97249  1.0000
  C   C46       1.0  0.49070  0.21420  0.02751  1.0000
  C   C47       1.0  0.52970  0.73700  0.91751  1.0000
  C   C48       1.0  0.47030  0.26300  0.08249  1.0000
  C   C49       1.0  0.38490  0.74191  0.87955  1.0000
  C   C50       1.0  0.61510  0.25809  0.12045  1.0000
  C   C51       1.0  0.21860  0.79990  0.89393  1.0000
  C   C52       1.0  0.78140  0.20010  0.10607  1.0000
  C   C53       1.0  0.19720  0.85010  0.94794  1.0000
  C   C54       1.0  0.80280  0.14990  0.05206  1.0000
  C   C55       1.0  0.40180  0.68255  0.82199  1.0000
  C   C56       1.0  0.59820  0.31745  0.17801  1.0000
  H   H1        1.0  0.40240  0.60040  0.46580  1.0000
  H   H2        1.0  0.59760  0.39960  0.53420  1.0000
  H   H3        1.0  0.72340  0.75690  0.13860  1.0000
  H   H4        1.0  0.27660  0.24310  0.86140  1.0000
  H   H5        1.0  0.17800  0.56330  0.21390  1.0000
  H   H6        1.0  0.82200  0.43670  0.78610  1.0000
  H   H7        1.0  0.92280  0.89670  0.07730  1.0000
  H   H8        1.0  0.07720  0.10330  0.92270  1.0000
  H   H9        1.0  0.01080  0.53320  0.35100  1.0000
  H   H10       1.0  0.98920  0.46680  0.64900  1.0000
  H   H11       1.0  0.99030  0.91550  0.46580  1.0000
  H   H12       1.0  0.00970  0.08450  0.53420  1.0000
  H   H13       1.0  0.40850  0.03980  0.39300  1.0000
  H   H14       1.0  0.59150  0.96020  0.60700  1.0000
  H   H15       1.0  0.94690  0.10500  0.40570  1.0000
  H   H16       1.0  0.05310  0.89500  0.59430  1.0000
  H   H17       1.0  0.78290  0.61450  0.41540  1.0000
  H   H18       1.0  0.21710  0.38550  0.58460  1.0000
  H   H19       1.0  0.17430  0.69880  0.52060  1.0000
  H   H20       1.0  0.82570  0.30120  0.47940  1.0000
  H   H21       1.0  0.36510  0.69860  0.15420  1.0000
  H   H22       1.0  0.63490  0.30140  0.84580  1.0000
  H   H23       1.0  0.45520  0.85740  0.45470  1.0000
  H   H24       1.0  0.54480  0.14260  0.54530  1.0000
  H   H25       1.0  0.60680  0.78760  0.00020  1.0000
  H   H26       1.0  0.39320  0.21240  0.99980  1.0000
  H   H27       1.0  0.07280  0.88680  0.95990  1.0000
  H   H28       1.0  0.92720  0.11320  0.04010  1.0000
  H   H29       1.0  0.11650  0.80220  0.86260  1.0000
  H   H30       1.0  0.88350  0.19780  0.13740  1.0000
  H   H31       1.0  0.64290  0.68180  0.90800  1.0000
  H   H32       1.0  0.35710  0.31820  0.09200  1.0000
