data_image0
_chemical_formula_structural       Cu2O24N6C4H4C10H2C4H2C2H2C4H2C10H4C6H4C10H2C4H2
_chemical_formula_sum              "Cu2 O24 N6 C54 H24"
_cell_length_a       9.864
_cell_length_b       13.216
_cell_length_c       13.312
_cell_angle_alpha    113.74
_cell_angle_beta     98.29
_cell_angle_gamma    92.58

_space_group_name_H-M_alt    "P 1"
_space_group_IT_number       1

loop_
  _space_group_symop_operation_xyz
  'x, y, z'

loop_
  _atom_site_type_symbol
  _atom_site_label
  _atom_site_symmetry_multiplicity
  _atom_site_fract_x
  _atom_site_fract_y
  _atom_site_fract_z
  _atom_site_occupancy
  Cu  Cu1       1.0  0.62324  0.05255  0.53632  1.0000
  Cu  Cu2       1.0  0.37676  0.94745  0.46368  1.0000
  O   O1        1.0  0.32020  0.09313  0.55762  1.0000
  O   O2        1.0  0.67980  0.90687  0.44238  1.0000
  O   O3        1.0  0.53350  0.18223  0.61970  1.0000
  O   O4        1.0  0.46650  0.81777  0.38030  1.0000
  O   O5        1.0  0.45740  0.48140  0.69440  1.0000
  O   O6        1.0  0.54260  0.51860  0.30560  1.0000
  O   O7        1.0  0.43790  0.24010  0.85630  1.0000
  O   O8        1.0  0.56210  0.75990  0.14370  1.0000
  O   O9        1.0  0.02450  0.79810  0.10290  1.0000
  O   O10       1.0  0.97550  0.20190  0.89710  1.0000
  O   O11       1.0  0.03380  0.54040  0.24480  1.0000
  O   O12       1.0  0.96620  0.45960  0.75520  1.0000
  O   O13       1.0  0.96680  0.80600  0.34560  1.0000
  O   O14       1.0  0.03320  0.19400  0.65440  1.0000
  O   O15       1.0  0.18000  0.86920  0.43630  1.0000
  O   O16       1.0  0.82000  0.13080  0.56370  1.0000
  O   O17       1.0  0.36420  0.99050  0.33704  1.0000
  O   O18       1.0  0.63580  0.00950  0.66296  1.0000
  O   O19       1.0  0.57780  0.07980  0.40104  1.0000
  O   O20       1.0  0.42220  0.92020  0.59896  1.0000
  O   O21       1.0  0.39990  0.90800  0.02770  1.0000
  O   O22       1.0  0.60010  0.09200  0.97230  1.0000
  O   O23       1.0  0.26490  0.20730  0.29450  1.0000
  O   O24       1.0  0.73510  0.79270  0.70550  1.0000
  N   N1        1.0  0.44980  0.35950  0.77540  1.0000
  N   N2        1.0  0.55020  0.64050  0.22460  1.0000
  N   N3        1.0  0.03850  0.66090  0.16350  1.0000
  N   N4        1.0  0.96150  0.33910  0.83650  1.0000
  N   N5        1.0  0.32970  0.05600  0.16430  1.0000
  N   N6        1.0  0.67030  0.94400  0.83570  1.0000
  C   C1        1.0  0.40580  0.17750  0.61490  1.0000
  C   C2        1.0  0.59420  0.82250  0.38510  1.0000
  C   C3        1.0  0.34670  0.28290  0.68250  1.0000
  C   C4        1.0  0.65330  0.71710  0.31750  1.0000
  H   H1        1.0  0.31299  0.31988  0.63370  1.0000
  H   H2        1.0  0.68701  0.68012  0.36630  1.0000
  H   H3        1.0  0.26727  0.26336  0.71162  1.0000
  H   H4        1.0  0.73273  0.73664  0.28838  1.0000
  C   C5        1.0  0.50440  0.45540  0.76870  1.0000
  C   C6        1.0  0.49560  0.54460  0.23130  1.0000
  C   C7        1.0  0.49540  0.32360  0.85750  1.0000
  C   C8        1.0  0.50460  0.67640  0.14250  1.0000
  C   C9        1.0  0.62190  0.52260  0.85730  1.0000
  C   C10       1.0  0.37810  0.47740  0.14270  1.0000
  C   C11       1.0  0.61640  0.38890  0.94230  1.0000
  C   C12       1.0  0.38360  0.61110  0.05770  1.0000
  C   C13       1.0  0.67920  0.61920  0.85720  1.0000
  C   C14       1.0  0.32080  0.38080  0.14280  1.0000
  H   H5        1.0  0.64093  0.64428  0.80280  1.0000
  H   H6        1.0  0.35907  0.35572  0.19720  1.0000
  C   C15       1.0  0.67720  0.48520  0.93790  1.0000
  C   C16       1.0  0.32280  0.51480  0.06210  1.0000
  C   C17       1.0  0.67140  0.35490  0.02230  1.0000
  C   C18       1.0  0.32860  0.64510  0.97770  1.0000
  H   H7        1.0  0.62879  0.29076  0.02568  1.0000
  H   H8        1.0  0.37121  0.70924  0.97432  1.0000
  C   C19       1.0  0.79400  0.68020  0.93740  1.0000
  C   C20       1.0  0.20600  0.31980  0.06260  1.0000
  H   H9        1.0  0.83134  0.74829  0.93859  1.0000
  H   H10       1.0  0.16866  0.25171  0.06141  1.0000
  C   C21       1.0  0.79580  0.54530  0.01630  1.0000
  C   C22       1.0  0.20420  0.45470  0.98370  1.0000
  C   C23       1.0  0.79080  0.41460  0.09950  1.0000
  C   C24       1.0  0.20920  0.58540  0.90050  1.0000
  H   H11       1.0  0.82871  0.39052  0.15475  1.0000
  H   H12       1.0  0.17129  0.60948  0.84525  1.0000
  C   C25       1.0  0.85320  0.64430  0.01350  1.0000
  C   C26       1.0  0.14680  0.35570  0.98650  1.0000
  C   C27       1.0  0.85230  0.50740  0.09520  1.0000
  C   C28       1.0  0.14770  0.49260  0.90480  1.0000
  C   C29       1.0  0.97770  0.70780  0.09640  1.0000
  C   C30       1.0  0.02230  0.29220  0.90360  1.0000
  C   C31       1.0  0.98120  0.56860  0.17430  1.0000
  C   C32       1.0  0.01880  0.43140  0.82570  1.0000
  C   C33       1.0  0.15160  0.72910  0.25300  1.0000
  C   C34       1.0  0.84840  0.27090  0.74700  1.0000
  H   H13       1.0  0.20842  0.77355  0.22642  1.0000
  H   H14       1.0  0.79158  0.22645  0.77358  1.0000
  H   H15       1.0  0.21112  0.68051  0.27509  1.0000
  H   H16       1.0  0.78888  0.31949  0.72491  1.0000
  C   C35       1.0  0.09340  0.80680  0.35360  1.0000
  C   C36       1.0  0.90660  0.19320  0.64640  1.0000
  C   C37       1.0  0.46640  0.04720  0.33250  1.0000
  C   C38       1.0  0.53360  0.95280  0.66750  1.0000
  C   C39       1.0  0.46460  0.07760  0.23390  1.0000
  C   C40       1.0  0.53540  0.92240  0.76610  1.0000
  H   H17       1.0  0.49759  0.15768  0.26210  1.0000
  H   H18       1.0  0.50241  0.84232  0.73790  1.0000
  H   H19       1.0  0.52988  0.03508  0.18755  1.0000
  H   H20       1.0  0.47012  0.96492  0.81245  1.0000
  C   C41       1.0  0.30880  0.96420  0.06010  1.0000
  C   C42       1.0  0.69120  0.03580  0.93990  1.0000
  C   C43       1.0  0.23470  0.12800  0.20490  1.0000
  C   C44       1.0  0.76530  0.87200  0.79510  1.0000
  C   C45       1.0  0.16770  0.94100  0.99370  1.0000
  C   C46       1.0  0.83230  0.05900  0.00630  1.0000
  C   C47       1.0  0.09480  0.10500  0.13530  1.0000
  C   C48       1.0  0.90520  0.89500  0.86470  1.0000
  C   C49       1.0  0.13740  0.85000  0.89250  1.0000
  C   C50       1.0  0.86260  0.15000  0.10750  1.0000
  H   H21       1.0  0.20623  0.80299  0.86592  1.0000
  H   H22       1.0  0.79377  0.19701  0.13408  1.0000
  C   C51       1.0  0.06660  0.01170  0.03290  1.0000
  C   C52       1.0  0.93340  0.98830  0.96710  1.0000
  C   C53       1.0  0.99520  0.17280  0.17070  1.0000
  C   C54       1.0  0.00480  0.82720  0.82930  1.0000
  H   H23       1.0  0.01639  0.23659  0.23959  1.0000
  H   H24       1.0  0.98361  0.76341  0.76041  1.0000
