data_image0
_chemical_formula_structural       Ni4O32C8H8C8H8
_chemical_formula_sum              "Ni4 O32 C16 H16"
_cell_length_a       7.8376
_cell_length_b       22.0576
_cell_length_c       8.5034
_cell_angle_alpha    90
_cell_angle_beta     90
_cell_angle_gamma    90

_space_group_name_H-M_alt    "P 1"
_space_group_IT_number       1

loop_
  _space_group_symop_operation_xyz
  'x, y, z'

loop_
  _atom_site_type_symbol
  _atom_site_label
  _atom_site_symmetry_multiplicity
  _atom_site_fract_x
  _atom_site_fract_y
  _atom_site_fract_z
  _atom_site_occupancy
  Ni  Ni1       1.0  0.00000  0.00000  0.00000  1.0000
  Ni  Ni2       1.0  0.50000  0.50000  0.00000  1.0000
  Ni  Ni3       1.0  0.00000  0.50000  0.50000  1.0000
  Ni  Ni4       1.0  0.50000  0.00000  0.50000  1.0000
  O   O1        1.0  0.07160  0.97473  0.22393  1.0000
  O   O2        1.0  0.42840  0.52527  0.22393  1.0000
  O   O3        1.0  0.92840  0.47473  0.27607  1.0000
  O   O4        1.0  0.57160  0.02527  0.27607  1.0000
  O   O5        1.0  0.92840  0.02527  0.77607  1.0000
  O   O6        1.0  0.57160  0.47473  0.77607  1.0000
  O   O7        1.0  0.07160  0.52527  0.72393  1.0000
  O   O8        1.0  0.42840  0.97473  0.72393  1.0000
  O   O9        1.0  0.25300  0.98321  0.42279  1.0000
  O   O10       1.0  0.24700  0.51679  0.42279  1.0000
  O   O11       1.0  0.74700  0.48321  0.07721  1.0000
  O   O12       1.0  0.75300  0.01679  0.07721  1.0000
  O   O13       1.0  0.74700  0.01679  0.57721  1.0000
  O   O14       1.0  0.75300  0.48321  0.57721  1.0000
  O   O15       1.0  0.25300  0.51679  0.92279  1.0000
  O   O16       1.0  0.24700  0.98321  0.92279  1.0000
  O   O17       1.0  0.04656  0.08877  0.06603  1.0000
  O   O18       1.0  0.45344  0.41123  0.06603  1.0000
  O   O19       1.0  0.95344  0.58877  0.43397  1.0000
  O   O20       1.0  0.54656  0.91123  0.43397  1.0000
  O   O21       1.0  0.95344  0.91123  0.93397  1.0000
  O   O22       1.0  0.54656  0.58877  0.93397  1.0000
  O   O23       1.0  0.04656  0.41123  0.56603  1.0000
  O   O24       1.0  0.45344  0.08877  0.56603  1.0000
  O   O25       1.0  0.08230  0.18647  0.02473  1.0000
  O   O26       1.0  0.41770  0.31353  0.02473  1.0000
  O   O27       1.0  0.91770  0.68647  0.47527  1.0000
  O   O28       1.0  0.58230  0.81353  0.47527  1.0000
  O   O29       1.0  0.91770  0.81353  0.97527  1.0000
  O   O30       1.0  0.58230  0.68647  0.97527  1.0000
  O   O31       1.0  0.08230  0.31353  0.52473  1.0000
  O   O32       1.0  0.41770  0.18647  0.52473  1.0000
  C   C1        1.0  0.20080  0.99669  0.28746  1.0000
  C   C2        1.0  0.29920  0.50331  0.28746  1.0000
  C   C3        1.0  0.79920  0.49669  0.21254  1.0000
  C   C4        1.0  0.70080  0.00331  0.21254  1.0000
  C   C5        1.0  0.79920  0.00331  0.71254  1.0000
  C   C6        1.0  0.70080  0.49669  0.71254  1.0000
  C   C7        1.0  0.20080  0.50331  0.78746  1.0000
  C   C8        1.0  0.29920  0.99669  0.78746  1.0000
  H   H1        1.0  0.26310  0.02510  0.23070  1.0000
  H   H2        1.0  0.23690  0.47490  0.23070  1.0000
  H   H3        1.0  0.73690  0.52510  0.26930  1.0000
  H   H4        1.0  0.76310  0.97490  0.26930  1.0000
  H   H5        1.0  0.73690  0.97490  0.76930  1.0000
  H   H6        1.0  0.76310  0.52510  0.76930  1.0000
  H   H7        1.0  0.26310  0.47490  0.73070  1.0000
  H   H8        1.0  0.23690  0.02510  0.73070  1.0000
  C   C9        1.0  0.08680  0.13275  0.98420  1.0000
  C   C10       1.0  0.41320  0.36725  0.98420  1.0000
  C   C11       1.0  0.91320  0.63275  0.51580  1.0000
  C   C12       1.0  0.58680  0.86725  0.51580  1.0000
  C   C13       1.0  0.91320  0.86725  0.01580  1.0000
  C   C14       1.0  0.58680  0.63275  0.01580  1.0000
  C   C15       1.0  0.08680  0.36725  0.48420  1.0000
  C   C16       1.0  0.41320  0.13275  0.48420  1.0000
  H   H9        1.0  0.12400  0.12460  0.88250  1.0000
  H   H10       1.0  0.37600  0.37540  0.88250  1.0000
  H   H11       1.0  0.87600  0.62460  0.61750  1.0000
  H   H12       1.0  0.62400  0.87540  0.61750  1.0000
  H   H13       1.0  0.87600  0.87540  0.11750  1.0000
  H   H14       1.0  0.62400  0.62460  0.11750  1.0000
  H   H15       1.0  0.12400  0.37540  0.38250  1.0000
  H   H16       1.0  0.37600  0.12460  0.38250  1.0000
