data_image0
_chemical_formula_structural       Ni4O32C8H8C8H8
_chemical_formula_sum              "Ni4 O32 C16 H16"
_cell_length_a       7.8046
_cell_length_b       22.0464
_cell_length_c       8.4805
_cell_angle_alpha    90
_cell_angle_beta     90
_cell_angle_gamma    90

_space_group_name_H-M_alt    "P 1"
_space_group_IT_number       1

loop_
  _space_group_symop_operation_xyz
  'x, y, z'

loop_
  _atom_site_type_symbol
  _atom_site_label
  _atom_site_symmetry_multiplicity
  _atom_site_fract_x
  _atom_site_fract_y
  _atom_site_fract_z
  _atom_site_occupancy
  Ni  Ni1       1.0  0.00000  0.00000  0.00000  1.0000
  Ni  Ni2       1.0  0.50000  0.50000  0.00000  1.0000
  Ni  Ni3       1.0  0.00000  0.50000  0.50000  1.0000
  Ni  Ni4       1.0  0.50000  0.00000  0.50000  1.0000
  O   O1        1.0  0.06995  0.97426  0.22427  1.0000
  O   O2        1.0  0.43005  0.52574  0.22427  1.0000
  O   O3        1.0  0.93005  0.47426  0.27573  1.0000
  O   O4        1.0  0.56995  0.02574  0.27573  1.0000
  O   O5        1.0  0.93005  0.02574  0.77573  1.0000
  O   O6        1.0  0.56995  0.47426  0.77573  1.0000
  O   O7        1.0  0.06995  0.52574  0.72427  1.0000
  O   O8        1.0  0.43005  0.97426  0.72427  1.0000
  O   O9        1.0  0.25220  0.98314  0.42385  1.0000
  O   O10       1.0  0.24780  0.51686  0.42385  1.0000
  O   O11       1.0  0.74780  0.48314  0.07615  1.0000
  O   O12       1.0  0.75220  0.01686  0.07615  1.0000
  O   O13       1.0  0.74780  0.01686  0.57615  1.0000
  O   O14       1.0  0.75220  0.48314  0.57615  1.0000
  O   O15       1.0  0.25220  0.51686  0.92385  1.0000
  O   O16       1.0  0.24780  0.98314  0.92385  1.0000
  O   O17       1.0  0.04717  0.08847  0.06706  1.0000
  O   O18       1.0  0.45283  0.41153  0.06706  1.0000
  O   O19       1.0  0.95283  0.58847  0.43294  1.0000
  O   O20       1.0  0.54717  0.91153  0.43294  1.0000
  O   O21       1.0  0.95283  0.91153  0.93294  1.0000
  O   O22       1.0  0.54717  0.58847  0.93294  1.0000
  O   O23       1.0  0.04717  0.41153  0.56706  1.0000
  O   O24       1.0  0.45283  0.08847  0.56706  1.0000
  O   O25       1.0  0.08230  0.18676  0.02558  1.0000
  O   O26       1.0  0.41770  0.31324  0.02558  1.0000
  O   O27       1.0  0.91770  0.68676  0.47442  1.0000
  O   O28       1.0  0.58230  0.81324  0.47442  1.0000
  O   O29       1.0  0.91770  0.81324  0.97442  1.0000
  O   O30       1.0  0.58230  0.68676  0.97442  1.0000
  O   O31       1.0  0.08230  0.31324  0.52558  1.0000
  O   O32       1.0  0.41770  0.18676  0.52558  1.0000
  C   C1        1.0  0.19997  0.99663  0.28787  1.0000
  C   C2        1.0  0.30003  0.50337  0.28787  1.0000
  C   C3        1.0  0.80003  0.49663  0.21213  1.0000
  C   C4        1.0  0.69997  0.00337  0.21213  1.0000
  C   C5        1.0  0.80003  0.00337  0.71213  1.0000
  C   C6        1.0  0.69997  0.49663  0.71213  1.0000
  C   C7        1.0  0.19997  0.50337  0.78787  1.0000
  C   C8        1.0  0.30003  0.99663  0.78787  1.0000
  H   H1        1.0  0.26360  0.02580  0.22970  1.0000
  H   H2        1.0  0.23640  0.47420  0.22970  1.0000
  H   H3        1.0  0.73640  0.52580  0.27030  1.0000
  H   H4        1.0  0.76360  0.97420  0.27030  1.0000
  H   H5        1.0  0.73640  0.97420  0.77030  1.0000
  H   H6        1.0  0.76360  0.52580  0.77030  1.0000
  H   H7        1.0  0.26360  0.47420  0.72970  1.0000
  H   H8        1.0  0.23640  0.02580  0.72970  1.0000
  C   C9        1.0  0.08750  0.13289  0.98389  1.0000
  C   C10       1.0  0.41250  0.36711  0.98389  1.0000
  C   C11       1.0  0.91250  0.63289  0.51611  1.0000
  C   C12       1.0  0.58750  0.86711  0.51611  1.0000
  C   C13       1.0  0.91250  0.86711  0.01611  1.0000
  C   C14       1.0  0.58750  0.63289  0.01611  1.0000
  C   C15       1.0  0.08750  0.36711  0.48389  1.0000
  C   C16       1.0  0.41250  0.13289  0.48389  1.0000
  H   H9        1.0  0.12530  0.12470  0.87960  1.0000
  H   H10       1.0  0.37470  0.37530  0.87960  1.0000
  H   H11       1.0  0.87470  0.62470  0.62040  1.0000
  H   H12       1.0  0.62530  0.87530  0.62040  1.0000
  H   H13       1.0  0.87470  0.87530  0.12040  1.0000
  H   H14       1.0  0.62530  0.62470  0.12040  1.0000
  H   H15       1.0  0.12530  0.37530  0.37960  1.0000
  H   H16       1.0  0.37470  0.12470  0.37960  1.0000
