data_image0
_chemical_formula_structural       Ni4O32C8H8C8H8
_chemical_formula_sum              "Ni4 O32 C16 H16"
_cell_length_a       7.8494
_cell_length_b       22.0641
_cell_length_c       8.5078
_cell_angle_alpha    90
_cell_angle_beta     90
_cell_angle_gamma    90

_space_group_name_H-M_alt    "P 1"
_space_group_IT_number       1

loop_
  _space_group_symop_operation_xyz
  'x, y, z'

loop_
  _atom_site_type_symbol
  _atom_site_label
  _atom_site_symmetry_multiplicity
  _atom_site_fract_x
  _atom_site_fract_y
  _atom_site_fract_z
  _atom_site_occupancy
  Ni  Ni1       1.0  0.00000  0.00000  0.00000  1.0000
  Ni  Ni2       1.0  0.50000  0.50000  0.00000  1.0000
  Ni  Ni3       1.0  0.00000  0.50000  0.50000  1.0000
  Ni  Ni4       1.0  0.50000  0.00000  0.50000  1.0000
  O   O1        1.0  0.07201  0.97492  0.22400  1.0000
  O   O2        1.0  0.42799  0.52508  0.22400  1.0000
  O   O3        1.0  0.92799  0.47492  0.27600  1.0000
  O   O4        1.0  0.57201  0.02508  0.27600  1.0000
  O   O5        1.0  0.92799  0.02508  0.77600  1.0000
  O   O6        1.0  0.57201  0.47492  0.77600  1.0000
  O   O7        1.0  0.07201  0.52508  0.72400  1.0000
  O   O8        1.0  0.42799  0.97492  0.72400  1.0000
  O   O9        1.0  0.25345  0.98324  0.42237  1.0000
  O   O10       1.0  0.24655  0.51676  0.42237  1.0000
  O   O11       1.0  0.74655  0.48324  0.07763  1.0000
  O   O12       1.0  0.75345  0.01676  0.07763  1.0000
  O   O13       1.0  0.74655  0.01676  0.57763  1.0000
  O   O14       1.0  0.75345  0.48324  0.57763  1.0000
  O   O15       1.0  0.25345  0.51676  0.92237  1.0000
  O   O16       1.0  0.24655  0.98324  0.92237  1.0000
  O   O17       1.0  0.04645  0.08882  0.06579  1.0000
  O   O18       1.0  0.45355  0.41118  0.06579  1.0000
  O   O19       1.0  0.95355  0.58882  0.43421  1.0000
  O   O20       1.0  0.54645  0.91118  0.43421  1.0000
  O   O21       1.0  0.95355  0.91118  0.93421  1.0000
  O   O22       1.0  0.54645  0.58882  0.93421  1.0000
  O   O23       1.0  0.04645  0.41118  0.56579  1.0000
  O   O24       1.0  0.45355  0.08882  0.56579  1.0000
  O   O25       1.0  0.08200  0.18633  0.02456  1.0000
  O   O26       1.0  0.41800  0.31367  0.02456  1.0000
  O   O27       1.0  0.91800  0.68633  0.47544  1.0000
  O   O28       1.0  0.58200  0.81367  0.47544  1.0000
  O   O29       1.0  0.91800  0.81367  0.97544  1.0000
  O   O30       1.0  0.58200  0.68633  0.97544  1.0000
  O   O31       1.0  0.08200  0.31367  0.52456  1.0000
  O   O32       1.0  0.41800  0.18633  0.52456  1.0000
  C   C1        1.0  0.20100  0.99670  0.28731  1.0000
  C   C2        1.0  0.29900  0.50330  0.28731  1.0000
  C   C3        1.0  0.79900  0.49670  0.21269  1.0000
  C   C4        1.0  0.70100  0.00330  0.21269  1.0000
  C   C5        1.0  0.79900  0.00330  0.71269  1.0000
  C   C6        1.0  0.70100  0.49670  0.71269  1.0000
  C   C7        1.0  0.20100  0.50330  0.78731  1.0000
  C   C8        1.0  0.29900  0.99670  0.78731  1.0000
  H   H1        1.0  0.26340  0.02510  0.23040  1.0000
  H   H2        1.0  0.23660  0.47490  0.23040  1.0000
  H   H3        1.0  0.73660  0.52510  0.26960  1.0000
  H   H4        1.0  0.76340  0.97490  0.26960  1.0000
  H   H5        1.0  0.73660  0.97490  0.76960  1.0000
  H   H6        1.0  0.76340  0.52510  0.76960  1.0000
  H   H7        1.0  0.26340  0.47490  0.73040  1.0000
  H   H8        1.0  0.23660  0.02510  0.73040  1.0000
  C   C9        1.0  0.08650  0.13270  0.98430  1.0000
  C   C10       1.0  0.41350  0.36730  0.98430  1.0000
  C   C11       1.0  0.91350  0.63270  0.51570  1.0000
  C   C12       1.0  0.58650  0.86730  0.51570  1.0000
  C   C13       1.0  0.91350  0.86730  0.01570  1.0000
  C   C14       1.0  0.58650  0.63270  0.01570  1.0000
  C   C15       1.0  0.08650  0.36730  0.48430  1.0000
  C   C16       1.0  0.41350  0.13270  0.48430  1.0000
  H   H9        1.0  0.12370  0.12460  0.88260  1.0000
  H   H10       1.0  0.37630  0.37540  0.88260  1.0000
  H   H11       1.0  0.87630  0.62460  0.61740  1.0000
  H   H12       1.0  0.62370  0.87540  0.61740  1.0000
  H   H13       1.0  0.87630  0.87540  0.11740  1.0000
  H   H14       1.0  0.62370  0.62460  0.11740  1.0000
  H   H15       1.0  0.12370  0.37540  0.38260  1.0000
  H   H16       1.0  0.37630  0.12460  0.38260  1.0000
