data_image0
_chemical_formula_structural       Ni4O32C8H8C8H8
_chemical_formula_sum              "Ni4 O32 C16 H16"
_cell_length_a       7.8166
_cell_length_b       22.0478
_cell_length_c       8.4882
_cell_angle_alpha    90
_cell_angle_beta     90
_cell_angle_gamma    90

_space_group_name_H-M_alt    "P 1"
_space_group_IT_number       1

loop_
  _space_group_symop_operation_xyz
  'x, y, z'

loop_
  _atom_site_type_symbol
  _atom_site_label
  _atom_site_symmetry_multiplicity
  _atom_site_fract_x
  _atom_site_fract_y
  _atom_site_fract_z
  _atom_site_occupancy
  Ni  Ni1       1.0  0.00000  0.00000  0.00000  1.0000
  Ni  Ni2       1.0  0.50000  0.50000  0.00000  1.0000
  Ni  Ni3       1.0  0.00000  0.50000  0.50000  1.0000
  Ni  Ni4       1.0  0.50000  0.00000  0.50000  1.0000
  O   O1        1.0  0.07043  0.97443  0.22421  1.0000
  O   O2        1.0  0.42957  0.52557  0.22421  1.0000
  O   O3        1.0  0.92957  0.47443  0.27579  1.0000
  O   O4        1.0  0.57043  0.02557  0.27579  1.0000
  O   O5        1.0  0.92957  0.02557  0.77579  1.0000
  O   O6        1.0  0.57043  0.47443  0.77579  1.0000
  O   O7        1.0  0.07043  0.52557  0.72421  1.0000
  O   O8        1.0  0.42957  0.97443  0.72421  1.0000
  O   O9        1.0  0.25246  0.98311  0.42353  1.0000
  O   O10       1.0  0.24754  0.51689  0.42353  1.0000
  O   O11       1.0  0.74754  0.48311  0.07647  1.0000
  O   O12       1.0  0.75246  0.01689  0.07647  1.0000
  O   O13       1.0  0.74754  0.01689  0.57647  1.0000
  O   O14       1.0  0.75246  0.48311  0.57647  1.0000
  O   O15       1.0  0.25246  0.51689  0.92353  1.0000
  O   O16       1.0  0.24754  0.98311  0.92353  1.0000
  O   O17       1.0  0.04697  0.08860  0.06676  1.0000
  O   O18       1.0  0.45303  0.41140  0.06676  1.0000
  O   O19       1.0  0.95303  0.58860  0.43324  1.0000
  O   O20       1.0  0.54697  0.91140  0.43324  1.0000
  O   O21       1.0  0.95303  0.91140  0.93324  1.0000
  O   O22       1.0  0.54697  0.58860  0.93324  1.0000
  O   O23       1.0  0.04697  0.41140  0.56676  1.0000
  O   O24       1.0  0.45303  0.08860  0.56676  1.0000
  O   O25       1.0  0.08240  0.18662  0.02530  1.0000
  O   O26       1.0  0.41760  0.31338  0.02530  1.0000
  O   O27       1.0  0.91760  0.68662  0.47470  1.0000
  O   O28       1.0  0.58240  0.81338  0.47470  1.0000
  O   O29       1.0  0.91760  0.81338  0.97470  1.0000
  O   O30       1.0  0.58240  0.68662  0.97470  1.0000
  O   O31       1.0  0.08240  0.31338  0.52530  1.0000
  O   O32       1.0  0.41760  0.18662  0.52530  1.0000
  C   C1        1.0  0.20029  0.99664  0.28767  1.0000
  C   C2        1.0  0.29971  0.50336  0.28767  1.0000
  C   C3        1.0  0.79971  0.49664  0.21233  1.0000
  C   C4        1.0  0.70029  0.00336  0.21233  1.0000
  C   C5        1.0  0.79971  0.00336  0.71233  1.0000
  C   C6        1.0  0.70029  0.49664  0.71233  1.0000
  C   C7        1.0  0.20029  0.50336  0.78767  1.0000
  C   C8        1.0  0.29971  0.99664  0.78767  1.0000
  H   H1        1.0  0.26330  0.02540  0.23010  1.0000
  H   H2        1.0  0.23670  0.47460  0.23010  1.0000
  H   H3        1.0  0.73670  0.52540  0.26990  1.0000
  H   H4        1.0  0.76330  0.97460  0.26990  1.0000
  H   H5        1.0  0.73670  0.97460  0.76990  1.0000
  H   H6        1.0  0.76330  0.52540  0.76990  1.0000
  H   H7        1.0  0.26330  0.47460  0.73010  1.0000
  H   H8        1.0  0.23670  0.02540  0.73010  1.0000
  C   C9        1.0  0.08740  0.13288  0.98395  1.0000
  C   C10       1.0  0.41260  0.36712  0.98395  1.0000
  C   C11       1.0  0.91260  0.63288  0.51605  1.0000
  C   C12       1.0  0.58740  0.86712  0.51605  1.0000
  C   C13       1.0  0.91260  0.86712  0.01605  1.0000
  C   C14       1.0  0.58740  0.63288  0.01605  1.0000
  C   C15       1.0  0.08740  0.36712  0.48395  1.0000
  C   C16       1.0  0.41260  0.13288  0.48395  1.0000
  H   H9        1.0  0.12510  0.12480  0.88090  1.0000
  H   H10       1.0  0.37490  0.37520  0.88090  1.0000
  H   H11       1.0  0.87490  0.62480  0.61910  1.0000
  H   H12       1.0  0.62510  0.87520  0.61910  1.0000
  H   H13       1.0  0.87490  0.87520  0.11910  1.0000
  H   H14       1.0  0.62510  0.62480  0.11910  1.0000
  H   H15       1.0  0.12510  0.37520  0.38090  1.0000
  H   H16       1.0  0.37490  0.12480  0.38090  1.0000
