data_image0
_chemical_formula_structural       Ni4O32C8H8C8H8
_chemical_formula_sum              "Ni4 O32 C16 H16"
_cell_length_a       7.7962
_cell_length_b       22.0461
_cell_length_c       8.4718
_cell_angle_alpha    90
_cell_angle_beta     90
_cell_angle_gamma    90

_space_group_name_H-M_alt    "P 1"
_space_group_IT_number       1

loop_
  _space_group_symop_operation_xyz
  'x, y, z'

loop_
  _atom_site_type_symbol
  _atom_site_label
  _atom_site_symmetry_multiplicity
  _atom_site_fract_x
  _atom_site_fract_y
  _atom_site_fract_z
  _atom_site_occupancy
  Ni  Ni1       1.0  0.00000  0.00000  0.00000  1.0000
  Ni  Ni2       1.0  0.50000  0.50000  0.00000  1.0000
  Ni  Ni3       1.0  0.00000  0.50000  0.50000  1.0000
  Ni  Ni4       1.0  0.50000  0.00000  0.50000  1.0000
  O   O1        1.0  0.06959  0.97414  0.22435  1.0000
  O   O2        1.0  0.43041  0.52586  0.22435  1.0000
  O   O3        1.0  0.93041  0.47414  0.27565  1.0000
  O   O4        1.0  0.56959  0.02586  0.27565  1.0000
  O   O5        1.0  0.93041  0.02586  0.77565  1.0000
  O   O6        1.0  0.56959  0.47414  0.77565  1.0000
  O   O7        1.0  0.06959  0.52586  0.72435  1.0000
  O   O8        1.0  0.43041  0.97414  0.72435  1.0000
  O   O9        1.0  0.25212  0.98309  0.42437  1.0000
  O   O10       1.0  0.24788  0.51691  0.42437  1.0000
  O   O11       1.0  0.74788  0.48309  0.07563  1.0000
  O   O12       1.0  0.75212  0.01691  0.07563  1.0000
  O   O13       1.0  0.74788  0.01691  0.57563  1.0000
  O   O14       1.0  0.75212  0.48309  0.57563  1.0000
  O   O15       1.0  0.25212  0.51691  0.92437  1.0000
  O   O16       1.0  0.24788  0.98309  0.92437  1.0000
  O   O17       1.0  0.04730  0.08843  0.06734  1.0000
  O   O18       1.0  0.45270  0.41157  0.06734  1.0000
  O   O19       1.0  0.95270  0.58843  0.43266  1.0000
  O   O20       1.0  0.54730  0.91157  0.43266  1.0000
  O   O21       1.0  0.95270  0.91157  0.93266  1.0000
  O   O22       1.0  0.54730  0.58843  0.93266  1.0000
  O   O23       1.0  0.04730  0.41157  0.56734  1.0000
  O   O24       1.0  0.45270  0.08843  0.56734  1.0000
  O   O25       1.0  0.08228  0.18691  0.02601  1.0000
  O   O26       1.0  0.41772  0.31309  0.02601  1.0000
  O   O27       1.0  0.91772  0.68691  0.47399  1.0000
  O   O28       1.0  0.58228  0.81309  0.47399  1.0000
  O   O29       1.0  0.91772  0.81309  0.97399  1.0000
  O   O30       1.0  0.58228  0.68691  0.97399  1.0000
  O   O31       1.0  0.08228  0.31309  0.52601  1.0000
  O   O32       1.0  0.41772  0.18691  0.52601  1.0000
  C   C1        1.0  0.19972  0.99657  0.28793  1.0000
  C   C2        1.0  0.30028  0.50343  0.28793  1.0000
  C   C3        1.0  0.80028  0.49657  0.21207  1.0000
  C   C4        1.0  0.69972  0.00343  0.21207  1.0000
  C   C5        1.0  0.80028  0.00343  0.71207  1.0000
  C   C6        1.0  0.69972  0.49657  0.71207  1.0000
  C   C7        1.0  0.19972  0.50343  0.78793  1.0000
  C   C8        1.0  0.30028  0.99657  0.78793  1.0000
  H   H1        1.0  0.26330  0.02570  0.22960  1.0000
  H   H2        1.0  0.23670  0.47430  0.22960  1.0000
  H   H3        1.0  0.73670  0.52570  0.27040  1.0000
  H   H4        1.0  0.76330  0.97430  0.27040  1.0000
  H   H5        1.0  0.73670  0.97430  0.77040  1.0000
  H   H6        1.0  0.76330  0.52570  0.77040  1.0000
  H   H7        1.0  0.26330  0.47430  0.72960  1.0000
  H   H8        1.0  0.23670  0.02570  0.72960  1.0000
  C   C9        1.0  0.08759  0.13295  0.98373  1.0000
  C   C10       1.0  0.41241  0.36705  0.98373  1.0000
  C   C11       1.0  0.91241  0.63295  0.51627  1.0000
  C   C12       1.0  0.58759  0.86705  0.51627  1.0000
  C   C13       1.0  0.91241  0.86705  0.01627  1.0000
  C   C14       1.0  0.58759  0.63295  0.01627  1.0000
  C   C15       1.0  0.08759  0.36705  0.48373  1.0000
  C   C16       1.0  0.41241  0.13295  0.48373  1.0000
  H   H9        1.0  0.12540  0.12490  0.87920  1.0000
  H   H10       1.0  0.37460  0.37510  0.87920  1.0000
  H   H11       1.0  0.87460  0.62490  0.62080  1.0000
  H   H12       1.0  0.62540  0.87510  0.62080  1.0000
  H   H13       1.0  0.87460  0.87510  0.12080  1.0000
  H   H14       1.0  0.62540  0.62490  0.12080  1.0000
  H   H15       1.0  0.12540  0.37510  0.37920  1.0000
  H   H16       1.0  0.37460  0.12490  0.37920  1.0000
