data_image0
_chemical_formula_structural       Ni4O32C8H8C8H8
_chemical_formula_sum              "Ni4 O32 C16 H16"
_cell_length_a       7.8287
_cell_length_b       22.0521
_cell_length_c       8.4976
_cell_angle_alpha    90
_cell_angle_beta     90
_cell_angle_gamma    90

_space_group_name_H-M_alt    "P 1"
_space_group_IT_number       1

loop_
  _space_group_symop_operation_xyz
  'x, y, z'

loop_
  _atom_site_type_symbol
  _atom_site_label
  _atom_site_symmetry_multiplicity
  _atom_site_fract_x
  _atom_site_fract_y
  _atom_site_fract_z
  _atom_site_occupancy
  Ni  Ni1       1.0  0.00000  0.00000  0.00000  1.0000
  Ni  Ni2       1.0  0.50000  0.50000  0.00000  1.0000
  Ni  Ni3       1.0  0.00000  0.50000  0.50000  1.0000
  Ni  Ni4       1.0  0.50000  0.00000  0.50000  1.0000
  O   O1        1.0  0.07104  0.97459  0.22404  1.0000
  O   O2        1.0  0.42896  0.52541  0.22404  1.0000
  O   O3        1.0  0.92896  0.47459  0.27596  1.0000
  O   O4        1.0  0.57104  0.02541  0.27596  1.0000
  O   O5        1.0  0.92896  0.02541  0.77596  1.0000
  O   O6        1.0  0.57104  0.47459  0.77596  1.0000
  O   O7        1.0  0.07104  0.52541  0.72404  1.0000
  O   O8        1.0  0.42896  0.97459  0.72404  1.0000
  O   O9        1.0  0.25273  0.98318  0.42311  1.0000
  O   O10       1.0  0.24727  0.51682  0.42311  1.0000
  O   O11       1.0  0.74727  0.48318  0.07689  1.0000
  O   O12       1.0  0.75273  0.01682  0.07689  1.0000
  O   O13       1.0  0.74727  0.01682  0.57689  1.0000
  O   O14       1.0  0.75273  0.48318  0.57689  1.0000
  O   O15       1.0  0.25273  0.51682  0.92311  1.0000
  O   O16       1.0  0.24727  0.98318  0.92311  1.0000
  O   O17       1.0  0.04684  0.08872  0.06645  1.0000
  O   O18       1.0  0.45316  0.41128  0.06645  1.0000
  O   O19       1.0  0.95316  0.58872  0.43355  1.0000
  O   O20       1.0  0.54684  0.91128  0.43355  1.0000
  O   O21       1.0  0.95316  0.91128  0.93355  1.0000
  O   O22       1.0  0.54684  0.58872  0.93355  1.0000
  O   O23       1.0  0.04684  0.41128  0.56645  1.0000
  O   O24       1.0  0.45316  0.08872  0.56645  1.0000
  O   O25       1.0  0.08240  0.18655  0.02499  1.0000
  O   O26       1.0  0.41760  0.31345  0.02499  1.0000
  O   O27       1.0  0.91760  0.68655  0.47501  1.0000
  O   O28       1.0  0.58240  0.81345  0.47501  1.0000
  O   O29       1.0  0.91760  0.81345  0.97501  1.0000
  O   O30       1.0  0.58240  0.68655  0.97501  1.0000
  O   O31       1.0  0.08240  0.31345  0.52499  1.0000
  O   O32       1.0  0.41760  0.18655  0.52499  1.0000
  C   C1        1.0  0.20046  0.99666  0.28761  1.0000
  C   C2        1.0  0.29954  0.50334  0.28761  1.0000
  C   C3        1.0  0.79954  0.49666  0.21239  1.0000
  C   C4        1.0  0.70046  0.00334  0.21239  1.0000
  C   C5        1.0  0.79954  0.00334  0.71239  1.0000
  C   C6        1.0  0.70046  0.49666  0.71239  1.0000
  C   C7        1.0  0.20046  0.50334  0.78761  1.0000
  C   C8        1.0  0.29954  0.99666  0.78761  1.0000
  H   H1        1.0  0.26280  0.02510  0.23080  1.0000
  H   H2        1.0  0.23720  0.47490  0.23080  1.0000
  H   H3        1.0  0.73720  0.52510  0.26920  1.0000
  H   H4        1.0  0.76280  0.97490  0.26920  1.0000
  H   H5        1.0  0.73720  0.97490  0.76920  1.0000
  H   H6        1.0  0.76280  0.52510  0.76920  1.0000
  H   H7        1.0  0.26280  0.47490  0.73080  1.0000
  H   H8        1.0  0.23720  0.02510  0.73080  1.0000
  C   C9        1.0  0.08710  0.13275  0.98415  1.0000
  C   C10       1.0  0.41290  0.36725  0.98415  1.0000
  C   C11       1.0  0.91290  0.63275  0.51585  1.0000
  C   C12       1.0  0.58710  0.86725  0.51585  1.0000
  C   C13       1.0  0.91290  0.86725  0.01585  1.0000
  C   C14       1.0  0.58710  0.63275  0.01585  1.0000
  C   C15       1.0  0.08710  0.36725  0.48415  1.0000
  C   C16       1.0  0.41290  0.13275  0.48415  1.0000
  H   H9        1.0  0.12420  0.12460  0.88230  1.0000
  H   H10       1.0  0.37580  0.37540  0.88230  1.0000
  H   H11       1.0  0.87580  0.62460  0.61770  1.0000
  H   H12       1.0  0.62420  0.87540  0.61770  1.0000
  H   H13       1.0  0.87580  0.87540  0.11770  1.0000
  H   H14       1.0  0.62420  0.62460  0.11770  1.0000
  H   H15       1.0  0.12420  0.37540  0.38230  1.0000
  H   H16       1.0  0.37580  0.12460  0.38230  1.0000
