data_image0
_chemical_formula_structural       Ni4O32C8H8C8H8
_chemical_formula_sum              "Ni4 O32 C16 H16"
_cell_length_a       7.8802
_cell_length_b       22.0783
_cell_length_c       8.5264
_cell_angle_alpha    90
_cell_angle_beta     90
_cell_angle_gamma    90

_space_group_name_H-M_alt    "P 1"
_space_group_IT_number       1

loop_
  _space_group_symop_operation_xyz
  'x, y, z'

loop_
  _atom_site_type_symbol
  _atom_site_label
  _atom_site_symmetry_multiplicity
  _atom_site_fract_x
  _atom_site_fract_y
  _atom_site_fract_z
  _atom_site_occupancy
  Ni  Ni1       1.0  0.00000  0.00000  0.00000  1.0000
  Ni  Ni2       1.0  0.50000  0.50000  0.00000  1.0000
  Ni  Ni3       1.0  0.00000  0.50000  0.50000  1.0000
  Ni  Ni4       1.0  0.50000  0.00000  0.50000  1.0000
  O   O1        1.0  0.07346  0.97530  0.22359  1.0000
  O   O2        1.0  0.42654  0.52470  0.22359  1.0000
  O   O3        1.0  0.92654  0.47530  0.27641  1.0000
  O   O4        1.0  0.57346  0.02470  0.27641  1.0000
  O   O5        1.0  0.92654  0.02470  0.77641  1.0000
  O   O6        1.0  0.57346  0.47530  0.77641  1.0000
  O   O7        1.0  0.07346  0.52470  0.72359  1.0000
  O   O8        1.0  0.42654  0.97530  0.72359  1.0000
  O   O9        1.0  0.25410  0.98336  0.42109  1.0000
  O   O10       1.0  0.24590  0.51664  0.42109  1.0000
  O   O11       1.0  0.74590  0.48336  0.07891  1.0000
  O   O12       1.0  0.75410  0.01664  0.07891  1.0000
  O   O13       1.0  0.74590  0.01664  0.57891  1.0000
  O   O14       1.0  0.75410  0.48336  0.57891  1.0000
  O   O15       1.0  0.25410  0.51664  0.92109  1.0000
  O   O16       1.0  0.24590  0.98336  0.92109  1.0000
  O   O17       1.0  0.04590  0.08896  0.06478  1.0000
  O   O18       1.0  0.45410  0.41104  0.06478  1.0000
  O   O19       1.0  0.95410  0.58896  0.43522  1.0000
  O   O20       1.0  0.54590  0.91104  0.43522  1.0000
  O   O21       1.0  0.95410  0.91104  0.93522  1.0000
  O   O22       1.0  0.54590  0.58896  0.93522  1.0000
  O   O23       1.0  0.04590  0.41104  0.56478  1.0000
  O   O24       1.0  0.45410  0.08896  0.56478  1.0000
  O   O25       1.0  0.08140  0.18618  0.02400  1.0000
  O   O26       1.0  0.41860  0.31382  0.02400  1.0000
  O   O27       1.0  0.91860  0.68618  0.47600  1.0000
  O   O28       1.0  0.58140  0.81382  0.47600  1.0000
  O   O29       1.0  0.91860  0.81382  0.97600  1.0000
  O   O30       1.0  0.58140  0.68618  0.97600  1.0000
  O   O31       1.0  0.08140  0.31382  0.52400  1.0000
  O   O32       1.0  0.41860  0.18618  0.52400  1.0000
  C   C1        1.0  0.20200  0.99686  0.28697  1.0000
  C   C2        1.0  0.29800  0.50314  0.28697  1.0000
  C   C3        1.0  0.79800  0.49686  0.21303  1.0000
  C   C4        1.0  0.70200  0.00314  0.21303  1.0000
  C   C5        1.0  0.79800  0.00314  0.71303  1.0000
  C   C6        1.0  0.70200  0.49686  0.71303  1.0000
  C   C7        1.0  0.20200  0.50314  0.78697  1.0000
  C   C8        1.0  0.29800  0.99686  0.78697  1.0000
  H   H1        1.0  0.26420  0.02520  0.23040  1.0000
  H   H2        1.0  0.23580  0.47480  0.23040  1.0000
  H   H3        1.0  0.73580  0.52520  0.26960  1.0000
  H   H4        1.0  0.76420  0.97480  0.26960  1.0000
  H   H5        1.0  0.73580  0.97480  0.76960  1.0000
  H   H6        1.0  0.76420  0.52520  0.76960  1.0000
  H   H7        1.0  0.26420  0.47480  0.73040  1.0000
  H   H8        1.0  0.23580  0.02520  0.73040  1.0000
  C   C9        1.0  0.08530  0.13266  0.98460  1.0000
  C   C10       1.0  0.41470  0.36734  0.98460  1.0000
  C   C11       1.0  0.91470  0.63266  0.51540  1.0000
  C   C12       1.0  0.58530  0.86734  0.51540  1.0000
  C   C13       1.0  0.91470  0.86734  0.01540  1.0000
  C   C14       1.0  0.58530  0.63266  0.01540  1.0000
  C   C15       1.0  0.08530  0.36734  0.48460  1.0000
  C   C16       1.0  0.41470  0.13266  0.48460  1.0000
  H   H9        1.0  0.12210  0.12460  0.88310  1.0000
  H   H10       1.0  0.37790  0.37540  0.88310  1.0000
  H   H11       1.0  0.87790  0.62460  0.61690  1.0000
  H   H12       1.0  0.62210  0.87540  0.61690  1.0000
  H   H13       1.0  0.87790  0.87540  0.11690  1.0000
  H   H14       1.0  0.62210  0.62460  0.11690  1.0000
  H   H15       1.0  0.12210  0.37540  0.38310  1.0000
  H   H16       1.0  0.37790  0.12460  0.38310  1.0000
