data_image0
_chemical_formula_structural       Ni4O32C8H8C8H8
_chemical_formula_sum              "Ni4 O32 C16 H16"
_cell_length_a       7.8983
_cell_length_b       22.0866
_cell_length_c       8.5326
_cell_angle_alpha    90
_cell_angle_beta     90
_cell_angle_gamma    90

_space_group_name_H-M_alt    "P 1"
_space_group_IT_number       1

loop_
  _space_group_symop_operation_xyz
  'x, y, z'

loop_
  _atom_site_type_symbol
  _atom_site_label
  _atom_site_symmetry_multiplicity
  _atom_site_fract_x
  _atom_site_fract_y
  _atom_site_fract_z
  _atom_site_occupancy
  Ni  Ni1       1.0  0.00000  0.00000  0.00000  1.0000
  Ni  Ni2       1.0  0.50000  0.50000  0.00000  1.0000
  Ni  Ni3       1.0  0.00000  0.50000  0.50000  1.0000
  Ni  Ni4       1.0  0.50000  0.00000  0.50000  1.0000
  O   O1        1.0  0.07422  0.97554  0.22360  1.0000
  O   O2        1.0  0.42578  0.52446  0.22360  1.0000
  O   O3        1.0  0.92578  0.47554  0.27640  1.0000
  O   O4        1.0  0.57422  0.02446  0.27640  1.0000
  O   O5        1.0  0.92578  0.02446  0.77640  1.0000
  O   O6        1.0  0.57422  0.47554  0.77640  1.0000
  O   O7        1.0  0.07422  0.52446  0.72360  1.0000
  O   O8        1.0  0.42578  0.97554  0.72360  1.0000
  O   O9        1.0  0.25474  0.98347  0.42067  1.0000
  O   O10       1.0  0.24526  0.51653  0.42067  1.0000
  O   O11       1.0  0.74526  0.48347  0.07933  1.0000
  O   O12       1.0  0.75474  0.01653  0.07933  1.0000
  O   O13       1.0  0.74526  0.01653  0.57933  1.0000
  O   O14       1.0  0.75474  0.48347  0.57933  1.0000
  O   O15       1.0  0.25474  0.51653  0.92067  1.0000
  O   O16       1.0  0.24526  0.98347  0.92067  1.0000
  O   O17       1.0  0.04570  0.08907  0.06424  1.0000
  O   O18       1.0  0.45430  0.41093  0.06424  1.0000
  O   O19       1.0  0.95430  0.58907  0.43576  1.0000
  O   O20       1.0  0.54570  0.91093  0.43576  1.0000
  O   O21       1.0  0.95430  0.91093  0.93576  1.0000
  O   O22       1.0  0.54570  0.58907  0.93576  1.0000
  O   O23       1.0  0.04570  0.41093  0.56424  1.0000
  O   O24       1.0  0.45430  0.08907  0.56424  1.0000
  O   O25       1.0  0.08100  0.18605  0.02400  1.0000
  O   O26       1.0  0.41900  0.31395  0.02400  1.0000
  O   O27       1.0  0.91900  0.68605  0.47600  1.0000
  O   O28       1.0  0.58100  0.81395  0.47600  1.0000
  O   O29       1.0  0.91900  0.81395  0.97600  1.0000
  O   O30       1.0  0.58100  0.68605  0.97600  1.0000
  O   O31       1.0  0.08100  0.31395  0.52400  1.0000
  O   O32       1.0  0.41900  0.18605  0.52400  1.0000
  C   C1        1.0  0.20230  0.99694  0.28670  1.0000
  C   C2        1.0  0.29770  0.50306  0.28670  1.0000
  C   C3        1.0  0.79770  0.49694  0.21330  1.0000
  C   C4        1.0  0.70230  0.00306  0.21330  1.0000
  C   C5        1.0  0.79770  0.00306  0.71330  1.0000
  C   C6        1.0  0.70230  0.49694  0.71330  1.0000
  C   C7        1.0  0.20230  0.50306  0.78670  1.0000
  C   C8        1.0  0.29770  0.99694  0.78670  1.0000
  H   H1        1.0  0.26440  0.02520  0.23000  1.0000
  H   H2        1.0  0.23560  0.47480  0.23000  1.0000
  H   H3        1.0  0.73560  0.52520  0.27000  1.0000
  H   H4        1.0  0.76440  0.97480  0.27000  1.0000
  H   H5        1.0  0.73560  0.97480  0.77000  1.0000
  H   H6        1.0  0.76440  0.52520  0.77000  1.0000
  H   H7        1.0  0.26440  0.47480  0.73000  1.0000
  H   H8        1.0  0.23560  0.02520  0.73000  1.0000
  C   C9        1.0  0.08440  0.13272  0.98460  1.0000
  C   C10       1.0  0.41560  0.36728  0.98460  1.0000
  C   C11       1.0  0.91560  0.63272  0.51540  1.0000
  C   C12       1.0  0.58440  0.86728  0.51540  1.0000
  C   C13       1.0  0.91560  0.86728  0.01540  1.0000
  C   C14       1.0  0.58440  0.63272  0.01540  1.0000
  C   C15       1.0  0.08440  0.36728  0.48460  1.0000
  C   C16       1.0  0.41560  0.13272  0.48460  1.0000
  H   H9        1.0  0.12050  0.12470  0.88290  1.0000
  H   H10       1.0  0.37950  0.37530  0.88290  1.0000
  H   H11       1.0  0.87950  0.62470  0.61710  1.0000
  H   H12       1.0  0.62050  0.87530  0.61710  1.0000
  H   H13       1.0  0.87950  0.87530  0.11710  1.0000
  H   H14       1.0  0.62050  0.62470  0.11710  1.0000
  H   H15       1.0  0.12050  0.37530  0.38290  1.0000
  H   H16       1.0  0.37950  0.12470  0.38290  1.0000
