data_image0
_chemical_formula_structural       Co4O32C8H8C8H8
_chemical_formula_sum              "Co4 O32 C16 H16"
_cell_length_a       7.9479
_cell_length_b       22.1124
_cell_length_c       8.6127
_cell_angle_alpha    90
_cell_angle_beta     90
_cell_angle_gamma    90

_space_group_name_H-M_alt    "P 1"
_space_group_IT_number       1

loop_
  _space_group_symop_operation_xyz
  'x, y, z'

loop_
  _atom_site_type_symbol
  _atom_site_label
  _atom_site_symmetry_multiplicity
  _atom_site_fract_x
  _atom_site_fract_y
  _atom_site_fract_z
  _atom_site_occupancy
  Co  Co1       1.0  0.00000  0.00000  0.00000  1.0000
  Co  Co2       1.0  0.50000  0.50000  0.00000  1.0000
  Co  Co3       1.0  0.00000  0.50000  0.50000  1.0000
  Co  Co4       1.0  0.50000  0.00000  0.50000  1.0000
  O   O1        1.0  0.07300  0.97549  0.22640  1.0000
  O   O2        1.0  0.42700  0.52451  0.22640  1.0000
  O   O3        1.0  0.92700  0.47549  0.27360  1.0000
  O   O4        1.0  0.57300  0.02451  0.27360  1.0000
  O   O5        1.0  0.92700  0.02451  0.77360  1.0000
  O   O6        1.0  0.57300  0.47549  0.77360  1.0000
  O   O7        1.0  0.07300  0.52451  0.72640  1.0000
  O   O8        1.0  0.42700  0.97549  0.72640  1.0000
  O   O9        1.0  0.25290  0.98331  0.42190  1.0000
  O   O10       1.0  0.24710  0.51669  0.42190  1.0000
  O   O11       1.0  0.74710  0.48331  0.07810  1.0000
  O   O12       1.0  0.75290  0.01669  0.07810  1.0000
  O   O13       1.0  0.74710  0.01669  0.57810  1.0000
  O   O14       1.0  0.75290  0.48331  0.57810  1.0000
  O   O15       1.0  0.25290  0.51669  0.92190  1.0000
  O   O16       1.0  0.24710  0.98331  0.92190  1.0000
  O   O17       1.0  0.04690  0.09024  0.06510  1.0000
  O   O18       1.0  0.45310  0.40976  0.06510  1.0000
  O   O19       1.0  0.95310  0.59024  0.43490  1.0000
  O   O20       1.0  0.54690  0.90976  0.43490  1.0000
  O   O21       1.0  0.95310  0.90976  0.93490  1.0000
  O   O22       1.0  0.54690  0.59024  0.93490  1.0000
  O   O23       1.0  0.04690  0.40976  0.56510  1.0000
  O   O24       1.0  0.45310  0.09024  0.56510  1.0000
  O   O25       1.0  0.07760  0.18756  0.02720  1.0000
  O   O26       1.0  0.42240  0.31244  0.02720  1.0000
  O   O27       1.0  0.92240  0.68756  0.47280  1.0000
  O   O28       1.0  0.57760  0.81244  0.47280  1.0000
  O   O29       1.0  0.92240  0.81244  0.97280  1.0000
  O   O30       1.0  0.57760  0.68756  0.97280  1.0000
  O   O31       1.0  0.07760  0.31244  0.52720  1.0000
  O   O32       1.0  0.42240  0.18756  0.52720  1.0000
  C   C1        1.0  0.19860  0.99686  0.29020  1.0000
  C   C2        1.0  0.30140  0.50314  0.29020  1.0000
  C   C3        1.0  0.80140  0.49686  0.20980  1.0000
  C   C4        1.0  0.69860  0.00314  0.20980  1.0000
  C   C5        1.0  0.80140  0.00314  0.70980  1.0000
  C   C6        1.0  0.69860  0.49686  0.70980  1.0000
  C   C7        1.0  0.19860  0.50314  0.79020  1.0000
  C   C8        1.0  0.30140  0.99686  0.79020  1.0000
  H   H1        1.0  0.25860  0.02580  0.23490  1.0000
  H   H2        1.0  0.24140  0.47420  0.23490  1.0000
  H   H3        1.0  0.74140  0.52580  0.26510  1.0000
  H   H4        1.0  0.75860  0.97420  0.26510  1.0000
  H   H5        1.0  0.74140  0.97420  0.76510  1.0000
  H   H6        1.0  0.75860  0.52580  0.76510  1.0000
  H   H7        1.0  0.25860  0.47420  0.73490  1.0000
  H   H8        1.0  0.24140  0.02580  0.73490  1.0000
  C   C9        1.0  0.08310  0.13440  0.98720  1.0000
  C   C10       1.0  0.41690  0.36560  0.98720  1.0000
  C   C11       1.0  0.91690  0.63440  0.51280  1.0000
  C   C12       1.0  0.58310  0.86560  0.51280  1.0000
  C   C13       1.0  0.91690  0.86560  0.01280  1.0000
  C   C14       1.0  0.58310  0.63440  0.01280  1.0000
  C   C15       1.0  0.08310  0.36560  0.48720  1.0000
  C   C16       1.0  0.41690  0.13440  0.48720  1.0000
  H   H9        1.0  0.11900  0.12690  0.88620  1.0000
  H   H10       1.0  0.38100  0.37310  0.88620  1.0000
  H   H11       1.0  0.88100  0.62690  0.61380  1.0000
  H   H12       1.0  0.61900  0.87310  0.61380  1.0000
  H   H13       1.0  0.88100  0.87310  0.11380  1.0000
  H   H14       1.0  0.61900  0.62690  0.11380  1.0000
  H   H15       1.0  0.11900  0.37310  0.38620  1.0000
  H   H16       1.0  0.38100  0.12690  0.38620  1.0000
