data_image0
_chemical_formula_structural       Co4O32C8H8C8H8
_chemical_formula_sum              "Co4 O32 C16 H16"
_cell_length_a       7.9102
_cell_length_b       22.1031
_cell_length_c       8.6003
_cell_angle_alpha    90
_cell_angle_beta     90
_cell_angle_gamma    90

_space_group_name_H-M_alt    "P 1"
_space_group_IT_number       1

loop_
  _space_group_symop_operation_xyz
  'x, y, z'

loop_
  _atom_site_type_symbol
  _atom_site_label
  _atom_site_symmetry_multiplicity
  _atom_site_fract_x
  _atom_site_fract_y
  _atom_site_fract_z
  _atom_site_occupancy
  Co  Co1       1.0  0.00000  0.00000  0.00000  1.0000
  Co  Co2       1.0  0.50000  0.50000  0.00000  1.0000
  Co  Co3       1.0  0.00000  0.50000  0.50000  1.0000
  Co  Co4       1.0  0.50000  0.00000  0.50000  1.0000
  O   O1        1.0  0.07113  0.97487  0.22700  1.0000
  O   O2        1.0  0.42887  0.52513  0.22700  1.0000
  O   O3        1.0  0.92887  0.47487  0.27300  1.0000
  O   O4        1.0  0.57113  0.02513  0.27300  1.0000
  O   O5        1.0  0.92887  0.02513  0.77300  1.0000
  O   O6        1.0  0.57113  0.47487  0.77300  1.0000
  O   O7        1.0  0.07113  0.52513  0.72700  1.0000
  O   O8        1.0  0.42887  0.97487  0.72700  1.0000
  O   O9        1.0  0.25105  0.98297  0.42328  1.0000
  O   O10       1.0  0.24895  0.51703  0.42328  1.0000
  O   O11       1.0  0.74895  0.48297  0.07672  1.0000
  O   O12       1.0  0.75105  0.01703  0.07672  1.0000
  O   O13       1.0  0.74895  0.01703  0.57672  1.0000
  O   O14       1.0  0.75105  0.48297  0.57672  1.0000
  O   O15       1.0  0.25105  0.51703  0.92328  1.0000
  O   O16       1.0  0.24895  0.98297  0.92328  1.0000
  O   O17       1.0  0.04760  0.09009  0.06617  1.0000
  O   O18       1.0  0.45240  0.40991  0.06617  1.0000
  O   O19       1.0  0.95240  0.59009  0.43383  1.0000
  O   O20       1.0  0.54760  0.90991  0.43383  1.0000
  O   O21       1.0  0.95240  0.90991  0.93383  1.0000
  O   O22       1.0  0.54760  0.59009  0.93383  1.0000
  O   O23       1.0  0.04760  0.40991  0.56617  1.0000
  O   O24       1.0  0.45240  0.09009  0.56617  1.0000
  O   O25       1.0  0.07900  0.18751  0.02680  1.0000
  O   O26       1.0  0.42100  0.31249  0.02680  1.0000
  O   O27       1.0  0.92100  0.68751  0.47320  1.0000
  O   O28       1.0  0.57900  0.81249  0.47320  1.0000
  O   O29       1.0  0.92100  0.81249  0.97320  1.0000
  O   O30       1.0  0.57900  0.68751  0.97320  1.0000
  O   O31       1.0  0.07900  0.31249  0.52680  1.0000
  O   O32       1.0  0.42100  0.18751  0.52680  1.0000
  C   C1        1.0  0.19800  0.99668  0.29070  1.0000
  C   C2        1.0  0.30200  0.50332  0.29070  1.0000
  C   C3        1.0  0.80200  0.49668  0.20930  1.0000
  C   C4        1.0  0.69800  0.00332  0.20930  1.0000
  C   C5        1.0  0.80200  0.00332  0.70930  1.0000
  C   C6        1.0  0.69800  0.49668  0.70930  1.0000
  C   C7        1.0  0.19800  0.50332  0.79070  1.0000
  C   C8        1.0  0.30200  0.99668  0.79070  1.0000
  H   H1        1.0  0.25870  0.02560  0.23540  1.0000
  H   H2        1.0  0.24130  0.47440  0.23540  1.0000
  H   H3        1.0  0.74130  0.52560  0.26460  1.0000
  H   H4        1.0  0.75870  0.97440  0.26460  1.0000
  H   H5        1.0  0.74130  0.97440  0.76460  1.0000
  H   H6        1.0  0.75870  0.52560  0.76460  1.0000
  H   H7        1.0  0.25870  0.47440  0.73540  1.0000
  H   H8        1.0  0.24130  0.02560  0.73540  1.0000
  C   C9        1.0  0.08420  0.13428  0.98650  1.0000
  C   C10       1.0  0.41580  0.36572  0.98650  1.0000
  C   C11       1.0  0.91580  0.63428  0.51350  1.0000
  C   C12       1.0  0.58420  0.86572  0.51350  1.0000
  C   C13       1.0  0.91580  0.86572  0.01350  1.0000
  C   C14       1.0  0.58420  0.63428  0.01350  1.0000
  C   C15       1.0  0.08420  0.36572  0.48650  1.0000
  C   C16       1.0  0.41580  0.13428  0.48650  1.0000
  H   H9        1.0  0.11940  0.12660  0.88520  1.0000
  H   H10       1.0  0.38060  0.37340  0.88520  1.0000
  H   H11       1.0  0.88060  0.62660  0.61480  1.0000
  H   H12       1.0  0.61940  0.87340  0.61480  1.0000
  H   H13       1.0  0.88060  0.87340  0.11480  1.0000
  H   H14       1.0  0.61940  0.62660  0.11480  1.0000
  H   H15       1.0  0.11940  0.37340  0.38520  1.0000
  H   H16       1.0  0.38060  0.12660  0.38520  1.0000
