data_image0
_chemical_formula_structural       Co4O32C8H8C8H8
_chemical_formula_sum              "Co4 O32 C16 H16"
_cell_length_a       7.8547
_cell_length_b       22.0887
_cell_length_c       8.5717
_cell_angle_alpha    90
_cell_angle_beta     90
_cell_angle_gamma    90

_space_group_name_H-M_alt    "P 1"
_space_group_IT_number       1

loop_
  _space_group_symop_operation_xyz
  'x, y, z'

loop_
  _atom_site_type_symbol
  _atom_site_label
  _atom_site_symmetry_multiplicity
  _atom_site_fract_x
  _atom_site_fract_y
  _atom_site_fract_z
  _atom_site_occupancy
  Co  Co1       1.0  0.00000  0.00000  0.00000  1.0000
  Co  Co2       1.0  0.50000  0.50000  0.00000  1.0000
  Co  Co3       1.0  0.00000  0.50000  0.50000  1.0000
  Co  Co4       1.0  0.50000  0.00000  0.50000  1.0000
  O   O1        1.0  0.06828  0.97407  0.22779  1.0000
  O   O2        1.0  0.43172  0.52593  0.22779  1.0000
  O   O3        1.0  0.93172  0.47407  0.27221  1.0000
  O   O4        1.0  0.56828  0.02593  0.27221  1.0000
  O   O5        1.0  0.93172  0.02593  0.77221  1.0000
  O   O6        1.0  0.56828  0.47407  0.77221  1.0000
  O   O7        1.0  0.06828  0.52593  0.72779  1.0000
  O   O8        1.0  0.43172  0.97407  0.72779  1.0000
  O   O9        1.0  0.24955  0.98278  0.42550  1.0000
  O   O10       1.0  0.25045  0.51722  0.42550  1.0000
  O   O11       1.0  0.75045  0.48278  0.07450  1.0000
  O   O12       1.0  0.74955  0.01722  0.07450  1.0000
  O   O13       1.0  0.75045  0.01722  0.57450  1.0000
  O   O14       1.0  0.74955  0.48278  0.57450  1.0000
  O   O15       1.0  0.24955  0.51722  0.92550  1.0000
  O   O16       1.0  0.25045  0.98278  0.92550  1.0000
  O   O17       1.0  0.04878  0.08966  0.06755  1.0000
  O   O18       1.0  0.45122  0.41034  0.06755  1.0000
  O   O19       1.0  0.95122  0.58966  0.43245  1.0000
  O   O20       1.0  0.54878  0.91034  0.43245  1.0000
  O   O21       1.0  0.95122  0.91034  0.93245  1.0000
  O   O22       1.0  0.54878  0.58966  0.93245  1.0000
  O   O23       1.0  0.04878  0.41034  0.56755  1.0000
  O   O24       1.0  0.45122  0.08966  0.56755  1.0000
  O   O25       1.0  0.07940  0.18782  0.02738  1.0000
  O   O26       1.0  0.42060  0.31218  0.02738  1.0000
  O   O27       1.0  0.92060  0.68782  0.47262  1.0000
  O   O28       1.0  0.57940  0.81218  0.47262  1.0000
  O   O29       1.0  0.92060  0.81218  0.97262  1.0000
  O   O30       1.0  0.57940  0.68782  0.97262  1.0000
  O   O31       1.0  0.07940  0.31218  0.52738  1.0000
  O   O32       1.0  0.42060  0.18782  0.52738  1.0000
  C   C1        1.0  0.19650  0.99646  0.29162  1.0000
  C   C2        1.0  0.30350  0.50354  0.29162  1.0000
  C   C3        1.0  0.80350  0.49646  0.20838  1.0000
  C   C4        1.0  0.69650  0.00354  0.20838  1.0000
  C   C5        1.0  0.80350  0.00354  0.70838  1.0000
  C   C6        1.0  0.69650  0.49646  0.70838  1.0000
  C   C7        1.0  0.19650  0.50354  0.79162  1.0000
  C   C8        1.0  0.30350  0.99646  0.79162  1.0000
  H   H1        1.0  0.25800  0.02570  0.23540  1.0000
  H   H2        1.0  0.24200  0.47430  0.23540  1.0000
  H   H3        1.0  0.74200  0.52570  0.26460  1.0000
  H   H4        1.0  0.75800  0.97430  0.26460  1.0000
  H   H5        1.0  0.74200  0.97430  0.76460  1.0000
  H   H6        1.0  0.75800  0.52570  0.76460  1.0000
  H   H7        1.0  0.25800  0.47430  0.73540  1.0000
  H   H8        1.0  0.24200  0.02570  0.73540  1.0000
  C   C9        1.0  0.08630  0.13423  0.98580  1.0000
  C   C10       1.0  0.41370  0.36577  0.98580  1.0000
  C   C11       1.0  0.91370  0.63423  0.51420  1.0000
  C   C12       1.0  0.58630  0.86577  0.51420  1.0000
  C   C13       1.0  0.91370  0.86577  0.01420  1.0000
  C   C14       1.0  0.58630  0.63423  0.01420  1.0000
  C   C15       1.0  0.08630  0.36577  0.48580  1.0000
  C   C16       1.0  0.41370  0.13423  0.48580  1.0000
  H   H9        1.0  0.12310  0.12650  0.88330  1.0000
  H   H10       1.0  0.37690  0.37350  0.88330  1.0000
  H   H11       1.0  0.87690  0.62650  0.61670  1.0000
  H   H12       1.0  0.62310  0.87350  0.61670  1.0000
  H   H13       1.0  0.87690  0.87350  0.11670  1.0000
  H   H14       1.0  0.62310  0.62650  0.11670  1.0000
  H   H15       1.0  0.12310  0.37350  0.38330  1.0000
  H   H16       1.0  0.37690  0.12650  0.38330  1.0000
