data_image0
_chemical_formula_structural       Co4O32C8H8C8H8
_chemical_formula_sum              "Co4 O32 C16 H16"
_cell_length_a       7.8675
_cell_length_b       22.0901
_cell_length_c       8.5777
_cell_angle_alpha    90
_cell_angle_beta     90
_cell_angle_gamma    90

_space_group_name_H-M_alt    "P 1"
_space_group_IT_number       1

loop_
  _space_group_symop_operation_xyz
  'x, y, z'

loop_
  _atom_site_type_symbol
  _atom_site_label
  _atom_site_symmetry_multiplicity
  _atom_site_fract_x
  _atom_site_fract_y
  _atom_site_fract_z
  _atom_site_occupancy
  Co  Co1       1.0  0.00000  0.00000  0.00000  1.0000
  Co  Co2       1.0  0.50000  0.50000  0.00000  1.0000
  Co  Co3       1.0  0.00000  0.50000  0.50000  1.0000
  Co  Co4       1.0  0.50000  0.00000  0.50000  1.0000
  O   O1        1.0  0.06890  0.97430  0.22758  1.0000
  O   O2        1.0  0.43110  0.52570  0.22758  1.0000
  O   O3        1.0  0.93110  0.47430  0.27242  1.0000
  O   O4        1.0  0.56890  0.02570  0.27242  1.0000
  O   O5        1.0  0.93110  0.02570  0.77242  1.0000
  O   O6        1.0  0.56890  0.47430  0.77242  1.0000
  O   O7        1.0  0.06890  0.52570  0.72758  1.0000
  O   O8        1.0  0.43110  0.97430  0.72758  1.0000
  O   O9        1.0  0.24985  0.98284  0.42495  1.0000
  O   O10       1.0  0.25015  0.51716  0.42495  1.0000
  O   O11       1.0  0.75015  0.48284  0.07505  1.0000
  O   O12       1.0  0.74985  0.01716  0.07505  1.0000
  O   O13       1.0  0.75015  0.01716  0.57505  1.0000
  O   O14       1.0  0.74985  0.48284  0.57505  1.0000
  O   O15       1.0  0.24985  0.51716  0.92495  1.0000
  O   O16       1.0  0.25015  0.98284  0.92495  1.0000
  O   O17       1.0  0.04859  0.08983  0.06710  1.0000
  O   O18       1.0  0.45141  0.41017  0.06710  1.0000
  O   O19       1.0  0.95141  0.58983  0.43290  1.0000
  O   O20       1.0  0.54859  0.91017  0.43290  1.0000
  O   O21       1.0  0.95141  0.91017  0.93290  1.0000
  O   O22       1.0  0.54859  0.58983  0.93290  1.0000
  O   O23       1.0  0.04859  0.41017  0.56710  1.0000
  O   O24       1.0  0.45141  0.08983  0.56710  1.0000
  O   O25       1.0  0.07930  0.18776  0.02711  1.0000
  O   O26       1.0  0.42070  0.31224  0.02711  1.0000
  O   O27       1.0  0.92070  0.68776  0.47289  1.0000
  O   O28       1.0  0.57930  0.81224  0.47289  1.0000
  O   O29       1.0  0.92070  0.81224  0.97289  1.0000
  O   O30       1.0  0.57930  0.68776  0.97289  1.0000
  O   O31       1.0  0.07930  0.31224  0.52711  1.0000
  O   O32       1.0  0.42070  0.18776  0.52711  1.0000
  C   C1        1.0  0.19700  0.99654  0.29136  1.0000
  C   C2        1.0  0.30300  0.50346  0.29136  1.0000
  C   C3        1.0  0.80300  0.49654  0.20864  1.0000
  C   C4        1.0  0.69700  0.00346  0.20864  1.0000
  C   C5        1.0  0.80300  0.00346  0.70864  1.0000
  C   C6        1.0  0.69700  0.49654  0.70864  1.0000
  C   C7        1.0  0.19700  0.50346  0.79136  1.0000
  C   C8        1.0  0.30300  0.99654  0.79136  1.0000
  H   H1        1.0  0.25790  0.02550  0.23580  1.0000
  H   H2        1.0  0.24210  0.47450  0.23580  1.0000
  H   H3        1.0  0.74210  0.52550  0.26420  1.0000
  H   H4        1.0  0.75790  0.97450  0.26420  1.0000
  H   H5        1.0  0.74210  0.97450  0.76420  1.0000
  H   H6        1.0  0.75790  0.52550  0.76420  1.0000
  H   H7        1.0  0.25790  0.47450  0.73580  1.0000
  H   H8        1.0  0.24210  0.02550  0.73580  1.0000
  C   C9        1.0  0.08580  0.13424  0.98610  1.0000
  C   C10       1.0  0.41420  0.36576  0.98610  1.0000
  C   C11       1.0  0.91420  0.63424  0.51390  1.0000
  C   C12       1.0  0.58580  0.86576  0.51390  1.0000
  C   C13       1.0  0.91420  0.86576  0.01390  1.0000
  C   C14       1.0  0.58580  0.63424  0.01390  1.0000
  C   C15       1.0  0.08580  0.36576  0.48610  1.0000
  C   C16       1.0  0.41420  0.13424  0.48610  1.0000
  H   H9        1.0  0.12210  0.12660  0.88480  1.0000
  H   H10       1.0  0.37790  0.37340  0.88480  1.0000
  H   H11       1.0  0.87790  0.62660  0.61520  1.0000
  H   H12       1.0  0.62210  0.87340  0.61520  1.0000
  H   H13       1.0  0.87790  0.87340  0.11520  1.0000
  H   H14       1.0  0.62210  0.62660  0.11520  1.0000
  H   H15       1.0  0.12210  0.37340  0.38480  1.0000
  H   H16       1.0  0.37790  0.12660  0.38480  1.0000
