data_image0
_chemical_formula_structural       Co4O32C8H8C8H8
_chemical_formula_sum              "Co4 O32 C16 H16"
_cell_length_a       7.8332
_cell_length_b       22.0928
_cell_length_c       8.5556
_cell_angle_alpha    90
_cell_angle_beta     90
_cell_angle_gamma    90

_space_group_name_H-M_alt    "P 1"
_space_group_IT_number       1

loop_
  _space_group_symop_operation_xyz
  'x, y, z'

loop_
  _atom_site_type_symbol
  _atom_site_label
  _atom_site_symmetry_multiplicity
  _atom_site_fract_x
  _atom_site_fract_y
  _atom_site_fract_z
  _atom_site_occupancy
  Co  Co1       1.0  0.00000  0.00000  0.00000  1.0000
  Co  Co2       1.0  0.50000  0.50000  0.00000  1.0000
  Co  Co3       1.0  0.00000  0.50000  0.50000  1.0000
  Co  Co4       1.0  0.50000  0.00000  0.50000  1.0000
  O   O1        1.0  0.06713  0.97377  0.22809  1.0000
  O   O2        1.0  0.43287  0.52623  0.22809  1.0000
  O   O3        1.0  0.93287  0.47377  0.27191  1.0000
  O   O4        1.0  0.56713  0.02623  0.27191  1.0000
  O   O5        1.0  0.93287  0.02623  0.77191  1.0000
  O   O6        1.0  0.56713  0.47377  0.77191  1.0000
  O   O7        1.0  0.06713  0.52623  0.72809  1.0000
  O   O8        1.0  0.43287  0.97377  0.72809  1.0000
  O   O9        1.0  0.24902  0.98272  0.42654  1.0000
  O   O10       1.0  0.25098  0.51728  0.42654  1.0000
  O   O11       1.0  0.75098  0.48272  0.07346  1.0000
  O   O12       1.0  0.74902  0.01728  0.07346  1.0000
  O   O13       1.0  0.75098  0.01728  0.57346  1.0000
  O   O14       1.0  0.74902  0.48272  0.57346  1.0000
  O   O15       1.0  0.24902  0.51728  0.92654  1.0000
  O   O16       1.0  0.25098  0.98272  0.92654  1.0000
  O   O17       1.0  0.04933  0.08949  0.06810  1.0000
  O   O18       1.0  0.45067  0.41051  0.06810  1.0000
  O   O19       1.0  0.95067  0.58949  0.43190  1.0000
  O   O20       1.0  0.54933  0.91051  0.43190  1.0000
  O   O21       1.0  0.95067  0.91051  0.93190  1.0000
  O   O22       1.0  0.54933  0.58949  0.93190  1.0000
  O   O23       1.0  0.04933  0.41051  0.56810  1.0000
  O   O24       1.0  0.45067  0.08949  0.56810  1.0000
  O   O25       1.0  0.07920  0.18805  0.02776  1.0000
  O   O26       1.0  0.42080  0.31195  0.02776  1.0000
  O   O27       1.0  0.92080  0.68805  0.47224  1.0000
  O   O28       1.0  0.57920  0.81195  0.47224  1.0000
  O   O29       1.0  0.92080  0.81195  0.97224  1.0000
  O   O30       1.0  0.57920  0.68805  0.97224  1.0000
  O   O31       1.0  0.07920  0.31195  0.52776  1.0000
  O   O32       1.0  0.42080  0.18805  0.52776  1.0000
  C   C1        1.0  0.19590  0.99639  0.29199  1.0000
  C   C2        1.0  0.30410  0.50361  0.29199  1.0000
  C   C3        1.0  0.80410  0.49639  0.20801  1.0000
  C   C4        1.0  0.69590  0.00361  0.20801  1.0000
  C   C5        1.0  0.80410  0.00361  0.70801  1.0000
  C   C6        1.0  0.69590  0.49639  0.70801  1.0000
  C   C7        1.0  0.19590  0.50361  0.79199  1.0000
  C   C8        1.0  0.30410  0.99639  0.79199  1.0000
  H   H1        1.0  0.25820  0.02600  0.23500  1.0000
  H   H2        1.0  0.24180  0.47400  0.23500  1.0000
  H   H3        1.0  0.74180  0.52600  0.26500  1.0000
  H   H4        1.0  0.75820  0.97400  0.26500  1.0000
  H   H5        1.0  0.74180  0.97400  0.76500  1.0000
  H   H6        1.0  0.75820  0.52600  0.76500  1.0000
  H   H7        1.0  0.25820  0.47400  0.73500  1.0000
  H   H8        1.0  0.24180  0.02600  0.73500  1.0000
  C   C9        1.0  0.08650  0.13439  0.98544  1.0000
  C   C10       1.0  0.41350  0.36561  0.98544  1.0000
  C   C11       1.0  0.91350  0.63439  0.51456  1.0000
  C   C12       1.0  0.58650  0.86561  0.51456  1.0000
  C   C13       1.0  0.91350  0.86561  0.01456  1.0000
  C   C14       1.0  0.58650  0.63439  0.01456  1.0000
  C   C15       1.0  0.08650  0.36561  0.48544  1.0000
  C   C16       1.0  0.41350  0.13439  0.48544  1.0000
  H   H9        1.0  0.12350  0.12670  0.88160  1.0000
  H   H10       1.0  0.37650  0.37330  0.88160  1.0000
  H   H11       1.0  0.87650  0.62670  0.61840  1.0000
  H   H12       1.0  0.62350  0.87330  0.61840  1.0000
  H   H13       1.0  0.87650  0.87330  0.11840  1.0000
  H   H14       1.0  0.62350  0.62670  0.11840  1.0000
  H   H15       1.0  0.12350  0.37330  0.38160  1.0000
  H   H16       1.0  0.37650  0.12670  0.38160  1.0000
