data_image0
_chemical_formula_structural       Co4O32C8H8C8H8
_chemical_formula_sum              "Co4 O32 C16 H16"
_cell_length_a       7.9282
_cell_length_b       22.1074
_cell_length_c       8.6031
_cell_angle_alpha    90
_cell_angle_beta     90
_cell_angle_gamma    90

_space_group_name_H-M_alt    "P 1"
_space_group_IT_number       1

loop_
  _space_group_symop_operation_xyz
  'x, y, z'

loop_
  _atom_site_type_symbol
  _atom_site_label
  _atom_site_symmetry_multiplicity
  _atom_site_fract_x
  _atom_site_fract_y
  _atom_site_fract_z
  _atom_site_occupancy
  Co  Co1       1.0  0.00000  0.00000  0.00000  1.0000
  Co  Co2       1.0  0.50000  0.50000  0.00000  1.0000
  Co  Co3       1.0  0.00000  0.50000  0.50000  1.0000
  Co  Co4       1.0  0.50000  0.00000  0.50000  1.0000
  O   O1        1.0  0.07196  0.97511  0.22690  1.0000
  O   O2        1.0  0.42804  0.52489  0.22690  1.0000
  O   O3        1.0  0.92804  0.47511  0.27310  1.0000
  O   O4        1.0  0.57196  0.02489  0.27310  1.0000
  O   O5        1.0  0.92804  0.02489  0.77310  1.0000
  O   O6        1.0  0.57196  0.47511  0.77310  1.0000
  O   O7        1.0  0.07196  0.52489  0.72690  1.0000
  O   O8        1.0  0.42804  0.97511  0.72690  1.0000
  O   O9        1.0  0.25156  0.98309  0.42267  1.0000
  O   O10       1.0  0.24844  0.51691  0.42267  1.0000
  O   O11       1.0  0.74844  0.48309  0.07733  1.0000
  O   O12       1.0  0.75156  0.01691  0.07733  1.0000
  O   O13       1.0  0.74844  0.01691  0.57733  1.0000
  O   O14       1.0  0.75156  0.48309  0.57733  1.0000
  O   O15       1.0  0.25156  0.51691  0.92267  1.0000
  O   O16       1.0  0.24844  0.98309  0.92267  1.0000
  O   O17       1.0  0.04740  0.09021  0.06546  1.0000
  O   O18       1.0  0.45260  0.40979  0.06546  1.0000
  O   O19       1.0  0.95260  0.59021  0.43454  1.0000
  O   O20       1.0  0.54740  0.90979  0.43454  1.0000
  O   O21       1.0  0.95260  0.90979  0.93454  1.0000
  O   O22       1.0  0.54740  0.59021  0.93454  1.0000
  O   O23       1.0  0.04740  0.40979  0.56546  1.0000
  O   O24       1.0  0.45260  0.09021  0.56546  1.0000
  O   O25       1.0  0.07880  0.18743  0.02690  1.0000
  O   O26       1.0  0.42120  0.31257  0.02690  1.0000
  O   O27       1.0  0.92120  0.68743  0.47310  1.0000
  O   O28       1.0  0.57880  0.81257  0.47310  1.0000
  O   O29       1.0  0.92120  0.81257  0.97310  1.0000
  O   O30       1.0  0.57880  0.68743  0.97310  1.0000
  O   O31       1.0  0.07880  0.31257  0.52690  1.0000
  O   O32       1.0  0.42120  0.18743  0.52690  1.0000
  C   C1        1.0  0.19870  0.99675  0.29030  1.0000
  C   C2        1.0  0.30130  0.50325  0.29030  1.0000
  C   C3        1.0  0.80130  0.49675  0.20970  1.0000
  C   C4        1.0  0.69870  0.00325  0.20970  1.0000
  C   C5        1.0  0.80130  0.00325  0.70970  1.0000
  C   C6        1.0  0.69870  0.49675  0.70970  1.0000
  C   C7        1.0  0.19870  0.50325  0.79030  1.0000
  C   C8        1.0  0.30130  0.99675  0.79030  1.0000
  H   H1        1.0  0.25950  0.02550  0.23480  1.0000
  H   H2        1.0  0.24050  0.47450  0.23480  1.0000
  H   H3        1.0  0.74050  0.52550  0.26520  1.0000
  H   H4        1.0  0.75950  0.97450  0.26520  1.0000
  H   H5        1.0  0.74050  0.97450  0.76520  1.0000
  H   H6        1.0  0.75950  0.52550  0.76520  1.0000
  H   H7        1.0  0.25950  0.47450  0.73480  1.0000
  H   H8        1.0  0.24050  0.02550  0.73480  1.0000
  C   C9        1.0  0.08350  0.13420  0.98660  1.0000
  C   C10       1.0  0.41650  0.36580  0.98660  1.0000
  C   C11       1.0  0.91650  0.63420  0.51340  1.0000
  C   C12       1.0  0.58350  0.86580  0.51340  1.0000
  C   C13       1.0  0.91650  0.86580  0.01340  1.0000
  C   C14       1.0  0.58350  0.63420  0.01340  1.0000
  C   C15       1.0  0.08350  0.36580  0.48660  1.0000
  C   C16       1.0  0.41650  0.13420  0.48660  1.0000
  H   H9        1.0  0.11830  0.12660  0.88530  1.0000
  H   H10       1.0  0.38170  0.37340  0.88530  1.0000
  H   H11       1.0  0.88170  0.62660  0.61470  1.0000
  H   H12       1.0  0.61830  0.87340  0.61470  1.0000
  H   H13       1.0  0.88170  0.87340  0.11470  1.0000
  H   H14       1.0  0.61830  0.62660  0.11470  1.0000
  H   H15       1.0  0.11830  0.37340  0.38530  1.0000
  H   H16       1.0  0.38170  0.12660  0.38530  1.0000
