data_image0
_chemical_formula_structural       Co4O32C8H8C8H8
_chemical_formula_sum              "Co4 O32 C16 H16"
_cell_length_a       7.8422
_cell_length_b       22.0907
_cell_length_c       8.5634
_cell_angle_alpha    90
_cell_angle_beta     90
_cell_angle_gamma    90

_space_group_name_H-M_alt    "P 1"
_space_group_IT_number       1

loop_
  _space_group_symop_operation_xyz
  'x, y, z'

loop_
  _atom_site_type_symbol
  _atom_site_label
  _atom_site_symmetry_multiplicity
  _atom_site_fract_x
  _atom_site_fract_y
  _atom_site_fract_z
  _atom_site_occupancy
  Co  Co1       1.0  0.00000  0.00000  0.00000  1.0000
  Co  Co2       1.0  0.50000  0.50000  0.00000  1.0000
  Co  Co3       1.0  0.00000  0.50000  0.50000  1.0000
  Co  Co4       1.0  0.50000  0.00000  0.50000  1.0000
  O   O1        1.0  0.06755  0.97390  0.22802  1.0000
  O   O2        1.0  0.43245  0.52610  0.22802  1.0000
  O   O3        1.0  0.93245  0.47390  0.27198  1.0000
  O   O4        1.0  0.56755  0.02610  0.27198  1.0000
  O   O5        1.0  0.93245  0.02610  0.77198  1.0000
  O   O6        1.0  0.56755  0.47390  0.77198  1.0000
  O   O7        1.0  0.06755  0.52610  0.72802  1.0000
  O   O8        1.0  0.43245  0.97390  0.72802  1.0000
  O   O9        1.0  0.24925  0.98271  0.42606  1.0000
  O   O10       1.0  0.25075  0.51729  0.42606  1.0000
  O   O11       1.0  0.75075  0.48271  0.07394  1.0000
  O   O12       1.0  0.74925  0.01729  0.07394  1.0000
  O   O13       1.0  0.75075  0.01729  0.57394  1.0000
  O   O14       1.0  0.74925  0.48271  0.57394  1.0000
  O   O15       1.0  0.24925  0.51729  0.92606  1.0000
  O   O16       1.0  0.25075  0.98271  0.92606  1.0000
  O   O17       1.0  0.04913  0.08959  0.06782  1.0000
  O   O18       1.0  0.45087  0.41041  0.06782  1.0000
  O   O19       1.0  0.95087  0.58959  0.43218  1.0000
  O   O20       1.0  0.54913  0.91041  0.43218  1.0000
  O   O21       1.0  0.95087  0.91041  0.93218  1.0000
  O   O22       1.0  0.54913  0.58959  0.93218  1.0000
  O   O23       1.0  0.04913  0.41041  0.56782  1.0000
  O   O24       1.0  0.45087  0.08959  0.56782  1.0000
  O   O25       1.0  0.07940  0.18793  0.02760  1.0000
  O   O26       1.0  0.42060  0.31207  0.02760  1.0000
  O   O27       1.0  0.92060  0.68793  0.47240  1.0000
  O   O28       1.0  0.57940  0.81207  0.47240  1.0000
  O   O29       1.0  0.92060  0.81207  0.97240  1.0000
  O   O30       1.0  0.57940  0.68793  0.97240  1.0000
  O   O31       1.0  0.07940  0.31207  0.52760  1.0000
  O   O32       1.0  0.42060  0.18793  0.52760  1.0000
  C   C1        1.0  0.19620  0.99641  0.29184  1.0000
  C   C2        1.0  0.30380  0.50359  0.29184  1.0000
  C   C3        1.0  0.80380  0.49641  0.20816  1.0000
  C   C4        1.0  0.69620  0.00359  0.20816  1.0000
  C   C5        1.0  0.80380  0.00359  0.70816  1.0000
  C   C6        1.0  0.69620  0.49641  0.70816  1.0000
  C   C7        1.0  0.19620  0.50359  0.79184  1.0000
  C   C8        1.0  0.30380  0.99641  0.79184  1.0000
  H   H1        1.0  0.25840  0.02600  0.23500  1.0000
  H   H2        1.0  0.24160  0.47400  0.23500  1.0000
  H   H3        1.0  0.74160  0.52600  0.26500  1.0000
  H   H4        1.0  0.75840  0.97400  0.26500  1.0000
  H   H5        1.0  0.74160  0.97400  0.76500  1.0000
  H   H6        1.0  0.75840  0.52600  0.76500  1.0000
  H   H7        1.0  0.25840  0.47400  0.73500  1.0000
  H   H8        1.0  0.24160  0.02600  0.73500  1.0000
  C   C9        1.0  0.08650  0.13431  0.98552  1.0000
  C   C10       1.0  0.41350  0.36569  0.98552  1.0000
  C   C11       1.0  0.91350  0.63431  0.51448  1.0000
  C   C12       1.0  0.58650  0.86569  0.51448  1.0000
  C   C13       1.0  0.91350  0.86569  0.01448  1.0000
  C   C14       1.0  0.58650  0.63431  0.01448  1.0000
  C   C15       1.0  0.08650  0.36569  0.48552  1.0000
  C   C16       1.0  0.41350  0.13431  0.48552  1.0000
  H   H9        1.0  0.12360  0.12660  0.88180  1.0000
  H   H10       1.0  0.37640  0.37340  0.88180  1.0000
  H   H11       1.0  0.87640  0.62660  0.61820  1.0000
  H   H12       1.0  0.62360  0.87340  0.61820  1.0000
  H   H13       1.0  0.87640  0.87340  0.11820  1.0000
  H   H14       1.0  0.62360  0.62660  0.11820  1.0000
  H   H15       1.0  0.12360  0.37340  0.38180  1.0000
  H   H16       1.0  0.37640  0.12660  0.38180  1.0000
