data_image0
_chemical_formula_structural       Co4O32C8H8C8H8
_chemical_formula_sum              "Co4 O32 C16 H16"
_cell_length_a       7.8926
_cell_length_b       22.0966
_cell_length_c       8.5875
_cell_angle_alpha    90
_cell_angle_beta     90
_cell_angle_gamma    90

_space_group_name_H-M_alt    "P 1"
_space_group_IT_number       1

loop_
  _space_group_symop_operation_xyz
  'x, y, z'

loop_
  _atom_site_type_symbol
  _atom_site_label
  _atom_site_symmetry_multiplicity
  _atom_site_fract_x
  _atom_site_fract_y
  _atom_site_fract_z
  _atom_site_occupancy
  Co  Co1       1.0  0.00000  0.00000  0.00000  1.0000
  Co  Co2       1.0  0.50000  0.50000  0.00000  1.0000
  Co  Co3       1.0  0.00000  0.50000  0.50000  1.0000
  Co  Co4       1.0  0.50000  0.00000  0.50000  1.0000
  O   O1        1.0  0.07012  0.97466  0.22726  1.0000
  O   O2        1.0  0.42988  0.52534  0.22726  1.0000
  O   O3        1.0  0.92988  0.47466  0.27274  1.0000
  O   O4        1.0  0.57012  0.02534  0.27274  1.0000
  O   O5        1.0  0.92988  0.02534  0.77274  1.0000
  O   O6        1.0  0.57012  0.47466  0.77274  1.0000
  O   O7        1.0  0.07012  0.52534  0.72726  1.0000
  O   O8        1.0  0.42988  0.97466  0.72726  1.0000
  O   O9        1.0  0.25035  0.98288  0.42404  1.0000
  O   O10       1.0  0.24965  0.51712  0.42404  1.0000
  O   O11       1.0  0.74965  0.48288  0.07596  1.0000
  O   O12       1.0  0.75035  0.01712  0.07596  1.0000
  O   O13       1.0  0.74965  0.01712  0.57596  1.0000
  O   O14       1.0  0.75035  0.48288  0.57596  1.0000
  O   O15       1.0  0.25035  0.51712  0.92404  1.0000
  O   O16       1.0  0.24965  0.98288  0.92404  1.0000
  O   O17       1.0  0.04790  0.08997  0.06643  1.0000
  O   O18       1.0  0.45210  0.41003  0.06643  1.0000
  O   O19       1.0  0.95210  0.58997  0.43357  1.0000
  O   O20       1.0  0.54790  0.91003  0.43357  1.0000
  O   O21       1.0  0.95210  0.91003  0.93357  1.0000
  O   O22       1.0  0.54790  0.58997  0.93357  1.0000
  O   O23       1.0  0.04790  0.41003  0.56643  1.0000
  O   O24       1.0  0.45210  0.08997  0.56643  1.0000
  O   O25       1.0  0.07950  0.18760  0.02700  1.0000
  O   O26       1.0  0.42050  0.31240  0.02700  1.0000
  O   O27       1.0  0.92050  0.68760  0.47300  1.0000
  O   O28       1.0  0.57950  0.81240  0.47300  1.0000
  O   O29       1.0  0.92050  0.81240  0.97300  1.0000
  O   O30       1.0  0.57950  0.68760  0.97300  1.0000
  O   O31       1.0  0.07950  0.31240  0.52700  1.0000
  O   O32       1.0  0.42050  0.18760  0.52700  1.0000
  C   C1        1.0  0.19760  0.99659  0.29090  1.0000
  C   C2        1.0  0.30240  0.50341  0.29090  1.0000
  C   C3        1.0  0.80240  0.49659  0.20910  1.0000
  C   C4        1.0  0.69760  0.00341  0.20910  1.0000
  C   C5        1.0  0.80240  0.00341  0.70910  1.0000
  C   C6        1.0  0.69760  0.49659  0.70910  1.0000
  C   C7        1.0  0.19760  0.50341  0.79090  1.0000
  C   C8        1.0  0.30240  0.99659  0.79090  1.0000
  H   H1        1.0  0.25870  0.02540  0.23540  1.0000
  H   H2        1.0  0.24130  0.47460  0.23540  1.0000
  H   H3        1.0  0.74130  0.52540  0.26460  1.0000
  H   H4        1.0  0.75870  0.97460  0.26460  1.0000
  H   H5        1.0  0.74130  0.97460  0.76460  1.0000
  H   H6        1.0  0.75870  0.52540  0.76460  1.0000
  H   H7        1.0  0.25870  0.47460  0.73540  1.0000
  H   H8        1.0  0.24130  0.02540  0.73540  1.0000
  C   C9        1.0  0.08490  0.13425  0.98620  1.0000
  C   C10       1.0  0.41510  0.36575  0.98620  1.0000
  C   C11       1.0  0.91510  0.63425  0.51380  1.0000
  C   C12       1.0  0.58490  0.86575  0.51380  1.0000
  C   C13       1.0  0.91510  0.86575  0.01380  1.0000
  C   C14       1.0  0.58490  0.63425  0.01380  1.0000
  C   C15       1.0  0.08490  0.36575  0.48620  1.0000
  C   C16       1.0  0.41510  0.13425  0.48620  1.0000
  H   H9        1.0  0.12050  0.12660  0.88490  1.0000
  H   H10       1.0  0.37950  0.37340  0.88490  1.0000
  H   H11       1.0  0.87950  0.62660  0.61510  1.0000
  H   H12       1.0  0.62050  0.87340  0.61510  1.0000
  H   H13       1.0  0.87950  0.87340  0.11510  1.0000
  H   H14       1.0  0.62050  0.62660  0.11510  1.0000
  H   H15       1.0  0.12050  0.37340  0.38490  1.0000
  H   H16       1.0  0.37950  0.12660  0.38490  1.0000
