data_image0
_chemical_formula_structural       CuO8N2C8H2C2H2C4H2
_chemical_formula_sum              "Cu1 O8 N2 C14 H6"
_cell_length_a       7.0078
_cell_length_b       7.5881
_cell_length_c       11.3217
_cell_angle_alpha    85.343
_cell_angle_beta     72.348
_cell_angle_gamma    65.866

_space_group_name_H-M_alt    "P 1"
_space_group_IT_number       1

loop_
  _space_group_symop_operation_xyz
  'x, y, z'

loop_
  _atom_site_type_symbol
  _atom_site_label
  _atom_site_symmetry_multiplicity
  _atom_site_fract_x
  _atom_site_fract_y
  _atom_site_fract_z
  _atom_site_occupancy
  Cu  Cu1       1.0  1.00000  0.00000  0.50000  1.0000
  O   O1        1.0  0.52950  0.00710  0.24690  1.0000
  O   O2        1.0  0.47050  0.99290  0.75310  1.0000
  O   O3        1.0  0.18140  0.07440  0.35360  1.0000
  O   O4        1.0  0.81860  0.92560  0.64640  1.0000
  O   O5        1.0  0.99500  0.76080  0.33390  1.0000
  O   O6        1.0  0.00500  0.23920  0.66610  1.0000
  O   O7        1.0  0.91010  0.58510  0.22720  1.0000
  O   O8        1.0  0.08990  0.41490  0.77280  1.0000
  N   N1        1.0  0.28160  0.83780  0.52410  1.0000
  N   N2        1.0  0.71840  0.16220  0.47590  1.0000
  C   C1        1.0  0.45570  0.83490  0.42900  1.0000
  C   C2        1.0  0.54430  0.16510  0.57100  1.0000
  C   C3        1.0  0.38640  0.98170  0.33350  1.0000
  C   C4        1.0  0.61360  0.01830  0.66650  1.0000
  C   C5        1.0  0.66640  0.71590  0.42550  1.0000
  C   C6        1.0  0.33360  0.28410  0.57450  1.0000
  C   C7        1.0  0.52080  0.60710  0.62550  1.0000
  C   C8        1.0  0.47920  0.39290  0.37450  1.0000
  H   H1        1.0  0.54160  0.53180  0.69320  1.0000
  H   H2        1.0  0.45840  0.46820  0.30680  1.0000
  C   C9        1.0  0.31190  0.72970  0.62170  1.0000
  C   C10       1.0  0.68810  0.27030  0.37830  1.0000
  H   H3        1.0  0.19130  0.73680  0.68790  1.0000
  H   H4        1.0  0.80870  0.26320  0.31210  1.0000
  C   C11       1.0  0.87100  0.69020  0.31850  1.0000
  C   C12       1.0  0.12900  0.30980  0.68150  1.0000
  C   C13       1.0  0.69530  0.60020  0.52690  1.0000
  C   C14       1.0  0.30470  0.39980  0.47310  1.0000
  H   H5        1.0  0.83600  0.51680  0.52730  1.0000
  H   H6        1.0  0.16400  0.48320  0.47270  1.0000
