data_image0
_chemical_formula_structural       Cu2O16N4C8H2C2H2C2H2C10H2C2H2C2H2C2
_chemical_formula_sum              "Cu2 O16 N4 C28 H12"
_cell_length_a       8.0447
_cell_length_b       12.4673
_cell_length_c       13.4014
_cell_angle_alpha    110.964
_cell_angle_beta     95.056
_cell_angle_gamma    101.381

_space_group_name_H-M_alt    "P 1"
_space_group_IT_number       1

loop_
  _space_group_symop_operation_xyz
  'x, y, z'

loop_
  _atom_site_type_symbol
  _atom_site_label
  _atom_site_symmetry_multiplicity
  _atom_site_fract_x
  _atom_site_fract_y
  _atom_site_fract_z
  _atom_site_occupancy
  Cu  Cu1       1.0  0.50002  0.00018  0.25010  1.0000
  Cu  Cu2       1.0  0.49998  0.99982  0.74990  1.0000
  O   O1        1.0  0.43750  0.80690  0.77260  1.0000
  O   O2        1.0  0.56250  0.19310  0.22740  1.0000
  O   O3        1.0  0.44640  0.64700  0.80600  1.0000
  O   O4        1.0  0.55360  0.35300  0.19400  1.0000
  O   O5        1.0  0.76960  0.18960  0.54450  1.0000
  O   O6        1.0  0.23040  0.81040  0.45550  1.0000
  O   O7        1.0  0.69820  0.07720  0.36830  1.0000
  O   O8        1.0  0.30180  0.92280  0.63170  1.0000
  O   O9        1.0  0.56080  0.19120  0.72870  1.0000
  O   O10       1.0  0.43920  0.80880  0.27130  1.0000
  O   O11       1.0  0.55530  0.35110  0.69170  1.0000
  O   O12       1.0  0.44470  0.64890  0.30830  1.0000
  O   O13       1.0  0.30100  0.92290  0.13190  1.0000
  O   O14       1.0  0.69900  0.07710  0.86810  1.0000
  O   O15       1.0  0.23050  0.81050  0.95590  1.0000
  O   O16       1.0  0.76950  0.18950  0.04410  1.0000
  N   N1        1.0  0.37000  0.05780  0.36840  1.0000
  N   N2        1.0  0.63000  0.94220  0.63160  1.0000
  N   N3        1.0  0.62850  0.94120  0.13190  1.0000
  N   N4        1.0  0.37150  0.05880  0.86810  1.0000
  C   C1        1.0  0.48240  0.75740  0.83310  1.0000
  C   C2        1.0  0.51760  0.24260  0.16690  1.0000
  C   C3        1.0  0.47300  0.12000  0.46510  1.0000
  C   C4        1.0  0.52700  0.88000  0.53490  1.0000
  C   C5        1.0  0.40660  0.16890  0.55890  1.0000
  C   C6        1.0  0.59340  0.83110  0.44110  1.0000
  C   C7        1.0  0.22790  0.15240  0.54870  1.0000
  C   C8        1.0  0.77210  0.84760  0.45130  1.0000
  H   H1        1.0  0.17810  0.18400  0.60930  1.0000
  H   H2        1.0  0.82190  0.81600  0.39070  1.0000
  C   C9        1.0  0.12610  0.08890  0.44800  1.0000
  C   C10       1.0  0.87390  0.91110  0.55200  1.0000
  H   H3        1.0  0.00710  0.07730  0.44040  1.0000
  H   H4        1.0  0.99290  0.92270  0.55960  1.0000
  C   C11       1.0  0.20080  0.04280  0.35930  1.0000
  C   C12       1.0  0.79920  0.95720  0.64070  1.0000
  H   H5        1.0  0.13160  0.00040  0.29150  1.0000
  H   H6        1.0  0.86840  0.99960  0.70850  1.0000
  C   C13       1.0  0.66330  0.12980  0.46020  1.0000
  C   C14       1.0  0.33670  0.87020  0.53980  1.0000
  C   C15       1.0  0.51880  0.24290  0.67040  1.0000
  C   C16       1.0  0.48120  0.75710  0.32960  1.0000
  C   C17       1.0  0.33700  0.86850  0.03900  1.0000
  C   C18       1.0  0.66300  0.13150  0.96100  1.0000
  C   C19       1.0  0.52860  0.88010  0.03450  1.0000
  C   C20       1.0  0.47140  0.11990  0.96550  1.0000
  C   C21       1.0  0.80040  0.95800  0.14000  1.0000
  C   C22       1.0  0.19960  0.04200  0.86000  1.0000
  H   H7        1.0  0.86950  0.00250  0.20750  1.0000
  H   H8        1.0  0.13050  0.99750  0.79250  1.0000
  C   C23       1.0  0.87730  0.91130  0.05200  1.0000
  C   C24       1.0  0.12270  0.08870  0.94800  1.0000
  H   H9        1.0  0.99610  0.92190  0.05940  1.0000
  H   H10       1.0  0.00390  0.07810  0.94060  1.0000
  C   C25       1.0  0.77230  0.84850  0.95250  1.0000
  C   C26       1.0  0.22770  0.15150  0.04750  1.0000
  H   H11       1.0  0.82090  0.81640  0.89150  1.0000
  H   H12       1.0  0.17910  0.18360  0.10850  1.0000
  C   C27       1.0  0.59490  0.83230  0.94200  1.0000
  C   C28       1.0  0.40510  0.16770  0.05800  1.0000
