data_image0
_chemical_formula_structural       C32H8C8H8C8H8C8Cu4N8O32
_chemical_formula_sum              "C56 H24 Cu4 N8 O32"
_cell_length_a       21.6963
_cell_length_b       14.8361
_cell_length_c       6.8547
_cell_angle_alpha    90
_cell_angle_beta     102.763
_cell_angle_gamma    90

_space_group_name_H-M_alt    "P 1"
_space_group_IT_number       1

loop_
  _space_group_symop_operation_xyz
  'x, y, z'

loop_
  _atom_site_type_symbol
  _atom_site_label
  _atom_site_symmetry_multiplicity
  _atom_site_fract_x
  _atom_site_fract_y
  _atom_site_fract_z
  _atom_site_occupancy
  C   C1        1.0  0.81952  0.31260  0.73760  1.0000
  C   C2        1.0  0.18048  0.31260  0.76240  1.0000
  C   C3        1.0  0.31952  0.81260  0.73760  1.0000
  C   C4        1.0  0.68048  0.81260  0.76240  1.0000
  C   C5        1.0  0.18048  0.68740  0.26240  1.0000
  C   C6        1.0  0.81952  0.68740  0.23760  1.0000
  C   C7        1.0  0.68048  0.18740  0.26240  1.0000
  C   C8        1.0  0.31952  0.18740  0.23760  1.0000
  C   C9        1.0  0.75260  0.34510  0.65070  1.0000
  C   C10       1.0  0.24740  0.34510  0.84930  1.0000
  C   C11       1.0  0.25260  0.84510  0.65070  1.0000
  C   C12       1.0  0.74740  0.84510  0.84930  1.0000
  C   C13       1.0  0.24740  0.65490  0.34930  1.0000
  C   C14       1.0  0.75260  0.65490  0.15070  1.0000
  C   C15       1.0  0.74740  0.15490  0.34930  1.0000
  C   C16       1.0  0.25260  0.15490  0.15070  1.0000
  C   C17       1.0  0.73463  0.39460  0.47670  1.0000
  C   C18       1.0  0.26537  0.39460  0.02330  1.0000
  C   C19       1.0  0.23463  0.89460  0.47670  1.0000
  C   C20       1.0  0.76537  0.89460  0.02330  1.0000
  C   C21       1.0  0.26537  0.60540  0.52330  1.0000
  C   C22       1.0  0.73463  0.60540  0.97670  1.0000
  C   C23       1.0  0.76537  0.10540  0.52330  1.0000
  C   C24       1.0  0.23463  0.10540  0.97670  1.0000
  C   C25       1.0  0.67082  0.41550  0.41190  1.0000
  C   C26       1.0  0.32918  0.41550  0.08810  1.0000
  C   C27       1.0  0.17082  0.91550  0.41190  1.0000
  C   C28       1.0  0.82918  0.91550  0.08810  1.0000
  C   C29       1.0  0.32918  0.58450  0.58810  1.0000
  C   C30       1.0  0.67082  0.58450  0.91190  1.0000
  C   C31       1.0  0.82918  0.08450  0.58810  1.0000
  C   C32       1.0  0.17082  0.08450  0.91190  1.0000
  H   H1        1.0  0.65700  0.44730  0.29330  1.0000
  H   H2        1.0  0.34300  0.44730  0.20670  1.0000
  H   H3        1.0  0.15700  0.94730  0.29330  1.0000
  H   H4        1.0  0.84300  0.94730  0.20670  1.0000
  H   H5        1.0  0.34300  0.55270  0.70670  1.0000
  H   H6        1.0  0.65700  0.55270  0.79330  1.0000
  H   H7        1.0  0.84300  0.05270  0.70670  1.0000
  H   H8        1.0  0.15700  0.05270  0.79330  1.0000
  C   C33       1.0  0.62829  0.38940  0.52230  1.0000
  C   C34       1.0  0.37171  0.38940  0.97770  1.0000
  C   C35       1.0  0.12829  0.88940  0.52230  1.0000
  C   C36       1.0  0.87171  0.88940  0.97770  1.0000
  C   C37       1.0  0.37171  0.61060  0.47770  1.0000
  C   C38       1.0  0.62829  0.61060  0.02230  1.0000
  C   C39       1.0  0.87171  0.11060  0.47770  1.0000
  C   C40       1.0  0.12829  0.11060  0.02230  1.0000
  H   H9        1.0  0.58570  0.40340  0.47990  1.0000
  H   H10       1.0  0.41430  0.40340  0.02010  1.0000
  H   H11       1.0  0.08570  0.90340  0.47990  1.0000
  H   H12       1.0  0.91430  0.90340  0.02010  1.0000
  H   H13       1.0  0.41430  0.59660  0.52010  1.0000
  H   H14       1.0  0.58570  0.59660  0.97990  1.0000
  H   H15       1.0  0.91430  0.09660  0.52010  1.0000
  H   H16       1.0  0.08570  0.09660  0.97990  1.0000
  C   C41       1.0  0.64975  0.34200  0.69670  1.0000
  C   C42       1.0  0.35025  0.34200  0.80330  1.0000
  C   C43       1.0  0.14975  0.84200  0.69670  1.0000
  C   C44       1.0  0.85025  0.84200  0.80330  1.0000
  C   C45       1.0  0.35025  0.65800  0.30330  1.0000
  C   C46       1.0  0.64975  0.65800  0.19670  1.0000
  C   C47       1.0  0.85025  0.15800  0.30330  1.0000
  C   C48       1.0  0.14975  0.15800  0.19670  1.0000
  H   H17       1.0  0.62120  0.32540  0.77340  1.0000
  H   H18       1.0  0.37880  0.32540  0.72660  1.0000
  H   H19       1.0  0.12120  0.82540  0.77340  1.0000
  H   H20       1.0  0.87880  0.82540  0.72660  1.0000
  H   H21       1.0  0.37880  0.67460  0.22660  1.0000
  H   H22       1.0  0.62120  0.67460  0.27340  1.0000
  H   H23       1.0  0.87880  0.17460  0.22660  1.0000
  H   H24       1.0  0.12120  0.17460  0.27340  1.0000
  C   C49       1.0  0.77990  0.43000  0.35690  1.0000
  C   C50       1.0  0.22010  0.43000  0.14310  1.0000
  C   C51       1.0  0.27990  0.93000  0.35690  1.0000
  C   C52       1.0  0.72010  0.93000  0.14310  1.0000
  C   C53       1.0  0.22010  0.57000  0.64310  1.0000
  C   C54       1.0  0.77990  0.57000  0.85690  1.0000
  C   C55       1.0  0.72010  0.07000  0.64310  1.0000
  C   C56       1.0  0.27990  0.07000  0.85690  1.0000
  Cu  Cu1       1.0  0.75000  0.25000  0.00000  1.0000
  Cu  Cu2       1.0  0.25000  0.25000  0.50000  1.0000
  Cu  Cu3       1.0  0.25000  0.75000  0.00000  1.0000
  Cu  Cu4       1.0  0.75000  0.75000  0.50000  1.0000
  N   N1        1.0  0.71027  0.31950  0.75860  1.0000
  N   N2        1.0  0.28973  0.31950  0.74140  1.0000
  N   N3        1.0  0.21027  0.81950  0.75860  1.0000
  N   N4        1.0  0.78973  0.81950  0.74140  1.0000
  N   N5        1.0  0.28973  0.68050  0.24140  1.0000
  N   N6        1.0  0.71027  0.68050  0.25860  1.0000
  N   N7        1.0  0.78973  0.18050  0.24140  1.0000
  N   N8        1.0  0.21027  0.18050  0.25860  1.0000
  O   O1        1.0  0.82653  0.26851  0.90150  1.0000
  O   O2        1.0  0.17347  0.26851  0.59850  1.0000
  O   O3        1.0  0.32653  0.76851  0.90150  1.0000
  O   O4        1.0  0.67347  0.76851  0.59850  1.0000
  O   O5        1.0  0.17347  0.73149  0.09850  1.0000
  O   O6        1.0  0.82653  0.73149  0.40150  1.0000
  O   O7        1.0  0.67347  0.23149  0.09850  1.0000
  O   O8        1.0  0.32653  0.23149  0.40150  1.0000
  O   O9        1.0  0.86103  0.32740  0.64710  1.0000
  O   O10       1.0  0.13897  0.32740  0.85290  1.0000
  O   O11       1.0  0.36103  0.82740  0.64710  1.0000
  O   O12       1.0  0.63897  0.82740  0.85290  1.0000
  O   O13       1.0  0.13897  0.67260  0.35290  1.0000
  O   O14       1.0  0.86103  0.67260  0.14710  1.0000
  O   O15       1.0  0.63897  0.17260  0.35290  1.0000
  O   O16       1.0  0.36103  0.17260  0.14710  1.0000
  O   O17       1.0  0.81338  0.49770  0.41850  1.0000
  O   O18       1.0  0.18662  0.49770  0.08150  1.0000
  O   O19       1.0  0.31338  0.99770  0.41850  1.0000
  O   O20       1.0  0.68662  0.99770  0.08150  1.0000
  O   O21       1.0  0.18662  0.50230  0.58150  1.0000
  O   O22       1.0  0.81338  0.50230  0.91850  1.0000
  O   O23       1.0  0.68662  0.00230  0.58150  1.0000
  O   O24       1.0  0.31338  0.00230  0.91850  1.0000
  O   O25       1.0  0.77690  0.39630  0.18940  1.0000
  O   O26       1.0  0.22310  0.39630  0.31060  1.0000
  O   O27       1.0  0.27690  0.89630  0.18940  1.0000
  O   O28       1.0  0.72310  0.89630  0.31060  1.0000
  O   O29       1.0  0.22310  0.60370  0.81060  1.0000
  O   O30       1.0  0.77690  0.60370  0.68940  1.0000
  O   O31       1.0  0.72310  0.10370  0.81060  1.0000
  O   O32       1.0  0.27690  0.10370  0.68940  1.0000
