data_image0
_chemical_formula_structural       Ce4O16C8O16C8O4H8
_chemical_formula_sum              "Ce4 O36 C16 H8"
_cell_length_a       9.873
_cell_length_b       18.116
_cell_length_c       8.885
_cell_angle_alpha    90
_cell_angle_beta     107.959
_cell_angle_gamma    90

_space_group_name_H-M_alt    "P 1"
_space_group_IT_number       1

loop_
  _space_group_symop_operation_xyz
  'x, y, z'

loop_
  _atom_site_type_symbol
  _atom_site_label
  _atom_site_symmetry_multiplicity
  _atom_site_fract_x
  _atom_site_fract_y
  _atom_site_fract_z
  _atom_site_occupancy
  Ce  Ce1       1.0  0.90107  0.11783  0.21782  1.0000
  Ce  Ce2       1.0  0.09893  0.61783  0.28218  1.0000
  Ce  Ce3       1.0  0.09893  0.88217  0.78218  1.0000
  Ce  Ce4       1.0  0.90107  0.38217  0.71782  1.0000
  O   O1        1.0  0.03470  0.23072  0.36780  1.0000
  O   O2        1.0  0.96530  0.73072  0.13220  1.0000
  O   O3        1.0  0.96530  0.76928  0.63220  1.0000
  O   O4        1.0  0.03470  0.26928  0.86780  1.0000
  O   O5        1.0  0.79000  0.27152  0.56670  1.0000
  O   O6        1.0  0.21000  0.77152  0.93330  1.0000
  O   O7        1.0  0.21000  0.72848  0.43330  1.0000
  O   O8        1.0  0.79000  0.22848  0.06670  1.0000
  O   O9        1.0  0.80110  0.17401  0.41760  1.0000
  O   O10       1.0  0.19890  0.67401  0.08240  1.0000
  O   O11       1.0  0.19890  0.82599  0.58240  1.0000
  O   O12       1.0  0.80110  0.32599  0.91760  1.0000
  O   O13       1.0  0.03420  0.32317  0.53490  1.0000
  O   O14       1.0  0.96580  0.82317  0.96510  1.0000
  O   O15       1.0  0.96580  0.67683  0.46510  1.0000
  O   O16       1.0  0.03420  0.17683  0.03490  1.0000
  C   C1        1.0  0.98340  0.26580  0.46080  1.0000
  C   C2        1.0  0.01660  0.76580  0.03920  1.0000
  C   C3        1.0  0.01660  0.73420  0.53920  1.0000
  C   C4        1.0  0.98340  0.23420  0.96080  1.0000
  C   C5        1.0  0.84620  0.23360  0.48290  1.0000
  C   C6        1.0  0.15380  0.73360  0.01710  1.0000
  C   C7        1.0  0.15380  0.76640  0.51710  1.0000
  C   C8        1.0  0.84620  0.26640  0.98290  1.0000
  O   O17       1.0  0.09300  0.03201  0.18780  1.0000
  O   O18       1.0  0.90700  0.53201  0.31220  1.0000
  O   O19       1.0  0.90700  0.96799  0.81220  1.0000
  O   O20       1.0  0.09300  0.46799  0.68780  1.0000
  O   O21       1.0  0.15530  0.99655  0.66190  1.0000
  O   O22       1.0  0.84470  0.49655  0.83810  1.0000
  O   O23       1.0  0.84470  0.00345  0.33810  1.0000
  O   O24       1.0  0.15530  0.50345  0.16190  1.0000
  O   O25       1.0  0.08000  0.08386  0.47710  1.0000
  O   O26       1.0  0.92000  0.58386  0.02290  1.0000
  O   O27       1.0  0.92000  0.91614  0.52290  1.0000
  O   O28       1.0  0.08000  0.41614  0.97710  1.0000
  O   O29       1.0  0.17000  0.96521  0.01870  1.0000
  O   O30       1.0  0.83000  0.46521  0.48130  1.0000
  O   O31       1.0  0.83000  0.03479  0.98130  1.0000
  O   O32       1.0  0.17000  0.53479  0.51870  1.0000
  C   C9        1.0  0.07640  0.99930  0.06020  1.0000
  C   C10       1.0  0.92360  0.49930  0.43980  1.0000
  C   C11       1.0  0.92360  0.00070  0.93980  1.0000
  C   C12       1.0  0.07640  0.50070  0.56020  1.0000
  C   C13       1.0  0.06850  0.02360  0.54010  1.0000
  C   C14       1.0  0.93150  0.52360  0.95990  1.0000
  C   C15       1.0  0.93150  0.97640  0.45990  1.0000
  C   C16       1.0  0.06850  0.47640  0.04010  1.0000
  O   O33       1.0  0.63360  0.10755  0.12750  1.0000
  O   O34       1.0  0.36640  0.60755  0.37250  1.0000
  O   O35       1.0  0.36640  0.89245  0.87250  1.0000
  O   O36       1.0  0.63360  0.39245  0.62750  1.0000
  H   H1        1.0  0.58200  0.06400  0.12600  1.0000
  H   H2        1.0  0.41800  0.56400  0.37400  1.0000
  H   H3        1.0  0.41800  0.93600  0.87400  1.0000
  H   H4        1.0  0.58200  0.43600  0.62600  1.0000
  H   H5        1.0  0.58400  0.13900  0.14700  1.0000
  H   H6        1.0  0.41600  0.63900  0.35300  1.0000
  H   H7        1.0  0.41600  0.86100  0.85300  1.0000
  H   H8        1.0  0.58400  0.36100  0.64700  1.0000
