data_image0
_chemical_formula_structural       Mo20P8O84C4H8C8H4C4H4C4H4C4H4C8H8
_chemical_formula_sum              "Mo20 P8 O84 C32 H32"
_cell_length_a       14.574
_cell_length_b       17.358
_cell_length_c       20.413
_cell_angle_alpha    90
_cell_angle_beta     90
_cell_angle_gamma    90

_space_group_name_H-M_alt    "P 1"
_space_group_IT_number       1

loop_
  _space_group_symop_operation_xyz
  'x, y, z'

loop_
  _atom_site_type_symbol
  _atom_site_label
  _atom_site_symmetry_multiplicity
  _atom_site_fract_x
  _atom_site_fract_y
  _atom_site_fract_z
  _atom_site_occupancy
  Mo  Mo1       1.0  0.46730  0.05527  0.04360  1.0000
  Mo  Mo2       1.0  0.03270  0.94473  0.54360  1.0000
  Mo  Mo3       1.0  0.53270  0.55527  0.45640  1.0000
  Mo  Mo4       1.0  0.96730  0.44473  0.95640  1.0000
  Mo  Mo5       1.0  0.41800  0.20117  0.14679  1.0000
  Mo  Mo6       1.0  0.08200  0.79883  0.64679  1.0000
  Mo  Mo7       1.0  0.58200  0.70117  0.35321  1.0000
  Mo  Mo8       1.0  0.91800  0.29883  0.85321  1.0000
  Mo  Mo9       1.0  0.22436  0.16188  0.22870  1.0000
  Mo  Mo10      1.0  0.27564  0.83812  0.72870  1.0000
  Mo  Mo11      1.0  0.77564  0.66188  0.27130  1.0000
  Mo  Mo12      1.0  0.72436  0.33812  0.77130  1.0000
  Mo  Mo13      1.0  0.12277  0.99822  0.15184  1.0000
  Mo  Mo14      1.0  0.37723  0.00178  0.65184  1.0000
  Mo  Mo15      1.0  0.87723  0.49822  0.34816  1.0000
  Mo  Mo16      1.0  0.62277  0.50178  0.84816  1.0000
  Mo  Mo17      1.0  0.31402  0.91297  0.06053  1.0000
  Mo  Mo18      1.0  0.18598  0.08703  0.56053  1.0000
  Mo  Mo19      1.0  0.68598  0.41297  0.43947  1.0000
  Mo  Mo20      1.0  0.81402  0.58703  0.93947  1.0000
  P   P1        1.0  0.36256  0.01276  0.19342  1.0000
  P   P2        1.0  0.13744  0.98724  0.69342  1.0000
  P   P3        1.0  0.63744  0.51276  0.30658  1.0000
  P   P4        1.0  0.86256  0.48724  0.80658  1.0000
  P   P5        1.0  0.25662  0.88578  0.56068  1.0000
  P   P6        1.0  0.24338  0.11422  0.06068  1.0000
  P   P7        1.0  0.74338  0.38578  0.93932  1.0000
  P   P8        1.0  0.75662  0.61422  0.43932  1.0000
  O   O1        1.0  0.43770  0.94940  0.05050  1.0000
  O   O2        1.0  0.06230  0.05060  0.55050  1.0000
  O   O3        1.0  0.56230  0.44940  0.44950  1.0000
  O   O4        1.0  0.93770  0.55060  0.94950  1.0000
  O   O5        1.0  0.47290  0.06680  0.96040  1.0000
  O   O6        1.0  0.02710  0.93320  0.46040  1.0000
  O   O7        1.0  0.52710  0.56680  0.53960  1.0000
  O   O8        1.0  0.97290  0.43320  0.03960  1.0000
  O   O9        1.0  0.57910  0.04930  0.06680  1.0000
  O   O10       1.0  0.92090  0.95070  0.56680  1.0000
  O   O11       1.0  0.42090  0.54930  0.43320  1.0000
  O   O12       1.0  0.07910  0.45070  0.93320  1.0000
  O   O13       1.0  0.44470  0.16380  0.06160  1.0000
  O   O14       1.0  0.05530  0.83620  0.56160  1.0000
  O   O15       1.0  0.55530  0.66380  0.43840  1.0000
  O   O16       1.0  0.94470  0.33620  0.93840  1.0000
  O   O17       1.0  0.42520  0.06670  0.15410  1.0000
  O   O18       1.0  0.07480  0.93330  0.65410  1.0000
  O   O19       1.0  0.57480  0.56670  0.34590  1.0000
  O   O20       1.0  0.92520  0.43330  0.84590  1.0000
  O   O21       1.0  0.52390  0.20700  0.18210  1.0000
  O   O22       1.0  0.97610  0.79300  0.68210  1.0000
  O   O23       1.0  0.47610  0.70700  0.31790  1.0000
  O   O24       1.0  0.02390  0.29300  0.81790  1.0000
  O   O25       1.0  0.39120  0.29430  0.12960  1.0000
  O   O26       1.0  0.10880  0.70570  0.62960  1.0000
  O   O27       1.0  0.60880  0.79430  0.37040  1.0000
  O   O28       1.0  0.89120  0.20570  0.87040  1.0000
  O   O29       1.0  0.34850  0.18610  0.22800  1.0000
  O   O30       1.0  0.15150  0.81390  0.72800  1.0000
  O   O31       1.0  0.65150  0.68610  0.27200  1.0000
  O   O32       1.0  0.84850  0.31390  0.77200  1.0000
  O   O33       1.0  0.17080  0.24900  0.21930  1.0000
  O   O34       1.0  0.32920  0.75100  0.71930  1.0000
  O   O35       1.0  0.82920  0.74900  0.28070  1.0000
  O   O36       1.0  0.67080  0.25100  0.78070  1.0000
  O   O37       1.0  0.21350  0.14350  0.30950  1.0000
  O   O38       1.0  0.28650  0.85650  0.80950  1.0000
  O   O39       1.0  0.78650  0.64350  0.19050  1.0000
  O   O40       1.0  0.71350  0.35650  0.69050  1.0000
  O   O41       1.0  0.10880  0.10420  0.19600  1.0000
  O   O42       1.0  0.39120  0.89580  0.69600  1.0000
  O   O43       1.0  0.89120  0.60420  0.30400  1.0000
  O   O44       1.0  0.60880  0.39580  0.80400  1.0000
  O   O45       1.0  0.26450  0.04690  0.19970  1.0000
  O   O46       1.0  0.23550  0.95310  0.69970  1.0000
  O   O47       1.0  0.73550  0.54690  0.30030  1.0000
  O   O48       1.0  0.76450  0.45310  0.80030  1.0000
  O   O49       1.0  0.01490  0.98700  0.12150  1.0000
  O   O50       1.0  0.48510  0.01300  0.62150  1.0000
  O   O51       1.0  0.98510  0.48700  0.37850  1.0000
  O   O52       1.0  0.51490  0.51300  0.87850  1.0000
  O   O53       1.0  0.11520  0.94950  0.22470  1.0000
  O   O54       1.0  0.38480  0.05050  0.72470  1.0000
  O   O55       1.0  0.88480  0.44950  0.27530  1.0000
  O   O56       1.0  0.61520  0.55050  0.77530  1.0000
  O   O57       1.0  0.19360  0.93050  0.10180  1.0000
  O   O58       1.0  0.30640  0.06950  0.60180  1.0000
  O   O59       1.0  0.80640  0.43050  0.39820  1.0000
  O   O60       1.0  0.69360  0.56950  0.89820  1.0000
  O   O61       1.0  0.35610  0.93370  0.16380  1.0000
  O   O62       1.0  0.14390  0.06630  0.66380  1.0000
  O   O63       1.0  0.64390  0.43370  0.33620  1.0000
  O   O64       1.0  0.85610  0.56630  0.83620  1.0000
  O   O65       1.0  0.33480  0.81790  0.07350  1.0000
  O   O66       1.0  0.16520  0.18210  0.57350  1.0000
  O   O67       1.0  0.66520  0.31790  0.42650  1.0000
  O   O68       1.0  0.83480  0.68210  0.92650  1.0000
  O   O69       1.0  0.27930  0.91350  0.98090  1.0000
  O   O70       1.0  0.22070  0.08650  0.48090  1.0000
  O   O71       1.0  0.72070  0.41350  0.51910  1.0000
  O   O72       1.0  0.77930  0.58650  0.01910  1.0000
  O   O73       1.0  0.18540  0.95020  0.55030  1.0000
  O   O74       1.0  0.31460  0.04980  0.05030  1.0000
  O   O75       1.0  0.81460  0.45020  0.94970  1.0000
  O   O76       1.0  0.68540  0.54980  0.44970  1.0000
  O   O77       1.0  0.22950  0.83170  0.61750  1.0000
  O   O78       1.0  0.27050  0.16830  0.11750  1.0000
  O   O79       1.0  0.77050  0.33170  0.88250  1.0000
  O   O80       1.0  0.72950  0.66830  0.38250  1.0000
  O   O81       1.0  0.34970  0.92160  0.57250  1.0000
  O   O82       1.0  0.15030  0.07840  0.07250  1.0000
  O   O83       1.0  0.65030  0.42160  0.92750  1.0000
  O   O84       1.0  0.84970  0.57840  0.42750  1.0000
  C   C1        1.0  0.41390  0.00630  0.27310  1.0000
  C   C2        1.0  0.08610  0.99370  0.77310  1.0000
  C   C3        1.0  0.58610  0.50630  0.22690  1.0000
  C   C4        1.0  0.91390  0.49370  0.72690  1.0000
  H   H1        1.0  0.47680  0.98920  0.26730  1.0000
  H   H2        1.0  0.02320  0.01080  0.76730  1.0000
  H   H3        1.0  0.52320  0.48920  0.23270  1.0000
  H   H4        1.0  0.97680  0.51080  0.73270  1.0000
  H   H5        1.0  0.41640  0.05790  0.29120  1.0000
  H   H6        1.0  0.08360  0.94210  0.79120  1.0000
  H   H7        1.0  0.58360  0.55790  0.20880  1.0000
  H   H8        1.0  0.91640  0.44210  0.70880  1.0000
  C   C5        1.0  0.36970  0.95470  0.32350  1.0000
  C   C6        1.0  0.13030  0.04530  0.82350  1.0000
  C   C7        1.0  0.63030  0.45470  0.17650  1.0000
  C   C8        1.0  0.86970  0.54530  0.67650  1.0000
  C   C9        1.0  0.28210  0.96960  0.34700  1.0000
  C   C10       1.0  0.21790  0.03040  0.84700  1.0000
  C   C11       1.0  0.71790  0.46960  0.15300  1.0000
  C   C12       1.0  0.78210  0.53040  0.65300  1.0000
  H   H9        1.0  0.24710  0.00810  0.32760  1.0000
  H   H10       1.0  0.25290  0.99190  0.82760  1.0000
  H   H11       1.0  0.75290  0.50810  0.17240  1.0000
  H   H12       1.0  0.74710  0.49190  0.67240  1.0000
  C   C13       1.0  0.41820  0.89530  0.35250  1.0000
  C   C14       1.0  0.08180  0.10470  0.85250  1.0000
  C   C15       1.0  0.58180  0.39530  0.14750  1.0000
  C   C16       1.0  0.91820  0.60470  0.64750  1.0000
  H   H13       1.0  0.47610  0.88300  0.33640  1.0000
  H   H14       1.0  0.02390  0.11700  0.83640  1.0000
  H   H15       1.0  0.52390  0.38300  0.16360  1.0000
  H   H16       1.0  0.97610  0.61700  0.66360  1.0000
  C   C17       1.0  0.24600  0.92810  0.39880  1.0000
  C   C18       1.0  0.25400  0.07190  0.89880  1.0000
  C   C19       1.0  0.75400  0.42810  0.10120  1.0000
  C   C20       1.0  0.74600  0.57190  0.60120  1.0000
  H   H17       1.0  0.18710  0.93920  0.41360  1.0000
  H   H18       1.0  0.31290  0.06080  0.91360  1.0000
  H   H19       1.0  0.81290  0.43920  0.08640  1.0000
  H   H20       1.0  0.68710  0.56080  0.58640  1.0000
  C   C21       1.0  0.38340  0.85370  0.40440  1.0000
  C   C22       1.0  0.11660  0.14630  0.90440  1.0000
  C   C23       1.0  0.61660  0.35370  0.09560  1.0000
  C   C24       1.0  0.88340  0.64630  0.59560  1.0000
  H   H21       1.0  0.41810  0.81450  0.42300  1.0000
  H   H22       1.0  0.08190  0.18550  0.92300  1.0000
  H   H23       1.0  0.58190  0.31450  0.07700  1.0000
  H   H24       1.0  0.91810  0.68550  0.57700  1.0000
  C   C25       1.0  0.29630  0.87030  0.42910  1.0000
  C   C26       1.0  0.20370  0.12970  0.92910  1.0000
  C   C27       1.0  0.70370  0.37030  0.07090  1.0000
  C   C28       1.0  0.79630  0.62970  0.57090  1.0000
  C   C29       1.0  0.25990  0.82800  0.48820  1.0000
  C   C30       1.0  0.24010  0.17200  0.98820  1.0000
  C   C31       1.0  0.74010  0.32800  0.01180  1.0000
  C   C32       1.0  0.75990  0.67200  0.51180  1.0000
  H   H25       1.0  0.29810  0.78320  0.49630  1.0000
  H   H26       1.0  0.20190  0.21680  0.99630  1.0000
  H   H27       1.0  0.70190  0.28320  0.00370  1.0000
  H   H28       1.0  0.79810  0.71680  0.50370  1.0000
  H   H29       1.0  0.19830  0.80990  0.47870  1.0000
  H   H30       1.0  0.30170  0.19010  0.97870  1.0000
  H   H31       1.0  0.80170  0.30990  0.02130  1.0000
  H   H32       1.0  0.69830  0.69010  0.52130  1.0000
