data_image0
_chemical_formula_structural       Mo20P8O84C4H8C8H4C4H4C8H4C4H4C4H8
_chemical_formula_sum              "Mo20 P8 O84 C32 H32"
_cell_length_a       11.4959
_cell_length_b       19.4686
_cell_length_c       18.3104
_cell_angle_alpha    90
_cell_angle_beta     105.464
_cell_angle_gamma    90

_space_group_name_H-M_alt    "P 1"
_space_group_IT_number       1

loop_
  _space_group_symop_operation_xyz
  'x, y, z'

loop_
  _atom_site_type_symbol
  _atom_site_label
  _atom_site_symmetry_multiplicity
  _atom_site_fract_x
  _atom_site_fract_y
  _atom_site_fract_z
  _atom_site_occupancy
  Mo  Mo1       1.0  0.60957  0.67461  0.34370  1.0000
  Mo  Mo2       1.0  0.39043  0.17461  0.15630  1.0000
  Mo  Mo3       1.0  0.39043  0.32539  0.65630  1.0000
  Mo  Mo4       1.0  0.60957  0.82539  0.84370  1.0000
  Mo  Mo5       1.0  0.64208  0.82537  0.43846  1.0000
  Mo  Mo6       1.0  0.35792  0.32537  0.06154  1.0000
  Mo  Mo7       1.0  0.35792  0.17463  0.56154  1.0000
  Mo  Mo8       1.0  0.64208  0.67463  0.93846  1.0000
  Mo  Mo9       1.0  0.96519  0.86512  0.48018  1.0000
  Mo  Mo10      1.0  0.03481  0.36512  0.01982  1.0000
  Mo  Mo11      1.0  0.03481  0.13488  0.51982  1.0000
  Mo  Mo12      1.0  0.96519  0.63488  0.98018  1.0000
  Mo  Mo13      1.0  0.10245  0.71388  0.47612  1.0000
  Mo  Mo14      1.0  0.89755  0.21388  0.02388  1.0000
  Mo  Mo15      1.0  0.89755  0.28612  0.52388  1.0000
  Mo  Mo16      1.0  0.10245  0.78612  0.97612  1.0000
  Mo  Mo17      1.0  0.88814  0.60093  0.38125  1.0000
  Mo  Mo18      1.0  0.11186  0.10093  0.11875  1.0000
  Mo  Mo19      1.0  0.11186  0.39907  0.61875  1.0000
  Mo  Mo20      1.0  0.88814  0.89907  0.88125  1.0000
  P   P1        1.0  0.83474  0.70650  0.51705  1.0000
  P   P2        1.0  0.16526  0.20650  0.98295  1.0000
  P   P3        1.0  0.16526  0.29350  0.48295  1.0000
  P   P4        1.0  0.83474  0.79350  0.01705  1.0000
  P   P5        1.0  0.84865  0.72698  0.82856  1.0000
  P   P6        1.0  0.15135  0.22698  0.67144  1.0000
  P   P7        1.0  0.15135  0.27302  0.17144  1.0000
  P   P8        1.0  0.84865  0.77302  0.32856  1.0000
  O   O1        1.0  0.54275  0.60336  0.36913  1.0000
  O   O2        1.0  0.45725  0.10336  0.13087  1.0000
  O   O3        1.0  0.45725  0.39664  0.63087  1.0000
  O   O4        1.0  0.54275  0.89664  0.86913  1.0000
  O   O5        1.0  0.52195  0.69634  0.25593  1.0000
  O   O6        1.0  0.47805  0.19634  0.24407  1.0000
  O   O7        1.0  0.47805  0.30366  0.74407  1.0000
  O   O8        1.0  0.52195  0.80366  0.75593  1.0000
  O   O9        1.0  0.55743  0.73885  0.40812  1.0000
  O   O10       1.0  0.44257  0.23885  0.09188  1.0000
  O   O11       1.0  0.44257  0.26115  0.59188  1.0000
  O   O12       1.0  0.55743  0.76115  0.90812  1.0000
  O   O13       1.0  0.73120  0.73629  0.85408  1.0000
  O   O14       1.0  0.26880  0.23629  0.64592  1.0000
  O   O15       1.0  0.26880  0.26371  0.14592  1.0000
  O   O16       1.0  0.73120  0.76371  0.35408  1.0000
  O   O17       1.0  0.73829  0.63075  0.31114  1.0000
  O   O18       1.0  0.26171  0.13075  0.18886  1.0000
  O   O19       1.0  0.26171  0.36925  0.68886  1.0000
  O   O20       1.0  0.73829  0.86925  0.81114  1.0000
  O   O21       1.0  0.78137  0.65473  0.45308  1.0000
  O   O22       1.0  0.21863  0.15473  0.04692  1.0000
  O   O23       1.0  0.21863  0.34527  0.54692  1.0000
  O   O24       1.0  0.78137  0.84527  0.95308  1.0000
  O   O25       1.0  0.73765  0.75280  0.53090  1.0000
  O   O26       1.0  0.26235  0.25280  0.96910  1.0000
  O   O27       1.0  0.26235  0.24720  0.46910  1.0000
  O   O28       1.0  0.73765  0.74720  0.03090  1.0000
  O   O29       1.0  0.56713  0.85447  0.50233  1.0000
  O   O30       1.0  0.43287  0.35447  0.99767  1.0000
  O   O31       1.0  0.43287  0.14553  0.49767  1.0000
  O   O32       1.0  0.56713  0.64553  0.00233  1.0000
  O   O33       1.0  0.57575  0.87331  0.36019  1.0000
  O   O34       1.0  0.42425  0.37331  0.13981  1.0000
  O   O35       1.0  0.42425  0.12669  0.63981  1.0000
  O   O36       1.0  0.57575  0.62669  0.86019  1.0000
  O   O37       1.0  0.79251  0.86962  0.46651  1.0000
  O   O38       1.0  0.20749  0.36962  0.03349  1.0000
  O   O39       1.0  0.20749  0.13038  0.53349  1.0000
  O   O40       1.0  0.79251  0.63038  0.96651  1.0000
  O   O41       1.0  0.00722  0.87143  0.57679  1.0000
  O   O42       1.0  0.99278  0.37143  0.92321  1.0000
  O   O43       1.0  0.99278  0.12857  0.42321  1.0000
  O   O44       1.0  0.00722  0.62857  0.07679  1.0000
  O   O45       1.0  0.00007  0.94363  0.45147  1.0000
  O   O46       1.0  0.99993  0.44363  0.04853  1.0000
  O   O47       1.0  0.99993  0.05637  0.54853  1.0000
  O   O48       1.0  0.00007  0.55637  0.95147  1.0000
  O   O49       1.0  0.90586  0.65923  0.85816  1.0000
  O   O50       1.0  0.09414  0.15923  0.64184  1.0000
  O   O51       1.0  0.09414  0.34077  0.14184  1.0000
  O   O52       1.0  0.90586  0.84077  0.35816  1.0000
  O   O53       1.0  0.93493  0.74982  0.49697  1.0000
  O   O54       1.0  0.06507  0.24982  0.00303  1.0000
  O   O55       1.0  0.06507  0.25018  0.50303  1.0000
  O   O56       1.0  0.93493  0.75018  0.99697  1.0000
  O   O57       1.0  0.10185  0.81218  0.46379  1.0000
  O   O58       1.0  0.89815  0.31218  0.03621  1.0000
  O   O59       1.0  0.89815  0.18782  0.53621  1.0000
  O   O60       1.0  0.10185  0.68782  0.96379  1.0000
  O   O61       1.0  0.17570  0.70690  0.56938  1.0000
  O   O62       1.0  0.82430  0.20690  0.93062  1.0000
  O   O63       1.0  0.82430  0.29310  0.43062  1.0000
  O   O64       1.0  0.17570  0.79310  0.06938  1.0000
  O   O65       1.0  0.21059  0.69891  0.42857  1.0000
  O   O66       1.0  0.78941  0.19891  0.07143  1.0000
  O   O67       1.0  0.78941  0.30109  0.57143  1.0000
  O   O68       1.0  0.21059  0.80109  0.92857  1.0000
  O   O69       1.0  0.02074  0.62625  0.46217  1.0000
  O   O70       1.0  0.97926  0.12625  0.03783  1.0000
  O   O71       1.0  0.97926  0.37375  0.53783  1.0000
  O   O72       1.0  0.02074  0.87375  0.96217  1.0000
  O   O73       1.0  0.93637  0.78730  0.85500  1.0000
  O   O74       1.0  0.06363  0.28730  0.64500  1.0000
  O   O75       1.0  0.06363  0.21270  0.14500  1.0000
  O   O76       1.0  0.93637  0.71270  0.35500  1.0000
  O   O77       1.0  0.95343  0.57468  0.31174  1.0000
  O   O78       1.0  0.04657  0.07468  0.18826  1.0000
  O   O79       1.0  0.04657  0.42532  0.68826  1.0000
  O   O80       1.0  0.95343  0.92532  0.81174  1.0000
  O   O81       1.0  0.84375  0.52470  0.41231  1.0000
  O   O82       1.0  0.15625  0.02470  0.08769  1.0000
  O   O83       1.0  0.15625  0.47530  0.58769  1.0000
  O   O84       1.0  0.84375  0.97530  0.91231  1.0000
  C   C1        1.0  0.91177  0.66165  0.60232  1.0000
  C   C2        1.0  0.08823  0.16165  0.89768  1.0000
  C   C3        1.0  0.08823  0.33835  0.39768  1.0000
  C   C4        1.0  0.91177  0.83835  0.10232  1.0000
  H   H1        1.0  0.97020  0.62910  0.59020  1.0000
  H   H2        1.0  0.02980  0.12910  0.90980  1.0000
  H   H3        1.0  0.02980  0.37090  0.40980  1.0000
  H   H4        1.0  0.97020  0.87090  0.09020  1.0000
  H   H5        1.0  0.95810  0.69530  0.63930  1.0000
  H   H6        1.0  0.04190  0.19530  0.86070  1.0000
  H   H7        1.0  0.04190  0.30470  0.36070  1.0000
  H   H8        1.0  0.95810  0.80470  0.13930  1.0000
  C   C5        1.0  0.82881  0.62250  0.63861  1.0000
  C   C6        1.0  0.17119  0.12250  0.86139  1.0000
  C   C7        1.0  0.17119  0.37750  0.36139  1.0000
  C   C8        1.0  0.82881  0.87750  0.13861  1.0000
  C   C9        1.0  0.80030  0.55493  0.61434  1.0000
  C   C10       1.0  0.19970  0.05493  0.88566  1.0000
  C   C11       1.0  0.19970  0.44507  0.38566  1.0000
  C   C12       1.0  0.80030  0.94507  0.11434  1.0000
  H   H9        1.0  0.83690  0.53530  0.57840  1.0000
  H   H10       1.0  0.16310  0.03530  0.92160  1.0000
  H   H11       1.0  0.16310  0.46470  0.42160  1.0000
  H   H12       1.0  0.83690  0.96470  0.07840  1.0000
  C   C13       1.0  0.72030  0.51619  0.64149  1.0000
  C   C14       1.0  0.27970  0.01619  0.85851  1.0000
  C   C15       1.0  0.27970  0.48381  0.35851  1.0000
  C   C16       1.0  0.72030  0.98381  0.14149  1.0000
  H   H13       1.0  0.70260  0.47020  0.62490  1.0000
  H   H14       1.0  0.29740  0.97020  0.87510  1.0000
  H   H15       1.0  0.29740  0.52980  0.37510  1.0000
  H   H16       1.0  0.70260  0.02980  0.12490  1.0000
  C   C17       1.0  0.77801  0.65113  0.69348  1.0000
  C   C18       1.0  0.22199  0.15113  0.80652  1.0000
  C   C19       1.0  0.22199  0.34887  0.30652  1.0000
  C   C20       1.0  0.77801  0.84887  0.19348  1.0000
  C   C21       1.0  0.69587  0.61125  0.71946  1.0000
  C   C22       1.0  0.30413  0.11125  0.78054  1.0000
  C   C23       1.0  0.30413  0.38875  0.28054  1.0000
  C   C24       1.0  0.69587  0.88875  0.21946  1.0000
  H   H17       1.0  0.65970  0.63010  0.75600  1.0000
  H   H18       1.0  0.34030  0.13010  0.74400  1.0000
  H   H19       1.0  0.34030  0.36990  0.24400  1.0000
  H   H20       1.0  0.65970  0.86990  0.25600  1.0000
  C   C25       1.0  0.66600  0.54523  0.69334  1.0000
  C   C26       1.0  0.33400  0.04523  0.80666  1.0000
  C   C27       1.0  0.33400  0.45477  0.30666  1.0000
  C   C28       1.0  0.66600  0.95477  0.19334  1.0000
  H   H21       1.0  0.60830  0.51970  0.71090  1.0000
  H   H22       1.0  0.39170  0.01970  0.78910  1.0000
  H   H23       1.0  0.39170  0.48030  0.28910  1.0000
  H   H24       1.0  0.60830  0.98030  0.21090  1.0000
  C   C29       1.0  0.80858  0.72290  0.72547  1.0000
  C   C30       1.0  0.19142  0.22290  0.77453  1.0000
  C   C31       1.0  0.19142  0.27710  0.27453  1.0000
  C   C32       1.0  0.80858  0.77710  0.22547  1.0000
  H   H25       1.0  0.87680  0.74090  0.70770  1.0000
  H   H26       1.0  0.12320  0.24090  0.79230  1.0000
  H   H27       1.0  0.12320  0.25910  0.29230  1.0000
  H   H28       1.0  0.87680  0.75910  0.20770  1.0000
  H   H29       1.0  0.73830  0.75320  0.70500  1.0000
  H   H30       1.0  0.26170  0.25320  0.79500  1.0000
  H   H31       1.0  0.26170  0.24680  0.29500  1.0000
  H   H32       1.0  0.73830  0.74680  0.20500  1.0000
