data_image0
_chemical_formula_structural       Mo20P8O84C4H8C8H4C4H4C4H4C4H4C8H8
_chemical_formula_sum              "Mo20 P8 O84 C32 H32"
_cell_length_a       23.327
_cell_length_b       21.115
_cell_length_c       9.7462
_cell_angle_alpha    90
_cell_angle_beta     90
_cell_angle_gamma    90

_space_group_name_H-M_alt    "P 1"
_space_group_IT_number       1

loop_
  _space_group_symop_operation_xyz
  'x, y, z'

loop_
  _atom_site_type_symbol
  _atom_site_label
  _atom_site_symmetry_multiplicity
  _atom_site_fract_x
  _atom_site_fract_y
  _atom_site_fract_z
  _atom_site_occupancy
  Mo  Mo1       1.0  0.75696  0.92314  0.32527  1.0000
  Mo  Mo2       1.0  0.24304  0.07686  0.82527  1.0000
  Mo  Mo3       1.0  0.74304  0.42314  0.82527  1.0000
  Mo  Mo4       1.0  0.25696  0.57686  0.32527  1.0000
  Mo  Mo5       1.0  0.61693  0.93485  0.23037  1.0000
  Mo  Mo6       1.0  0.38307  0.06515  0.73037  1.0000
  Mo  Mo7       1.0  0.88307  0.43485  0.73037  1.0000
  Mo  Mo8       1.0  0.11693  0.56515  0.23037  1.0000
  Mo  Mo9       1.0  0.61298  0.07301  0.99838  1.0000
  Mo  Mo10      1.0  0.38702  0.92699  0.49838  1.0000
  Mo  Mo11      1.0  0.88702  0.57301  0.49838  1.0000
  Mo  Mo12      1.0  0.11298  0.42699  0.99838  1.0000
  Mo  Mo13      1.0  0.75036  0.09118  0.89464  1.0000
  Mo  Mo14      1.0  0.24964  0.90882  0.39464  1.0000
  Mo  Mo15      1.0  0.74964  0.59118  0.39464  1.0000
  Mo  Mo16      1.0  0.25036  0.40882  0.89464  1.0000
  Mo  Mo17      1.0  0.83816  0.00636  0.10279  1.0000
  Mo  Mo18      1.0  0.16184  0.99364  0.60279  1.0000
  Mo  Mo19      1.0  0.66184  0.50636  0.60279  1.0000
  Mo  Mo20      1.0  0.33816  0.49364  0.10279  1.0000
  P   P1        1.0  0.71081  0.07357  0.23760  1.0000
  P   P2        1.0  0.28919  0.92643  0.73760  1.0000
  P   P3        1.0  0.78919  0.57357  0.73760  1.0000
  P   P4        1.0  0.21081  0.42643  0.23760  1.0000
  P   P5        1.0  0.78928  0.43757  0.48190  1.0000
  P   P6        1.0  0.21072  0.56243  0.98190  1.0000
  P   P7        1.0  0.71072  0.93757  0.98190  1.0000
  P   P8        1.0  0.28928  0.06243  0.48190  1.0000
  O   O1        1.0  0.69860  0.00420  0.28060  1.0000
  O   O2        1.0  0.30140  0.99580  0.78060  1.0000
  O   O3        1.0  0.80140  0.50420  0.78060  1.0000
  O   O4        1.0  0.19860  0.49580  0.28060  1.0000
  O   O5        1.0  0.68020  0.88740  0.29780  1.0000
  O   O6        1.0  0.31980  0.11260  0.79780  1.0000
  O   O7        1.0  0.81980  0.38740  0.79780  1.0000
  O   O8        1.0  0.18020  0.61260  0.29780  1.0000
  O   O9        1.0  0.75500  0.93400  0.50040  1.0000
  O   O10       1.0  0.24500  0.06600  0.00040  1.0000
  O   O11       1.0  0.74500  0.43400  0.00040  1.0000
  O   O12       1.0  0.25500  0.56600  0.50040  1.0000
  O   O13       1.0  0.79270  0.85300  0.30530  1.0000
  O   O14       1.0  0.20730  0.14700  0.80530  1.0000
  O   O15       1.0  0.70730  0.35300  0.80530  1.0000
  O   O16       1.0  0.29270  0.64700  0.30530  1.0000
  O   O17       1.0  0.81620  0.98390  0.28780  1.0000
  O   O18       1.0  0.18380  0.01610  0.78780  1.0000
  O   O19       1.0  0.68380  0.48390  0.78780  1.0000
  O   O20       1.0  0.31620  0.51610  0.28780  1.0000
  O   O21       1.0  0.59420  0.96530  0.39140  1.0000
  O   O22       1.0  0.40580  0.03470  0.89140  1.0000
  O   O23       1.0  0.90580  0.46530  0.89140  1.0000
  O   O24       1.0  0.09420  0.53470  0.39140  1.0000
  O   O25       1.0  0.56510  0.87890  0.20360  1.0000
  O   O26       1.0  0.43490  0.12110  0.70360  1.0000
  O   O27       1.0  0.93490  0.37890  0.70360  1.0000
  O   O28       1.0  0.06510  0.62110  0.20360  1.0000
  O   O29       1.0  0.59260  0.00360  0.11230  1.0000
  O   O30       1.0  0.40740  0.99640  0.61230  1.0000
  O   O31       1.0  0.90740  0.50360  0.61230  1.0000
  O   O32       1.0  0.09260  0.49640  0.11230  1.0000
  O   O33       1.0  0.58950  0.04280  0.83530  1.0000
  O   O34       1.0  0.41050  0.95720  0.33530  1.0000
  O   O35       1.0  0.91050  0.54280  0.33530  1.0000
  O   O36       1.0  0.08950  0.45720  0.83530  1.0000
  O   O37       1.0  0.56070  0.12660  0.02740  1.0000
  O   O38       1.0  0.43930  0.87340  0.52740  1.0000
  O   O39       1.0  0.93930  0.62660  0.52740  1.0000
  O   O40       1.0  0.06070  0.37340  0.02740  1.0000
  O   O41       1.0  0.65510  0.10290  0.18580  1.0000
  O   O42       1.0  0.34490  0.89710  0.68580  1.0000
  O   O43       1.0  0.84490  0.60290  0.68580  1.0000
  O   O44       1.0  0.15510  0.39710  0.18580  1.0000
  O   O45       1.0  0.67320  0.12340  0.92880  1.0000
  O   O46       1.0  0.32680  0.87660  0.42880  1.0000
  O   O47       1.0  0.82680  0.62340  0.42880  1.0000
  O   O48       1.0  0.17320  0.37660  0.92880  1.0000
  O   O49       1.0  0.74540  0.08140  0.72070  1.0000
  O   O50       1.0  0.25460  0.91860  0.22070  1.0000
  O   O51       1.0  0.75460  0.58140  0.22070  1.0000
  O   O52       1.0  0.24540  0.41860  0.72070  1.0000
  O   O53       1.0  0.78580  0.16160  0.91330  1.0000
  O   O54       1.0  0.21420  0.83840  0.41330  1.0000
  O   O55       1.0  0.71420  0.66160  0.41330  1.0000
  O   O56       1.0  0.28580  0.33840  0.91330  1.0000
  O   O57       1.0  0.81160  0.03050  0.92230  1.0000
  O   O58       1.0  0.18840  0.96950  0.42230  1.0000
  O   O59       1.0  0.68840  0.53050  0.42230  1.0000
  O   O60       1.0  0.31160  0.46950  0.92230  1.0000
  O   O61       1.0  0.75940  0.07560  0.12880  1.0000
  O   O62       1.0  0.24060  0.92440  0.62880  1.0000
  O   O63       1.0  0.74060  0.57560  0.62880  1.0000
  O   O64       1.0  0.25940  0.42440  0.12880  1.0000
  O   O65       1.0  0.88280  0.94580  0.05970  1.0000
  O   O66       1.0  0.11720  0.05420  0.55970  1.0000
  O   O67       1.0  0.61720  0.44580  0.55970  1.0000
  O   O68       1.0  0.38280  0.55420  0.05970  1.0000
  O   O69       1.0  0.88310  0.06780  0.13880  1.0000
  O   O70       1.0  0.11690  0.93220  0.63880  1.0000
  O   O71       1.0  0.61690  0.56780  0.63880  1.0000
  O   O72       1.0  0.38310  0.43220  0.13880  1.0000
  O   O73       1.0  0.74030  0.43620  0.58790  1.0000
  O   O74       1.0  0.25970  0.56380  0.08790  1.0000
  O   O75       1.0  0.75970  0.93620  0.08790  1.0000
  O   O76       1.0  0.24030  0.06380  0.58790  1.0000
  O   O77       1.0  0.80420  0.50680  0.44050  1.0000
  O   O78       1.0  0.19580  0.49320  0.94050  1.0000
  O   O79       1.0  0.69580  0.00680  0.94050  1.0000
  O   O80       1.0  0.30420  0.99320  0.44050  1.0000
  O   O81       1.0  0.84270  0.40620  0.53860  1.0000
  O   O82       1.0  0.15730  0.59380  0.03860  1.0000
  O   O83       1.0  0.65730  0.90620  0.03860  1.0000
  O   O84       1.0  0.34270  0.09380  0.53860  1.0000
  C   C1        1.0  0.73420  0.11750  0.38710  1.0000
  C   C2        1.0  0.26580  0.88250  0.88710  1.0000
  C   C3        1.0  0.76580  0.61750  0.88710  1.0000
  C   C4        1.0  0.23420  0.38250  0.38710  1.0000
  H   H1        1.0  0.70680  0.11010  0.46030  1.0000
  H   H2        1.0  0.29320  0.88990  0.96030  1.0000
  H   H3        1.0  0.79320  0.61010  0.96030  1.0000
  H   H4        1.0  0.20680  0.38990  0.46030  1.0000
  H   H5        1.0  0.77070  0.10020  0.41680  1.0000
  H   H6        1.0  0.22930  0.89980  0.91680  1.0000
  H   H7        1.0  0.72930  0.60020  0.91680  1.0000
  H   H8        1.0  0.27070  0.39980  0.41680  1.0000
  C   C5        1.0  0.74120  0.18910  0.36970  1.0000
  C   C6        1.0  0.25880  0.81090  0.86970  1.0000
  C   C7        1.0  0.75880  0.68910  0.86970  1.0000
  C   C8        1.0  0.24120  0.31090  0.36970  1.0000
  C   C9        1.0  0.78070  0.21520  0.27610  1.0000
  C   C10       1.0  0.21930  0.78480  0.77610  1.0000
  C   C11       1.0  0.71930  0.71520  0.77610  1.0000
  C   C12       1.0  0.28070  0.28480  0.27610  1.0000
  H   H9        1.0  0.80160  0.18830  0.21970  1.0000
  H   H10       1.0  0.19840  0.81170  0.71970  1.0000
  H   H11       1.0  0.69840  0.68830  0.71970  1.0000
  H   H12       1.0  0.30160  0.31170  0.21970  1.0000
  C   C13       1.0  0.71140  0.23150  0.44930  1.0000
  C   C14       1.0  0.28860  0.76850  0.94930  1.0000
  C   C15       1.0  0.78860  0.73150  0.94930  1.0000
  C   C16       1.0  0.21140  0.26850  0.44930  1.0000
  H   H13       1.0  0.68520  0.21530  0.51220  1.0000
  H   H14       1.0  0.31480  0.78470  0.01220  1.0000
  H   H15       1.0  0.81480  0.71530  0.01220  1.0000
  H   H16       1.0  0.18520  0.28470  0.51220  1.0000
  C   C17       1.0  0.78920  0.28040  0.26600  1.0000
  C   C18       1.0  0.21080  0.71960  0.76600  1.0000
  C   C19       1.0  0.71080  0.78040  0.76600  1.0000
  C   C20       1.0  0.28920  0.21960  0.26600  1.0000
  H   H17       1.0  0.81620  0.29590  0.20440  1.0000
  H   H18       1.0  0.18380  0.70410  0.70440  1.0000
  H   H19       1.0  0.68380  0.79590  0.70440  1.0000
  H   H20       1.0  0.31620  0.20410  0.20440  1.0000
  C   C21       1.0  0.71770  0.29740  0.44210  1.0000
  C   C22       1.0  0.28230  0.70260  0.94210  1.0000
  C   C23       1.0  0.78230  0.79740  0.94210  1.0000
  C   C24       1.0  0.21770  0.20260  0.44210  1.0000
  H   H21       1.0  0.69610  0.32370  0.49840  1.0000
  H   H22       1.0  0.30390  0.67630  0.99840  1.0000
  H   H23       1.0  0.80390  0.82370  0.99840  1.0000
  H   H24       1.0  0.19610  0.17630  0.49840  1.0000
  C   C25       1.0  0.75760  0.32340  0.34730  1.0000
  C   C26       1.0  0.24240  0.67660  0.84730  1.0000
  C   C27       1.0  0.74240  0.82340  0.84730  1.0000
  C   C28       1.0  0.25760  0.17660  0.34730  1.0000
  C   C29       1.0  0.76600  0.39420  0.33220  1.0000
  C   C30       1.0  0.23400  0.60580  0.83220  1.0000
  C   C31       1.0  0.73400  0.89420  0.83220  1.0000
  C   C32       1.0  0.26600  0.10580  0.33220  1.0000
  H   H25       1.0  0.73000  0.41240  0.30170  1.0000
  H   H26       1.0  0.27000  0.58760  0.80170  1.0000
  H   H27       1.0  0.77000  0.91240  0.80170  1.0000
  H   H28       1.0  0.23000  0.08760  0.30170  1.0000
  H   H29       1.0  0.79380  0.40130  0.25990  1.0000
  H   H30       1.0  0.20620  0.59870  0.75990  1.0000
  H   H31       1.0  0.70620  0.90130  0.75990  1.0000
  H   H32       1.0  0.29380  0.09870  0.25990  1.0000
