data_image0
_chemical_formula_structural       La2C6H2C2H2C2H2C4H2C8H2C2H2C2H2C4H2C8H2C2H2C2H2C4H2C8H2C2H2C2H2C4H2C2N16O16H8
_chemical_formula_sum              "La2 C64 H40 N16 O16"
_cell_length_a       11.0587
_cell_length_b       11.3607
_cell_length_c       13.9423
_cell_angle_alpha    76.804
_cell_angle_beta     84.652
_cell_angle_gamma    89.438

_space_group_name_H-M_alt    "P 1"
_space_group_IT_number       1

loop_
  _space_group_symop_operation_xyz
  'x, y, z'

loop_
  _atom_site_type_symbol
  _atom_site_label
  _atom_site_symmetry_multiplicity
  _atom_site_fract_x
  _atom_site_fract_y
  _atom_site_fract_z
  _atom_site_occupancy
  La  La1       1.0  0.95297  0.89535  0.90532  1.0000
  La  La2       1.0  0.04703  0.10465  0.09468  1.0000
  C   C1        1.0  0.26660  0.18940  0.16570  1.0000
  C   C2        1.0  0.73340  0.81060  0.83430  1.0000
  C   C3        1.0  0.38630  0.21740  0.19960  1.0000
  C   C4        1.0  0.61370  0.78260  0.80040  1.0000
  C   C5        1.0  0.47630  0.27950  0.13170  1.0000
  C   C6        1.0  0.52370  0.72050  0.86830  1.0000
  H   H1        1.0  0.46200  0.30660  0.06570  1.0000
  H   H2        1.0  0.53800  0.69340  0.93430  1.0000
  C   C7        1.0  0.58740  0.30090  0.16250  1.0000
  C   C8        1.0  0.41260  0.69910  0.83750  1.0000
  H   H3        1.0  0.64860  0.34080  0.11670  1.0000
  H   H4        1.0  0.35140  0.65920  0.88330  1.0000
  C   C9        1.0  0.60840  0.26310  0.26190  1.0000
  C   C10       1.0  0.39160  0.73690  0.73810  1.0000
  H   H5        1.0  0.68330  0.27800  0.28240  1.0000
  H   H6        1.0  0.31670  0.72200  0.71760  1.0000
  C   C11       1.0  0.51710  0.20300  0.32990  1.0000
  C   C12       1.0  0.48290  0.79700  0.67010  1.0000
  C   C13       1.0  0.40720  0.17910  0.29790  1.0000
  C   C14       1.0  0.59280  0.82090  0.70210  1.0000
  H   H7        1.0  0.34680  0.13680  0.34310  1.0000
  H   H8        1.0  0.65320  0.86320  0.65690  1.0000
  C   C15       1.0  0.54490  0.16090  0.43310  1.0000
  C   C16       1.0  0.45510  0.83910  0.56690  1.0000
  C   C17       1.0  0.53650  0.12050  0.59470  1.0000
  C   C18       1.0  0.46350  0.87950  0.40530  1.0000
  C   C19       1.0  0.49930  0.11410  0.70020  1.0000
  C   C20       1.0  0.50070  0.88590  0.29980  1.0000
  C   C21       1.0  0.58560  0.14590  0.75630  1.0000
  C   C22       1.0  0.41440  0.85410  0.24370  1.0000
  H   H9        1.0  0.66340  0.16930  0.72730  1.0000
  H   H10       1.0  0.33660  0.83070  0.27270  1.0000
  C   C23       1.0  0.55560  0.14270  0.85520  1.0000
  C   C24       1.0  0.44440  0.85730  0.14480  1.0000
  H   H11       1.0  0.61290  0.16600  0.89230  1.0000
  H   H12       1.0  0.38710  0.83400  0.10770  1.0000
  C   C25       1.0  0.44120  0.10510  0.89970  1.0000
  C   C26       1.0  0.55880  0.89490  0.10030  1.0000
  H   H13       1.0  0.42120  0.10410  0.96610  1.0000
  H   H14       1.0  0.57880  0.89590  0.03390  1.0000
  C   C27       1.0  0.35660  0.06890  0.84490  1.0000
  C   C28       1.0  0.64340  0.93110  0.15510  1.0000
  C   C29       1.0  0.38530  0.07160  0.74520  1.0000
  C   C30       1.0  0.61470  0.92840  0.25480  1.0000
  H   H15       1.0  0.32890  0.04540  0.70890  1.0000
  H   H16       1.0  0.67110  0.95460  0.29110  1.0000
  C   C31       1.0  0.23350  0.02730  0.89660  1.0000
  C   C32       1.0  0.76650  0.97270  0.10340  1.0000
  C   C33       1.0  0.07160  0.83070  0.15410  1.0000
  C   C34       1.0  0.92840  0.16930  0.84590  1.0000
  C   C35       1.0  0.12520  0.70760  0.18560  1.0000
  C   C36       1.0  0.87480  0.29240  0.81440  1.0000
  C   C37       1.0  0.17570  0.64530  0.11690  1.0000
  C   C38       1.0  0.82430  0.35470  0.88310  1.0000
  H   H17       1.0  0.17620  0.67940  0.04960  1.0000
  H   H18       1.0  0.82380  0.32060  0.95040  1.0000
  C   C39       1.0  0.22500  0.53280  0.14890  1.0000
  C   C40       1.0  0.77500  0.46720  0.85110  1.0000
  H   H19       1.0  0.26040  0.49220  0.10280  1.0000
  H   H20       1.0  0.73960  0.50780  0.89720  1.0000
  C   C41       1.0  0.22240  0.47970  0.24860  1.0000
  C   C42       1.0  0.77760  0.52030  0.75140  1.0000
  H   H21       1.0  0.25510  0.40350  0.26950  1.0000
  H   H22       1.0  0.74490  0.59650  0.73050  1.0000
  C   C43       1.0  0.17040  0.54140  0.31740  1.0000
  C   C44       1.0  0.82960  0.45860  0.68260  1.0000
  C   C45       1.0  0.12430  0.65540  0.28580  1.0000
  C   C46       1.0  0.87570  0.34460  0.71420  1.0000
  H   H23       1.0  0.09230  0.69760  0.33200  1.0000
  H   H24       1.0  0.90770  0.30240  0.66800  1.0000
  C   C47       1.0  0.15880  0.48100  0.42270  1.0000
  C   C48       1.0  0.84120  0.51900  0.57730  1.0000
  C   C49       1.0  0.15270  0.44590  0.58350  1.0000
  C   C50       1.0  0.84730  0.55410  0.41650  1.0000
  C   C51       1.0  0.15780  0.46190  0.68480  1.0000
  C   C52       1.0  0.84220  0.53810  0.31520  1.0000
  C   C53       1.0  0.19890  0.36690  0.75620  1.0000
  C   C54       1.0  0.80110  0.63310  0.24380  1.0000
  H   H25       1.0  0.22940  0.29760  0.73830  1.0000
  H   H26       1.0  0.77060  0.70240  0.26170  1.0000
  C   C55       1.0  0.19430  0.37630  0.85340  1.0000
  C   C56       1.0  0.80570  0.62370  0.14660  1.0000
  H   H27       1.0  0.22230  0.31300  0.90070  1.0000
  H   H28       1.0  0.77770  0.68700  0.09930  1.0000
  C   C57       1.0  0.14840  0.47860  0.88150  1.0000
  C   C58       1.0  0.85160  0.52140  0.11850  1.0000
  H   H29       1.0  0.14480  0.48390  0.94730  1.0000
  H   H30       1.0  0.85520  0.51610  0.05270  1.0000
  C   C59       1.0  0.10750  0.57440  0.80920  1.0000
  C   C60       1.0  0.89250  0.42560  0.19080  1.0000
  C   C61       1.0  0.11240  0.56610  0.71170  1.0000
  C   C62       1.0  0.88760  0.43390  0.28830  1.0000
  H   H31       1.0  0.08560  0.62980  0.66410  1.0000
  H   H32       1.0  0.91440  0.37020  0.33590  1.0000
  C   C63       1.0  0.05810  0.68640  0.83820  1.0000
  C   C64       1.0  0.94190  0.31360  0.16180  1.0000
  N   N1        1.0  0.64580  0.09200  0.56110  1.0000
  N   N2        1.0  0.35420  0.90800  0.43890  1.0000
  N   N3        1.0  0.65080  0.11680  0.45930  1.0000
  N   N4        1.0  0.34920  0.88320  0.54070  1.0000
  N   N5        1.0  0.47040  0.16190  0.51640  1.0000
  N   N6        1.0  0.52960  0.83810  0.48360  1.0000
  N   N7        1.0  0.35600  0.21560  0.51940  1.0000
  N   N8        1.0  0.64400  0.78440  0.48060  1.0000
  N   N9        1.0  0.22870  0.64730  0.49380  1.0000
  N   N10       1.0  0.77130  0.35270  0.50620  1.0000
  N   N11       1.0  0.17590  0.53400  0.49930  1.0000
  N   N12       1.0  0.82410  0.46600  0.50070  1.0000
  N   N13       1.0  0.12310  0.34440  0.56110  1.0000
  N   N14       1.0  0.87690  0.65560  0.43890  1.0000
  N   N15       1.0  0.12610  0.36730  0.45840  1.0000
  N   N16       1.0  0.87390  0.63270  0.54160  1.0000
  O   O1        1.0  0.16730  0.96830  0.85550  1.0000
  O   O2        1.0  0.83270  0.03170  0.14450  1.0000
  O   O3        1.0  0.20650  0.05460  0.97810  1.0000
  O   O4        1.0  0.79350  0.94540  0.02190  1.0000
  O   O5        1.0  0.20140  0.10680  0.22230  1.0000
  O   O6        1.0  0.79860  0.89320  0.77770  1.0000
  O   O7        1.0  0.23570  0.24700  0.08510  1.0000
  O   O8        1.0  0.76430  0.75300  0.91490  1.0000
  O   O9        1.0  0.03480  0.77630  0.77190  1.0000
  O   O10       1.0  0.96520  0.22370  0.22810  1.0000
  O   O11       1.0  0.04170  0.68720  0.92760  1.0000
  O   O12       1.0  0.95830  0.31280  0.07240  1.0000
  O   O13       1.0  0.06290  0.89840  0.21430  1.0000
  O   O14       1.0  0.93710  0.10160  0.78570  1.0000
  O   O15       1.0  0.03740  0.86560  0.06870  1.0000
  O   O16       1.0  0.96260  0.13440  0.93130  1.0000
  H   H33       1.0  0.17470  0.70470  0.47430  1.0000
  H   H34       1.0  0.82530  0.29530  0.52570  1.0000
  H   H35       1.0  0.29190  0.16680  0.53020  1.0000
  H   H36       1.0  0.70810  0.83320  0.46980  1.0000
  H   H37       1.0  0.34310  0.28020  0.46980  1.0000
  H   H38       1.0  0.65690  0.71980  0.53020  1.0000
  H   H39       1.0  0.29480  0.66210  0.45060  1.0000
  H   H40       1.0  0.70520  0.33790  0.54940  1.0000
