data_image0
_chemical_formula_structural       Tb4N32C6H2C2H2C2H2C4H2C8H2C2H2C2H2C4H2C8H2C2H2C2H2C4H2C8H2C4H2C2H2C2H2C8H2C2H2C2H2C4H2C8H2C2H2C2H2C4H2C8H2C2H2C2H2C4H2C8H2C6H2C2H2C2H2O32H16
_chemical_formula_sum              "Tb4 N32 C128 H80 O32"
_cell_length_a       11.1188
_cell_length_b       11.1414
_cell_length_c       27.065
_cell_angle_alpha    79.742
_cell_angle_beta     86.224
_cell_angle_gamma    89.898

_space_group_name_H-M_alt    "P 1"
_space_group_IT_number       1

loop_
  _space_group_symop_operation_xyz
  'x, y, z'

loop_
  _atom_site_type_symbol
  _atom_site_label
  _atom_site_symmetry_multiplicity
  _atom_site_fract_x
  _atom_site_fract_y
  _atom_site_fract_z
  _atom_site_occupancy
  Tb  Tb1       1.0  0.56063  0.38477  0.95359  1.0000
  Tb  Tb2       1.0  0.43937  0.61523  0.04641  1.0000
  Tb  Tb3       1.0  0.62454  0.52693  0.54541  1.0000
  Tb  Tb4       1.0  0.37546  0.47307  0.45459  1.0000
  N   N1        1.0  0.81090  0.81160  0.74442  1.0000
  N   N2        1.0  0.18910  0.18840  0.25558  1.0000
  N   N3        1.0  0.75630  0.92660  0.74214  1.0000
  N   N4        1.0  0.24370  0.07340  0.25786  1.0000
  N   N5        1.0  0.70730  0.11280  0.71050  1.0000
  N   N6        1.0  0.29270  0.88720  0.28950  1.0000
  N   N7        1.0  0.69480  0.09610  0.76252  1.0000
  N   N8        1.0  0.30520  0.90390  0.23748  1.0000
  N   N9        1.0  0.93990  0.21200  0.75916  1.0000
  N   N10       1.0  0.06010  0.78800  0.24084  1.0000
  N   N11       1.0  0.05280  0.27180  0.75664  1.0000
  N   N12       1.0  0.94720  0.72820  0.24336  1.0000
  N   N13       1.0  0.23160  0.34110  0.72805  1.0000
  N   N14       1.0  0.76840  0.65890  0.27195  1.0000
  N   N15       1.0  0.22520  0.32430  0.78013  1.0000
  N   N16       1.0  0.77480  0.67570  0.21987  1.0000
  N   N17       1.0  0.36140  0.11770  0.73243  1.0000
  N   N18       1.0  0.63860  0.88230  0.26757  1.0000
  N   N19       1.0  0.41800  0.00300  0.73764  1.0000
  N   N20       1.0  0.58200  0.99700  0.26236  1.0000
  N   N21       1.0  0.47710  0.82790  0.72080  1.0000
  N   N22       1.0  0.52290  0.17210  0.27920  1.0000
  N   N23       1.0  0.46690  0.81940  0.77245  1.0000
  N   N24       1.0  0.53310  0.18060  0.22755  1.0000
  N   N25       1.0  0.24830  0.66340  0.76479  1.0000
  N   N26       1.0  0.75170  0.33660  0.23521  1.0000
  N   N27       1.0  0.13220  0.61470  0.76252  1.0000
  N   N28       1.0  0.86780  0.38530  0.23748  1.0000
  N   N29       1.0  0.96140  0.57450  0.73419  1.0000
  N   N30       1.0  0.03860  0.42550  0.26581  1.0000
  N   N31       1.0  0.94510  0.56210  0.78588  1.0000
  N   N32       1.0  0.05490  0.43790  0.21412  1.0000
  C   C1        1.0  0.72430  0.73340  0.57350  1.0000
  C   C2        1.0  0.27570  0.26660  0.42650  1.0000
  C   C3        1.0  0.76440  0.85290  0.58630  1.0000
  C   C4        1.0  0.23560  0.14710  0.41370  1.0000
  C   C5        1.0  0.82940  0.93930  0.55120  1.0000
  C   C6        1.0  0.17060  0.06070  0.44880  1.0000
  H   H1        1.0  0.85410  0.92200  0.51980  1.0000
  H   H2        1.0  0.14590  0.07800  0.48020  1.0000
  C   C7        1.0  0.85670  0.05030  0.56340  1.0000
  C   C8        1.0  0.14330  0.94970  0.43660  1.0000
  H   H3        1.0  0.89210  0.11140  0.53880  1.0000
  H   H4        1.0  0.10790  0.88860  0.46120  1.0000
  C   C9        1.0  0.83210  0.07230  0.61170  1.0000
  C   C10       1.0  0.16790  0.92770  0.38830  1.0000
  H   H5        1.0  0.85580  0.14570  0.62010  1.0000
  H   H6        1.0  0.14420  0.85430  0.37990  1.0000
  C   C11       1.0  0.77200  0.98440  0.64780  1.0000
  C   C12       1.0  0.22800  0.01560  0.35220  1.0000
  C   C13       1.0  0.73730  0.87560  0.63490  1.0000
  C   C14       1.0  0.26270  0.12440  0.36510  1.0000
  H   H7        1.0  0.69560  0.81730  0.65860  1.0000
  H   H8        1.0  0.30440  0.18270  0.34140  1.0000
  C   C15       1.0  0.74550  0.00860  0.69900  1.0000
  C   C16       1.0  0.25450  0.99140  0.30100  1.0000
  C   C17       1.0  0.72530  0.98340  0.78100  1.0000
  C   C18       1.0  0.27470  0.01660  0.21900  1.0000
  C   C19       1.0  0.72290  0.93170  0.83480  1.0000
  C   C20       1.0  0.27710  0.06830  0.16520  1.0000
  C   C21       1.0  0.76390  0.00110  0.86860  1.0000
  C   C22       1.0  0.23610  0.99890  0.13140  1.0000
  H   H9        1.0  0.80100  0.07640  0.85670  1.0000
  H   H10       1.0  0.19900  0.92360  0.14330  1.0000
  C   C23       1.0  0.74900  0.95720  0.91980  1.0000
  C   C24       1.0  0.25100  0.04280  0.08020  1.0000
  H   H11       1.0  0.77890  0.00170  0.94240  1.0000
  H   H12       1.0  0.22110  0.99830  0.05760  1.0000
  C   C25       1.0  0.69020  0.84830  0.93740  1.0000
  C   C26       1.0  0.30980  0.15170  0.06260  1.0000
  H   H13       1.0  0.67660  0.82160  0.97190  1.0000
  H   H14       1.0  0.32340  0.17840  0.02810  1.0000
  C   C27       1.0  0.65110  0.77760  0.90416  1.0000
  C   C28       1.0  0.34890  0.22240  0.09584  1.0000
  C   C29       1.0  0.66960  0.81950  0.85286  1.0000
  C   C30       1.0  0.33040  0.18050  0.14714  1.0000
  H   H15       1.0  0.64580  0.77140  0.83040  1.0000
  H   H16       1.0  0.35420  0.22860  0.16960  1.0000
  C   C31       1.0  0.58840  0.65820  0.92330  1.0000
  C   C32       1.0  0.41160  0.34180  0.07670  1.0000
  C   C33       1.0  0.29110  0.51170  0.95610  1.0000
  C   C34       1.0  0.70890  0.48830  0.04390  1.0000
  C   C35       1.0  0.17920  0.55450  0.92980  1.0000
  C   C36       1.0  0.82080  0.44550  0.07020  1.0000
  C   C37       1.0  0.08490  0.60120  0.95610  1.0000
  C   C38       1.0  0.91510  0.39880  0.04390  1.0000
  H   H17       1.0  0.09130  0.60660  0.98970  1.0000
  H   H18       1.0  0.90870  0.39340  0.01030  1.0000
  C   C39       1.0  0.98240  0.63960  0.93320  1.0000
  C   C40       1.0  0.01760  0.36040  0.06680  1.0000
  H   H19       1.0  0.91870  0.66890  0.95150  1.0000
  H   H20       1.0  0.08130  0.33110  0.04850  1.0000
  C   C41       1.0  0.97250  0.63530  0.88340  1.0000
  C   C42       1.0  0.02750  0.36470  0.11660  1.0000
  H   H21       1.0  0.90240  0.66210  0.86820  1.0000
  H   H22       1.0  0.09760  0.33790  0.13180  1.0000
  C   C43       1.0  0.06630  0.59110  0.85540  1.0000
  C   C44       1.0  0.93370  0.40890  0.14460  1.0000
  C   C45       1.0  0.16960  0.54850  0.87900  1.0000
  C   C46       1.0  0.83040  0.45150  0.12100  1.0000
  H   H23       1.0  0.23210  0.51620  0.86110  1.0000
  H   H24       1.0  0.76790  0.48380  0.13890  1.0000
  C   C47       1.0  0.04820  0.58780  0.80263  1.0000
  C   C48       1.0  0.95180  0.41220  0.19737  1.0000
  C   C49       1.0  0.07380  0.60700  0.72047  1.0000
  C   C50       1.0  0.92620  0.39300  0.27953  1.0000
  C   C51       1.0  0.12040  0.63190  0.66743  1.0000
  C   C52       1.0  0.87960  0.36810  0.33257  1.0000
  C   C53       1.0  0.22850  0.58600  0.65101  1.0000
  C   C54       1.0  0.77150  0.41400  0.34899  1.0000
  H   H25       1.0  0.28110  0.54840  0.67420  1.0000
  H   H26       1.0  0.71890  0.45160  0.32580  1.0000
  C   C55       1.0  0.25880  0.59610  0.59935  1.0000
  C   C56       1.0  0.74120  0.40390  0.40065  1.0000
  C   C57       1.0  0.18180  0.65700  0.56550  1.0000
  C   C58       1.0  0.81820  0.34300  0.43450  1.0000
  H   H27       1.0  0.20240  0.66520  0.53120  1.0000
  H   H28       1.0  0.79760  0.33480  0.46880  1.0000
  C   C59       1.0  0.07620  0.70530  0.58140  1.0000
  C   C60       1.0  0.92380  0.29470  0.41860  1.0000
  H   H29       1.0  0.02590  0.74660  0.55810  1.0000
  H   H30       1.0  0.97410  0.25340  0.44190  1.0000
  C   C61       1.0  0.04430  0.69260  0.63240  1.0000
  C   C62       1.0  0.95570  0.30740  0.36760  1.0000
  H   H31       1.0  0.97200  0.72460  0.64330  1.0000
  H   H32       1.0  0.02800  0.27540  0.35670  1.0000
  C   C63       1.0  0.37240  0.53880  0.58140  1.0000
  C   C64       1.0  0.62760  0.46120  0.41860  1.0000
  C   C65       1.0  0.49410  0.26090  0.54527  1.0000
  C   C66       1.0  0.50590  0.73910  0.45473  1.0000
  C   C67       1.0  0.45870  0.13390  0.57100  1.0000
  C   C68       1.0  0.54130  0.86610  0.42900  1.0000
  C   C69       1.0  0.40760  0.05520  0.54450  1.0000
  C   C70       1.0  0.59240  0.94480  0.45550  1.0000
  H   H33       1.0  0.39470  0.08110  0.51070  1.0000
  H   H34       1.0  0.60530  0.91890  0.48930  1.0000
  C   C71       1.0  0.37510  0.93770  0.56760  1.0000
  C   C72       1.0  0.62490  0.06230  0.43240  1.0000
  H   H35       1.0  0.34420  0.88370  0.54890  1.0000
  H   H36       1.0  0.65580  0.11630  0.45110  1.0000
  C   C73       1.0  0.38860  0.90080  0.61810  1.0000
  C   C74       1.0  0.61140  0.09920  0.38190  1.0000
  H   H37       1.0  0.36620  0.82200  0.63360  1.0000
  H   H38       1.0  0.63380  0.17800  0.36640  1.0000
  C   C75       1.0  0.43550  0.98030  0.64630  1.0000
  C   C76       1.0  0.56450  0.01970  0.35370  1.0000
  C   C77       1.0  0.47330  0.09580  0.62187  1.0000
  C   C78       1.0  0.52670  0.90420  0.37813  1.0000
  H   H39       1.0  0.50900  0.14830  0.63990  1.0000
  H   H40       1.0  0.49100  0.85170  0.36010  1.0000
  C   C79       1.0  0.44460  0.93900  0.70030  1.0000
  C   C80       1.0  0.55540  0.06100  0.29970  1.0000
  C   C81       1.0  0.43020  0.92550  0.78196  1.0000
  C   C82       1.0  0.56980  0.07450  0.21804  1.0000
  C   C83       1.0  0.40640  0.95070  0.83315  1.0000
  C   C84       1.0  0.59360  0.04930  0.16685  1.0000
  C   C85       1.0  0.35060  0.85870  0.86850  1.0000
  C   C86       1.0  0.64940  0.14130  0.13150  1.0000
  H   H41       1.0  0.32320  0.78840  0.85860  1.0000
  H   H42       1.0  0.67680  0.21160  0.14140  1.0000
  C   C87       1.0  0.33570  0.87130  0.91850  1.0000
  C   C88       1.0  0.66430  0.12870  0.08150  1.0000
  H   H43       1.0  0.29770  0.80960  0.94200  1.0000
  H   H44       1.0  0.70230  0.19040  0.05800  1.0000
  C   C89       1.0  0.37680  0.97510  0.93400  1.0000
  C   C90       1.0  0.62320  0.02490  0.06600  1.0000
  H   H45       1.0  0.36910  0.98200  0.96780  1.0000
  H   H46       1.0  0.63090  0.01800  0.03220  1.0000
  C   C91       1.0  0.43030  0.06960  0.89812  1.0000
  C   C92       1.0  0.56970  0.93040  0.10188  1.0000
  C   C93       1.0  0.44410  0.05780  0.84775  1.0000
  C   C94       1.0  0.55590  0.94220  0.15225  1.0000
  H   H47       1.0  0.47820  0.12110  0.82390  1.0000
  H   H48       1.0  0.52180  0.87890  0.17610  1.0000
  C   C95       1.0  0.47340  0.18210  0.91510  1.0000
  C   C96       1.0  0.52660  0.81790  0.08490  1.0000
  C   C97       1.0  0.78490  0.28990  0.92749  1.0000
  C   C98       1.0  0.21510  0.71010  0.07251  1.0000
  C   C99       1.0  0.91050  0.25280  0.91380  1.0000
  C   C100      1.0  0.08950  0.74720  0.08620  1.0000
  C   C101      1.0  0.98030  0.18620  0.94880  1.0000
  C   C102      1.0  0.01970  0.81380  0.05120  1.0000
  H   H49       1.0  0.94980  0.16350  0.98200  1.0000
  H   H50       1.0  0.05020  0.83650  0.01800  1.0000
  C   C103      1.0  0.09610  0.15300  0.93470  1.0000
  C   C104      1.0  0.90390  0.84700  0.06530  1.0000
  H   H51       1.0  0.14360  0.10970  0.95860  1.0000
  H   H52       1.0  0.85640  0.89030  0.04140  1.0000
  C   C105      1.0  0.14140  0.18380  0.88530  1.0000
  C   C106      1.0  0.85860  0.81620  0.11470  1.0000
  H   H53       1.0  0.21860  0.16040  0.87580  1.0000
  H   H54       1.0  0.78140  0.83960  0.12420  1.0000
  C   C107      1.0  0.07030  0.25020  0.84980  1.0000
  C   C108      1.0  0.92970  0.74980  0.15020  1.0000
  C   C109      1.0  0.95740  0.28590  0.86450  1.0000
  C   C110      1.0  0.04260  0.71410  0.13550  1.0000
  H   H55       1.0  0.91150  0.33310  0.84100  1.0000
  H   H56       1.0  0.08850  0.66690  0.15900  1.0000
  C   C111      1.0  0.11770  0.28170  0.79690  1.0000
  C   C112      1.0  0.88230  0.71830  0.20310  1.0000
  C   C113      1.0  0.12700  0.30800  0.71490  1.0000
  C   C114      1.0  0.87300  0.69200  0.28510  1.0000
  C   C115      1.0  0.09440  0.31280  0.66260  1.0000
  C   C116      1.0  0.90560  0.68720  0.33740  1.0000
  C   C117      1.0  0.98320  0.35640  0.64755  1.0000
  C   C118      1.0  0.01680  0.64360  0.35245  1.0000
  H   H57       1.0  0.92560  0.37660  0.67110  1.0000
  H   H58       1.0  0.07440  0.62340  0.32890  1.0000
  C   C119      1.0  0.95740  0.36990  0.59713  1.0000
  C   C120      1.0  0.04260  0.63010  0.40287  1.0000
  C   C121      1.0  0.83870  0.41800  0.58038  1.0000
  C   C122      1.0  0.16130  0.58200  0.41962  1.0000
  C   C123      1.0  0.04450  0.33940  0.56250  1.0000
  C   C124      1.0  0.95550  0.66060  0.43750  1.0000
  H   H59       1.0  0.02890  0.35060  0.52860  1.0000
  H   H60       1.0  0.97110  0.64940  0.47140  1.0000
  C   C125      1.0  0.15450  0.29260  0.57760  1.0000
  C   C126      1.0  0.84550  0.70740  0.42240  1.0000
  H   H61       1.0  0.21090  0.26920  0.55430  1.0000
  H   H62       1.0  0.78910  0.73080  0.44570  1.0000
  C   C127      1.0  0.17950  0.28090  0.62720  1.0000
  C   C128      1.0  0.82050  0.71910  0.37280  1.0000
  H   H63       1.0  0.25390  0.25140  0.63730  1.0000
  H   H64       1.0  0.74610  0.74860  0.36270  1.0000
  O   O1        1.0  0.63610  0.67830  0.59854  1.0000
  O   O2        1.0  0.36390  0.32170  0.40146  1.0000
  O   O3        1.0  0.78050  0.69170  0.53864  1.0000
  O   O4        1.0  0.21950  0.30830  0.46136  1.0000
  O   O5        1.0  0.59270  0.57660  0.89616  1.0000
  O   O6        1.0  0.40730  0.42340  0.10384  1.0000
  O   O7        1.0  0.53400  0.63960  0.96605  1.0000
  O   O8        1.0  0.46600  0.36040  0.03395  1.0000
  O   O9        1.0  0.74130  0.37880  0.89956  1.0000
  O   O10       1.0  0.25870  0.62120  0.10044  1.0000
  O   O11       1.0  0.72690  0.23350  0.96573  1.0000
  O   O12       1.0  0.27310  0.76650  0.03427  1.0000
  O   O13       1.0  0.75780  0.44320  0.61253  1.0000
  O   O14       1.0  0.24220  0.55680  0.38747  1.0000
  O   O15       1.0  0.81800  0.43310  0.53505  1.0000
  O   O16       1.0  0.18200  0.56690  0.46495  1.0000
  O   O17       1.0  0.56490  0.31970  0.56543  1.0000
  O   O18       1.0  0.43510  0.68030  0.43457  1.0000
  O   O19       1.0  0.44380  0.29770  0.50470  1.0000
  O   O20       1.0  0.55620  0.70230  0.49530  1.0000
  O   O21       1.0  0.51580  0.27200  0.88350  1.0000
  O   O22       1.0  0.48420  0.72800  0.11650  1.0000
  O   O23       1.0  0.46510  0.18760  0.96081  1.0000
  O   O24       1.0  0.53490  0.81240  0.03919  1.0000
  O   O25       1.0  0.36560  0.45050  0.93423  1.0000
  O   O26       1.0  0.63440  0.54950  0.06577  1.0000
  O   O27       1.0  0.30140  0.54200  0.99799  1.0000
  O   O28       1.0  0.69860  0.45800  0.00201  1.0000
  O   O29       1.0  0.45470  0.51270  0.61054  1.0000
  O   O30       1.0  0.54530  0.48730  0.38946  1.0000
  O   O31       1.0  0.38550  0.52280  0.53627  1.0000
  O   O32       1.0  0.61450  0.47720  0.46373  1.0000
  H   H65       1.0  0.43760  0.14330  0.72610  1.0000
  H   H66       1.0  0.56240  0.85670  0.27390  1.0000
  H   H67       1.0  0.74760  0.75930  0.75330  1.0000
  H   H68       1.0  0.25240  0.24070  0.24670  1.0000
  H   H69       1.0  0.92140  0.19260  0.72950  1.0000
  H   H70       1.0  0.07860  0.80740  0.27050  1.0000
  H   H71       1.0  0.28900  0.59440  0.76380  1.0000
  H   H72       1.0  0.71100  0.40560  0.23620  1.0000
  H   H73       1.0  0.85850  0.80090  0.77040  1.0000
  H   H74       1.0  0.14150  0.19910  0.22960  1.0000
  H   H75       1.0  0.25700  0.71370  0.73530  1.0000
  H   H76       1.0  0.74300  0.28630  0.26470  1.0000
  H   H77       1.0  0.87770  0.25380  0.77030  1.0000
  H   H78       1.0  0.12230  0.74620  0.22970  1.0000
  H   H79       1.0  0.32720  0.11710  0.70340  1.0000
  H   H80       1.0  0.67280  0.88290  0.29660  1.0000
