data_image0
_chemical_formula_structural       Fe4P8O28C8H20
_chemical_formula_sum              "Fe4 P8 O28 C8 H20"
_cell_length_a       5.5362
_cell_length_b       12.8676
_cell_length_c       15.4337
_cell_angle_alpha    90
_cell_angle_beta     99.279
_cell_angle_gamma    90

_space_group_name_H-M_alt    "P 1"
_space_group_IT_number       1

loop_
  _space_group_symop_operation_xyz
  'x, y, z'

loop_
  _atom_site_type_symbol
  _atom_site_label
  _atom_site_symmetry_multiplicity
  _atom_site_fract_x
  _atom_site_fract_y
  _atom_site_fract_z
  _atom_site_occupancy
  Fe  Fe1       1.0  0.38814  0.03357  0.09076  1.0000
  Fe  Fe2       1.0  0.38814  0.46643  0.59076  1.0000
  Fe  Fe3       1.0  0.61186  0.96643  0.90924  1.0000
  Fe  Fe4       1.0  0.61186  0.53357  0.40924  1.0000
  P   P1        1.0  0.90020  0.12016  0.17583  1.0000
  P   P2        1.0  0.90020  0.37984  0.67583  1.0000
  P   P3        1.0  0.09980  0.87984  0.82417  1.0000
  P   P4        1.0  0.09980  0.62016  0.32417  1.0000
  P   P5        1.0  0.89329  0.89868  0.11290  1.0000
  P   P6        1.0  0.89329  0.60132  0.61290  1.0000
  P   P7        1.0  0.10671  0.10132  0.88710  1.0000
  P   P8        1.0  0.10671  0.39868  0.38710  1.0000
  O   O1        1.0  0.67670  0.14325  0.10803  1.0000
  O   O2        1.0  0.67670  0.35675  0.60803  1.0000
  O   O3        1.0  0.32330  0.85675  0.89197  1.0000
  O   O4        1.0  0.32330  0.64325  0.39197  1.0000
  O   O5        1.0  0.14590  0.13425  0.14760  1.0000
  O   O6        1.0  0.14590  0.36575  0.64760  1.0000
  O   O7        1.0  0.85410  0.86575  0.85240  1.0000
  O   O8        1.0  0.85410  0.63425  0.35240  1.0000
  O   O9        1.0  0.87620  0.18421  0.25888  1.0000
  O   O10       1.0  0.87620  0.31579  0.75888  1.0000
  O   O11       1.0  0.12380  0.81579  0.74112  1.0000
  O   O12       1.0  0.12380  0.68421  0.24112  1.0000
  O   O13       1.0  0.68440  0.93273  0.04185  1.0000
  O   O14       1.0  0.68440  0.56727  0.54185  1.0000
  O   O15       1.0  0.31560  0.06727  0.95815  1.0000
  O   O16       1.0  0.31560  0.43273  0.45815  1.0000
  O   O17       1.0  0.85060  0.08967  0.90766  1.0000
  O   O18       1.0  0.85060  0.41033  0.40766  1.0000
  O   O19       1.0  0.14940  0.91033  0.09234  1.0000
  O   O20       1.0  0.14940  0.58967  0.59234  1.0000
  O   O21       1.0  0.84310  0.78560  0.13702  1.0000
  O   O22       1.0  0.84310  0.71440  0.63702  1.0000
  O   O23       1.0  0.15690  0.21440  0.86298  1.0000
  O   O24       1.0  0.15690  0.28560  0.36298  1.0000
  O   O25       1.0  0.60840  0.97852  0.21864  1.0000
  O   O26       1.0  0.60840  0.52148  0.71864  1.0000
  O   O27       1.0  0.39160  0.02148  0.78136  1.0000
  O   O28       1.0  0.39160  0.47852  0.28136  1.0000
  C   C1        1.0  0.03570  0.95550  0.29027  1.0000
  C   C2        1.0  0.03570  0.54450  0.79027  1.0000
  C   C3        1.0  0.96430  0.04450  0.70973  1.0000
  C   C4        1.0  0.96430  0.45550  0.20973  1.0000
  C   C5        1.0  0.86310  0.98364  0.20639  1.0000
  C   C6        1.0  0.86310  0.51636  0.70639  1.0000
  C   C7        1.0  0.13690  0.01636  0.79361  1.0000
  C   C8        1.0  0.13690  0.48364  0.29361  1.0000
  H   H1        1.0  0.18640  0.96540  0.28330  1.0000
  H   H2        1.0  0.18640  0.53460  0.78330  1.0000
  H   H3        1.0  0.81360  0.03460  0.71670  1.0000
  H   H4        1.0  0.81360  0.46540  0.21670  1.0000
  H   H5        1.0  0.99580  0.99570  0.34000  1.0000
  H   H6        1.0  0.99580  0.50430  0.84000  1.0000
  H   H7        1.0  0.00420  0.00430  0.66000  1.0000
  H   H8        1.0  0.00420  0.49570  0.16000  1.0000
  H   H9        1.0  0.02300  0.89070  0.30530  1.0000
  H   H10       1.0  0.02300  0.60930  0.80530  1.0000
  H   H11       1.0  0.97700  0.10930  0.69470  1.0000
  H   H12       1.0  0.97700  0.39070  0.19470  1.0000
  H   H13       1.0  0.00940  0.22210  0.30070  1.0000
  H   H14       1.0  0.00940  0.27790  0.80070  1.0000
  H   H15       1.0  0.99060  0.77790  0.69930  1.0000
  H   H16       1.0  0.99060  0.72210  0.19930  1.0000
  H   H17       1.0  0.59520  0.91900  0.24210  1.0000
  H   H18       1.0  0.59520  0.58100  0.74210  1.0000
  H   H19       1.0  0.40480  0.08100  0.75790  1.0000
  H   H20       1.0  0.40480  0.41900  0.25790  1.0000
