data_image0
_chemical_formula_structural       Eu8N16O80C8H16C8H16C8H16C8H16C8H16C8H16C16H16C16H16C16H16C16H16
_chemical_formula_sum              "Eu8 N16 O80 C112 H160"
_cell_length_a       38.513
_cell_length_b       13.5877
_cell_length_c       8.7051
_cell_angle_alpha    90
_cell_angle_beta     99.678
_cell_angle_gamma    90

_space_group_name_H-M_alt    "P 1"
_space_group_IT_number       1

loop_
  _space_group_symop_operation_xyz
  'x, y, z'

loop_
  _atom_site_type_symbol
  _atom_site_label
  _atom_site_symmetry_multiplicity
  _atom_site_fract_x
  _atom_site_fract_y
  _atom_site_fract_z
  _atom_site_occupancy
  Eu  Eu1       1.0  0.62511  0.31380  0.25169  1.0000
  Eu  Eu2       1.0  0.37489  0.31380  0.24831  1.0000
  Eu  Eu3       1.0  0.12511  0.81380  0.25169  1.0000
  Eu  Eu4       1.0  0.87489  0.81380  0.24831  1.0000
  Eu  Eu5       1.0  0.37489  0.68620  0.74831  1.0000
  Eu  Eu6       1.0  0.62511  0.68620  0.75169  1.0000
  Eu  Eu7       1.0  0.87489  0.18620  0.74831  1.0000
  Eu  Eu8       1.0  0.12511  0.18620  0.75169  1.0000
  N   N1        1.0  0.57552  0.18310  0.18200  1.0000
  N   N2        1.0  0.42448  0.18310  0.31800  1.0000
  N   N3        1.0  0.07552  0.68310  0.18200  1.0000
  N   N4        1.0  0.92448  0.68310  0.31800  1.0000
  N   N5        1.0  0.42448  0.81690  0.81800  1.0000
  N   N6        1.0  0.57552  0.81690  0.68200  1.0000
  N   N7        1.0  0.92448  0.31690  0.81800  1.0000
  N   N8        1.0  0.07552  0.31690  0.68200  1.0000
  N   N9        1.0  0.67109  0.34340  0.51120  1.0000
  N   N10       1.0  0.32891  0.34340  0.98880  1.0000
  N   N11       1.0  0.17109  0.84340  0.51120  1.0000
  N   N12       1.0  0.82891  0.84340  0.98880  1.0000
  N   N13       1.0  0.32891  0.65660  0.48880  1.0000
  N   N14       1.0  0.67109  0.65660  0.01120  1.0000
  N   N15       1.0  0.82891  0.15660  0.48880  1.0000
  N   N16       1.0  0.17109  0.15660  0.01120  1.0000
  O   O1        1.0  0.63717  0.19810  0.04390  1.0000
  O   O2        1.0  0.36283  0.19810  0.45610  1.0000
  O   O3        1.0  0.13717  0.69810  0.04390  1.0000
  O   O4        1.0  0.86283  0.69810  0.45610  1.0000
  O   O5        1.0  0.36283  0.80190  0.95610  1.0000
  O   O6        1.0  0.63717  0.80190  0.54390  1.0000
  O   O7        1.0  0.86283  0.30190  0.95610  1.0000
  O   O8        1.0  0.13717  0.30190  0.54390  1.0000
  O   O9        1.0  0.68762  0.31930  0.20620  1.0000
  O   O10       1.0  0.31238  0.31930  0.29380  1.0000
  O   O11       1.0  0.18762  0.81930  0.20620  1.0000
  O   O12       1.0  0.81238  0.81930  0.29380  1.0000
  O   O13       1.0  0.31238  0.68070  0.79380  1.0000
  O   O14       1.0  0.68762  0.68070  0.70620  1.0000
  O   O15       1.0  0.81238  0.18070  0.79380  1.0000
  O   O16       1.0  0.18762  0.18070  0.70620  1.0000
  O   O17       1.0  0.59415  0.26990  0.45660  1.0000
  O   O18       1.0  0.40585  0.26990  0.04340  1.0000
  O   O19       1.0  0.09415  0.76990  0.45660  1.0000
  O   O20       1.0  0.90585  0.76990  0.04340  1.0000
  O   O21       1.0  0.40585  0.73010  0.54340  1.0000
  O   O22       1.0  0.59415  0.73010  0.95660  1.0000
  O   O23       1.0  0.90585  0.23010  0.54340  1.0000
  O   O24       1.0  0.09415  0.23010  0.95660  1.0000
  O   O25       1.0  0.57830  0.14510  0.58900  1.0000
  O   O26       1.0  0.42170  0.14510  0.91100  1.0000
  O   O27       1.0  0.07830  0.64510  0.58900  1.0000
  O   O28       1.0  0.92170  0.64510  0.91100  1.0000
  O   O29       1.0  0.42170  0.85490  0.41100  1.0000
  O   O30       1.0  0.57830  0.85490  0.08900  1.0000
  O   O31       1.0  0.92170  0.35490  0.41100  1.0000
  O   O32       1.0  0.07830  0.35490  0.08900  1.0000
  O   O33       1.0  0.56928  0.38040  0.14090  1.0000
  O   O34       1.0  0.43072  0.38040  0.35910  1.0000
  O   O35       1.0  0.06928  0.88040  0.14090  1.0000
  O   O36       1.0  0.93072  0.88040  0.35910  1.0000
  O   O37       1.0  0.43072  0.61960  0.85910  1.0000
  O   O38       1.0  0.56928  0.61960  0.64090  1.0000
  O   O39       1.0  0.93072  0.11960  0.85910  1.0000
  O   O40       1.0  0.06928  0.11960  0.64090  1.0000
  O   O41       1.0  0.51184  0.37510  0.06370  1.0000
  O   O42       1.0  0.48816  0.37510  0.43630  1.0000
  O   O43       1.0  0.01184  0.87510  0.06370  1.0000
  O   O44       1.0  0.98816  0.87510  0.43630  1.0000
  O   O45       1.0  0.48816  0.62490  0.93630  1.0000
  O   O46       1.0  0.51184  0.62490  0.56370  1.0000
  O   O47       1.0  0.98816  0.12490  0.93630  1.0000
  O   O48       1.0  0.01184  0.12490  0.56370  1.0000
  O   O49       1.0  0.65519  0.16840  0.36610  1.0000
  O   O50       1.0  0.34481  0.16840  0.13390  1.0000
  O   O51       1.0  0.15519  0.66840  0.36610  1.0000
  O   O52       1.0  0.84481  0.66840  0.13390  1.0000
  O   O53       1.0  0.34481  0.83160  0.63390  1.0000
  O   O54       1.0  0.65519  0.83160  0.86610  1.0000
  O   O55       1.0  0.84481  0.33160  0.63390  1.0000
  O   O56       1.0  0.15519  0.33160  0.86610  1.0000
  O   O57       1.0  0.68874  0.08580  0.55400  1.0000
  O   O58       1.0  0.31126  0.08580  0.94600  1.0000
  O   O59       1.0  0.18874  0.58580  0.55400  1.0000
  O   O60       1.0  0.81126  0.58580  0.94600  1.0000
  O   O61       1.0  0.31126  0.91420  0.44600  1.0000
  O   O62       1.0  0.68874  0.91420  0.05400  1.0000
  O   O63       1.0  0.81126  0.41420  0.44600  1.0000
  O   O64       1.0  0.18874  0.41420  0.05400  1.0000
  O   O65       1.0  0.62408  0.47060  0.35650  1.0000
  O   O66       1.0  0.37592  0.47060  0.14350  1.0000
  O   O67       1.0  0.12408  0.97060  0.35650  1.0000
  O   O68       1.0  0.87592  0.97060  0.14350  1.0000
  O   O69       1.0  0.37592  0.52940  0.64350  1.0000
  O   O70       1.0  0.62408  0.52940  0.85650  1.0000
  O   O71       1.0  0.87592  0.02940  0.64350  1.0000
  O   O72       1.0  0.12408  0.02940  0.85650  1.0000
  O   O73       1.0  0.63246  0.58270  0.54170  1.0000
  O   O74       1.0  0.36754  0.58270  0.95830  1.0000
  O   O75       1.0  0.13246  0.08270  0.54170  1.0000
  O   O76       1.0  0.86754  0.08270  0.95830  1.0000
  O   O77       1.0  0.36754  0.41730  0.45830  1.0000
  O   O78       1.0  0.63246  0.41730  0.04170  1.0000
  O   O79       1.0  0.86754  0.91730  0.45830  1.0000
  O   O80       1.0  0.13246  0.91730  0.04170  1.0000
  C   C1        1.0  0.58020  0.13220  0.03920  1.0000
  C   C2        1.0  0.41980  0.13220  0.46080  1.0000
  C   C3        1.0  0.08020  0.63220  0.03920  1.0000
  C   C4        1.0  0.91980  0.63220  0.46080  1.0000
  C   C5        1.0  0.41980  0.86780  0.96080  1.0000
  C   C6        1.0  0.58020  0.86780  0.53920  1.0000
  C   C7        1.0  0.91980  0.36780  0.96080  1.0000
  C   C8        1.0  0.08020  0.36780  0.53920  1.0000
  H   H1        1.0  0.57050  0.17260  0.95060  1.0000
  H   H2        1.0  0.42950  0.17260  0.54940  1.0000
  H   H3        1.0  0.07050  0.67260  0.95060  1.0000
  H   H4        1.0  0.92950  0.67260  0.54940  1.0000
  H   H5        1.0  0.42950  0.82740  0.04940  1.0000
  H   H6        1.0  0.57050  0.82740  0.45060  1.0000
  H   H7        1.0  0.92950  0.32740  0.04940  1.0000
  H   H8        1.0  0.07050  0.32740  0.45060  1.0000
  H   H9        1.0  0.56700  0.07110  0.03200  1.0000
  H   H10       1.0  0.43300  0.07110  0.46800  1.0000
  H   H11       1.0  0.06700  0.57110  0.03200  1.0000
  H   H12       1.0  0.93300  0.57110  0.46800  1.0000
  H   H13       1.0  0.43300  0.92890  0.96800  1.0000
  H   H14       1.0  0.56700  0.92890  0.53200  1.0000
  H   H15       1.0  0.93300  0.42890  0.96800  1.0000
  H   H16       1.0  0.06700  0.42890  0.53200  1.0000
  C   C9        1.0  0.61810  0.10930  0.02990  1.0000
  C   C10       1.0  0.38190  0.10930  0.47010  1.0000
  C   C11       1.0  0.11810  0.60930  0.02990  1.0000
  C   C12       1.0  0.88190  0.60930  0.47010  1.0000
  C   C13       1.0  0.38190  0.89070  0.97010  1.0000
  C   C14       1.0  0.61810  0.89070  0.52990  1.0000
  C   C15       1.0  0.88190  0.39070  0.97010  1.0000
  C   C16       1.0  0.11810  0.39070  0.52990  1.0000
  H   H17       1.0  0.62780  0.06460  0.11310  1.0000
  H   H18       1.0  0.37220  0.06460  0.38690  1.0000
  H   H19       1.0  0.12780  0.56460  0.11310  1.0000
  H   H20       1.0  0.87220  0.56460  0.38690  1.0000
  H   H21       1.0  0.37220  0.93540  0.88690  1.0000
  H   H22       1.0  0.62780  0.93540  0.61310  1.0000
  H   H23       1.0  0.87220  0.43540  0.88690  1.0000
  H   H24       1.0  0.12780  0.43540  0.61310  1.0000
  H   H25       1.0  0.61960  0.07810  0.93110  1.0000
  H   H26       1.0  0.38040  0.07810  0.56890  1.0000
  H   H27       1.0  0.11960  0.57810  0.93110  1.0000
  H   H28       1.0  0.88040  0.57810  0.56890  1.0000
  H   H29       1.0  0.38040  0.92190  0.06890  1.0000
  H   H30       1.0  0.61960  0.92190  0.43110  1.0000
  H   H31       1.0  0.88040  0.42190  0.06890  1.0000
  H   H32       1.0  0.11960  0.42190  0.43110  1.0000
  C   C17       1.0  0.67380  0.18060  0.04120  1.0000
  C   C18       1.0  0.32620  0.18060  0.45880  1.0000
  C   C19       1.0  0.17380  0.68060  0.04120  1.0000
  C   C20       1.0  0.82620  0.68060  0.45880  1.0000
  C   C21       1.0  0.32620  0.81940  0.95880  1.0000
  C   C22       1.0  0.67380  0.81940  0.54120  1.0000
  C   C23       1.0  0.82620  0.31940  0.95880  1.0000
  C   C24       1.0  0.17380  0.31940  0.54120  1.0000
  H   H33       1.0  0.67660  0.15310  0.94110  1.0000
  H   H34       1.0  0.32340  0.15310  0.55890  1.0000
  H   H35       1.0  0.17660  0.65310  0.94110  1.0000
  H   H36       1.0  0.82340  0.65310  0.55890  1.0000
  H   H37       1.0  0.32340  0.84690  0.05890  1.0000
  H   H38       1.0  0.67660  0.84690  0.44110  1.0000
  H   H39       1.0  0.82340  0.34690  0.05890  1.0000
  H   H40       1.0  0.17660  0.34690  0.44110  1.0000
  H   H41       1.0  0.68290  0.13330  0.12140  1.0000
  H   H42       1.0  0.31710  0.13330  0.37860  1.0000
  H   H43       1.0  0.18290  0.63330  0.12140  1.0000
  H   H44       1.0  0.81710  0.63330  0.37860  1.0000
  H   H45       1.0  0.31710  0.86670  0.87860  1.0000
  H   H46       1.0  0.68290  0.86670  0.62140  1.0000
  H   H47       1.0  0.81710  0.36670  0.87860  1.0000
  H   H48       1.0  0.18290  0.36670  0.62140  1.0000
  C   C25       1.0  0.69370  0.27130  0.06720  1.0000
  C   C26       1.0  0.30630  0.27130  0.43280  1.0000
  C   C27       1.0  0.19370  0.77130  0.06720  1.0000
  C   C28       1.0  0.80630  0.77130  0.43280  1.0000
  C   C29       1.0  0.30630  0.72870  0.93280  1.0000
  C   C30       1.0  0.69370  0.72870  0.56720  1.0000
  C   C31       1.0  0.80630  0.22870  0.93280  1.0000
  C   C32       1.0  0.19370  0.22870  0.56720  1.0000
  H   H49       1.0  0.71860  0.25690  0.07540  1.0000
  H   H50       1.0  0.28140  0.25690  0.42460  1.0000
  H   H51       1.0  0.21860  0.75690  0.07540  1.0000
  H   H52       1.0  0.78140  0.75690  0.42460  1.0000
  H   H53       1.0  0.28140  0.74310  0.92460  1.0000
  H   H54       1.0  0.71860  0.74310  0.57540  1.0000
  H   H55       1.0  0.78140  0.24310  0.92460  1.0000
  H   H56       1.0  0.21860  0.24310  0.57540  1.0000
  H   H57       1.0  0.68700  0.31480  0.97900  1.0000
  H   H58       1.0  0.31300  0.31480  0.52100  1.0000
  H   H59       1.0  0.18700  0.81480  0.97900  1.0000
  H   H60       1.0  0.81300  0.81480  0.52100  1.0000
  H   H61       1.0  0.31300  0.68520  0.02100  1.0000
  H   H62       1.0  0.68700  0.68520  0.47900  1.0000
  H   H63       1.0  0.81300  0.18520  0.02100  1.0000
  H   H64       1.0  0.18700  0.18520  0.47900  1.0000
  C   C33       1.0  0.71550  0.31390  0.33910  1.0000
  C   C34       1.0  0.28450  0.31390  0.16090  1.0000
  C   C35       1.0  0.21550  0.81390  0.33910  1.0000
  C   C36       1.0  0.78450  0.81390  0.16090  1.0000
  C   C37       1.0  0.28450  0.68610  0.66090  1.0000
  C   C38       1.0  0.71550  0.68610  0.83910  1.0000
  C   C39       1.0  0.78450  0.18610  0.66090  1.0000
  C   C40       1.0  0.21550  0.18610  0.83910  1.0000
  H   H65       1.0  0.73730  0.33890  0.31250  1.0000
  H   H66       1.0  0.26270  0.33890  0.18750  1.0000
  H   H67       1.0  0.23730  0.83890  0.31250  1.0000
  H   H68       1.0  0.76270  0.83890  0.18750  1.0000
  H   H69       1.0  0.26270  0.66110  0.68750  1.0000
  H   H70       1.0  0.73730  0.66110  0.81250  1.0000
  H   H71       1.0  0.76270  0.16110  0.68750  1.0000
  H   H72       1.0  0.23730  0.16110  0.81250  1.0000
  H   H73       1.0  0.71920  0.24630  0.37400  1.0000
  H   H74       1.0  0.28080  0.24630  0.12600  1.0000
  H   H75       1.0  0.21920  0.74630  0.37400  1.0000
  H   H76       1.0  0.78080  0.74630  0.12600  1.0000
  H   H77       1.0  0.28080  0.75370  0.62600  1.0000
  H   H78       1.0  0.71920  0.75370  0.87400  1.0000
  H   H79       1.0  0.78080  0.25370  0.62600  1.0000
  H   H80       1.0  0.21920  0.25370  0.87400  1.0000
  C   C41       1.0  0.70426  0.37500  0.46250  1.0000
  C   C42       1.0  0.29574  0.37500  0.03750  1.0000
  C   C43       1.0  0.20426  0.87500  0.46250  1.0000
  C   C44       1.0  0.79574  0.87500  0.03750  1.0000
  C   C45       1.0  0.29574  0.62500  0.53750  1.0000
  C   C46       1.0  0.70426  0.62500  0.96250  1.0000
  C   C47       1.0  0.79574  0.12500  0.53750  1.0000
  C   C48       1.0  0.20426  0.12500  0.96250  1.0000
  H   H81       1.0  0.72280  0.37430  0.55300  1.0000
  H   H82       1.0  0.27720  0.37430  0.94700  1.0000
  H   H83       1.0  0.22280  0.87430  0.55300  1.0000
  H   H84       1.0  0.77720  0.87430  0.94700  1.0000
  H   H85       1.0  0.27720  0.62570  0.44700  1.0000
  H   H86       1.0  0.72280  0.62570  0.05300  1.0000
  H   H87       1.0  0.77720  0.12570  0.44700  1.0000
  H   H88       1.0  0.22280  0.12570  0.05300  1.0000
  H   H89       1.0  0.70150  0.44240  0.42570  1.0000
  H   H90       1.0  0.29850  0.44240  0.07430  1.0000
  H   H91       1.0  0.20150  0.94240  0.42570  1.0000
  H   H92       1.0  0.79850  0.94240  0.07430  1.0000
  H   H93       1.0  0.29850  0.55760  0.57430  1.0000
  H   H94       1.0  0.70150  0.55760  0.92570  1.0000
  H   H95       1.0  0.79850  0.05760  0.57430  1.0000
  H   H96       1.0  0.20150  0.05760  0.92570  1.0000
  C   C49       1.0  0.58390  0.18270  0.46790  1.0000
  C   C50       1.0  0.41610  0.18270  0.03210  1.0000
  C   C51       1.0  0.08390  0.68270  0.46790  1.0000
  C   C52       1.0  0.91610  0.68270  0.03210  1.0000
  C   C53       1.0  0.41610  0.81730  0.53210  1.0000
  C   C54       1.0  0.58390  0.81730  0.96790  1.0000
  C   C55       1.0  0.91610  0.31730  0.53210  1.0000
  C   C56       1.0  0.08390  0.31730  0.96790  1.0000
  C   C57       1.0  0.57860  0.12100  0.32150  1.0000
  C   C58       1.0  0.42140  0.12100  0.17850  1.0000
  C   C59       1.0  0.07860  0.62100  0.32150  1.0000
  C   C60       1.0  0.92140  0.62100  0.17850  1.0000
  C   C61       1.0  0.42140  0.87900  0.67850  1.0000
  C   C62       1.0  0.57860  0.87900  0.82150  1.0000
  C   C63       1.0  0.92140  0.37900  0.67850  1.0000
  C   C64       1.0  0.07860  0.37900  0.82150  1.0000
  H   H97       1.0  0.59830  0.07630  0.32420  1.0000
  H   H98       1.0  0.40170  0.07630  0.17580  1.0000
  H   H99       1.0  0.09830  0.57630  0.32420  1.0000
  H   H100      1.0  0.90170  0.57630  0.17580  1.0000
  H   H101      1.0  0.40170  0.92370  0.67580  1.0000
  H   H102      1.0  0.59830  0.92370  0.82420  1.0000
  H   H103      1.0  0.90170  0.42370  0.67580  1.0000
  H   H104      1.0  0.09830  0.42370  0.82420  1.0000
  H   H105      1.0  0.55740  0.08180  0.31710  1.0000
  H   H106      1.0  0.44260  0.08180  0.18290  1.0000
  H   H107      1.0  0.05740  0.58180  0.31710  1.0000
  H   H108      1.0  0.94260  0.58180  0.18290  1.0000
  H   H109      1.0  0.44260  0.91820  0.68290  1.0000
  H   H110      1.0  0.55740  0.91820  0.81710  1.0000
  H   H111      1.0  0.94260  0.41820  0.68290  1.0000
  H   H112      1.0  0.05740  0.41820  0.81710  1.0000
  C   C65       1.0  0.54010  0.33630  0.11550  1.0000
  C   C66       1.0  0.45990  0.33630  0.38450  1.0000
  C   C67       1.0  0.04010  0.83630  0.11550  1.0000
  C   C68       1.0  0.95990  0.83630  0.38450  1.0000
  C   C69       1.0  0.45990  0.66370  0.88450  1.0000
  C   C70       1.0  0.54010  0.66370  0.61550  1.0000
  C   C71       1.0  0.95990  0.16370  0.88450  1.0000
  C   C72       1.0  0.04010  0.16370  0.61550  1.0000
  C   C73       1.0  0.54030  0.22970  0.15980  1.0000
  C   C74       1.0  0.45970  0.22970  0.34020  1.0000
  C   C75       1.0  0.04030  0.72970  0.15980  1.0000
  C   C76       1.0  0.95970  0.72970  0.34020  1.0000
  C   C77       1.0  0.45970  0.77030  0.84020  1.0000
  C   C78       1.0  0.54030  0.77030  0.65980  1.0000
  C   C79       1.0  0.95970  0.27030  0.84020  1.0000
  C   C80       1.0  0.04030  0.27030  0.65980  1.0000
  H   H113      1.0  0.53080  0.22340  0.25570  1.0000
  H   H114      1.0  0.46920  0.22340  0.24430  1.0000
  H   H115      1.0  0.03080  0.72340  0.25570  1.0000
  H   H116      1.0  0.96920  0.72340  0.24430  1.0000
  H   H117      1.0  0.46920  0.77660  0.74430  1.0000
  H   H118      1.0  0.53080  0.77660  0.75570  1.0000
  H   H119      1.0  0.96920  0.27660  0.74430  1.0000
  H   H120      1.0  0.03080  0.27660  0.75570  1.0000
  H   H121      1.0  0.52480  0.19410  0.07930  1.0000
  H   H122      1.0  0.47520  0.19410  0.42070  1.0000
  H   H123      1.0  0.02480  0.69410  0.07930  1.0000
  H   H124      1.0  0.97520  0.69410  0.42070  1.0000
  H   H125      1.0  0.47520  0.80590  0.92070  1.0000
  H   H126      1.0  0.52480  0.80590  0.57930  1.0000
  H   H127      1.0  0.97520  0.30590  0.92070  1.0000
  H   H128      1.0  0.02480  0.30590  0.57930  1.0000
  C   C81       1.0  0.67350  0.16220  0.50140  1.0000
  C   C82       1.0  0.32650  0.16220  0.99860  1.0000
  C   C83       1.0  0.17350  0.66220  0.50140  1.0000
  C   C84       1.0  0.82650  0.66220  0.99860  1.0000
  C   C85       1.0  0.32650  0.83780  0.49860  1.0000
  C   C86       1.0  0.67350  0.83780  0.00140  1.0000
  C   C87       1.0  0.82650  0.33780  0.49860  1.0000
  C   C88       1.0  0.17350  0.33780  0.00140  1.0000
  C   C89       1.0  0.67560  0.25210  0.60270  1.0000
  C   C90       1.0  0.32440  0.25210  0.89730  1.0000
  C   C91       1.0  0.17560  0.75210  0.60270  1.0000
  C   C92       1.0  0.82440  0.75210  0.89730  1.0000
  C   C93       1.0  0.32440  0.74790  0.39730  1.0000
  C   C94       1.0  0.67560  0.74790  0.10270  1.0000
  C   C95       1.0  0.82440  0.24790  0.39730  1.0000
  C   C96       1.0  0.17560  0.24790  0.10270  1.0000
  H   H129      1.0  0.65760  0.24840  0.66780  1.0000
  H   H130      1.0  0.34240  0.24840  0.83220  1.0000
  H   H131      1.0  0.15760  0.74840  0.66780  1.0000
  H   H132      1.0  0.84240  0.74840  0.83220  1.0000
  H   H133      1.0  0.34240  0.75160  0.33220  1.0000
  H   H134      1.0  0.65760  0.75160  0.16780  1.0000
  H   H135      1.0  0.84240  0.25160  0.33220  1.0000
  H   H136      1.0  0.15760  0.25160  0.16780  1.0000
  H   H137      1.0  0.69830  0.25340  0.67060  1.0000
  H   H138      1.0  0.30170  0.25340  0.82940  1.0000
  H   H139      1.0  0.19830  0.75340  0.67060  1.0000
  H   H140      1.0  0.80170  0.75340  0.82940  1.0000
  H   H141      1.0  0.30170  0.74660  0.32940  1.0000
  H   H142      1.0  0.69830  0.74660  0.17060  1.0000
  H   H143      1.0  0.80170  0.24660  0.32940  1.0000
  H   H144      1.0  0.19830  0.24660  0.17060  1.0000
  C   C97       1.0  0.63676  0.49890  0.49110  1.0000
  C   C98       1.0  0.36324  0.49890  0.00890  1.0000
  C   C99       1.0  0.13676  0.99890  0.49110  1.0000
  C   C100      1.0  0.86324  0.99890  0.00890  1.0000
  C   C101      1.0  0.36324  0.50110  0.50890  1.0000
  C   C102      1.0  0.63676  0.50110  0.99110  1.0000
  C   C103      1.0  0.86324  0.00110  0.50890  1.0000
  C   C104      1.0  0.13676  0.00110  0.99110  1.0000
  C   C105      1.0  0.65770  0.42410  0.59890  1.0000
  C   C106      1.0  0.34230  0.42410  0.90110  1.0000
  C   C107      1.0  0.15770  0.92410  0.59890  1.0000
  C   C108      1.0  0.84230  0.92410  0.90110  1.0000
  C   C109      1.0  0.34230  0.57590  0.40110  1.0000
  C   C110      1.0  0.65770  0.57590  0.09890  1.0000
  C   C111      1.0  0.84230  0.07590  0.40110  1.0000
  C   C112      1.0  0.15770  0.07590  0.09890  1.0000
  H   H145      1.0  0.67740  0.45690  0.66260  1.0000
  H   H146      1.0  0.32260  0.45690  0.83740  1.0000
  H   H147      1.0  0.17740  0.95690  0.66260  1.0000
  H   H148      1.0  0.82260  0.95690  0.83740  1.0000
  H   H149      1.0  0.32260  0.54310  0.33740  1.0000
  H   H150      1.0  0.67740  0.54310  0.16260  1.0000
  H   H151      1.0  0.82260  0.04310  0.33740  1.0000
  H   H152      1.0  0.17740  0.04310  0.16260  1.0000
  H   H153      1.0  0.64280  0.39690  0.66780  1.0000
  H   H154      1.0  0.35720  0.39690  0.83220  1.0000
  H   H155      1.0  0.14280  0.89690  0.66780  1.0000
  H   H156      1.0  0.85720  0.89690  0.83220  1.0000
  H   H157      1.0  0.35720  0.60310  0.33220  1.0000
  H   H158      1.0  0.64280  0.60310  0.16780  1.0000
  H   H159      1.0  0.85720  0.10310  0.33220  1.0000
  H   H160      1.0  0.14280  0.10310  0.16780  1.0000
