data_image0
_chemical_formula_structural       Cr2O4C4H4Na2O4C4H4C4H4O16
_chemical_formula_sum              "Cr2 O24 C12 H12 Na2"
_cell_length_a       8.0317
_cell_length_b       8.7854
_cell_length_c       11.9391
_cell_angle_alpha    90
_cell_angle_beta     90.923
_cell_angle_gamma    90

_space_group_name_H-M_alt    "P 1"
_space_group_IT_number       1

loop_
  _space_group_symop_operation_xyz
  'x, y, z'

loop_
  _atom_site_type_symbol
  _atom_site_label
  _atom_site_symmetry_multiplicity
  _atom_site_fract_x
  _atom_site_fract_y
  _atom_site_fract_z
  _atom_site_occupancy
  Cr  Cr1       1.0  0.50000  0.50000  0.50000  1.0000
  Cr  Cr2       1.0  0.00000  0.00000  0.00000  1.0000
  O   O1        1.0  0.29790  0.41069  0.43056  1.0000
  O   O2        1.0  0.20210  0.91069  0.06944  1.0000
  O   O3        1.0  0.70210  0.58931  0.56944  1.0000
  O   O4        1.0  0.79790  0.08931  0.93056  1.0000
  C   C1        1.0  0.21820  0.29730  0.46520  1.0000
  C   C2        1.0  0.28180  0.79730  0.03480  1.0000
  C   C3        1.0  0.78180  0.70270  0.53480  1.0000
  C   C4        1.0  0.71820  0.20270  0.96520  1.0000
  H   H1        1.0  0.26210  0.24660  0.52740  1.0000
  H   H2        1.0  0.23790  0.74660  0.97260  1.0000
  H   H3        1.0  0.73790  0.75340  0.47260  1.0000
  H   H4        1.0  0.76210  0.25340  0.02740  1.0000
  Na  Na1       1.0  0.00000  0.00000  0.50000  1.0000
  Na  Na2       1.0  0.50000  0.50000  0.00000  1.0000
  O   O5        1.0  0.57360  0.29912  0.55477  1.0000
  O   O6        1.0  0.92640  0.79912  0.94523  1.0000
  O   O7        1.0  0.42640  0.70088  0.44523  1.0000
  O   O8        1.0  0.07360  0.20088  0.05477  1.0000
  C   C5        1.0  0.43310  0.51310  0.73870  1.0000
  C   C6        1.0  0.06690  0.01310  0.76130  1.0000
  C   C7        1.0  0.56690  0.48690  0.26130  1.0000
  C   C8        1.0  0.93310  0.98690  0.23870  1.0000
  H   H5        1.0  0.54280  0.48070  0.74740  1.0000
  H   H6        1.0  0.95720  0.98070  0.75260  1.0000
  H   H7        1.0  0.45720  0.51930  0.25260  1.0000
  H   H8        1.0  0.04280  0.01930  0.24740  1.0000
  C   C9        1.0  0.70380  0.22740  0.52850  1.0000
  C   C10       1.0  0.79620  0.72740  0.97150  1.0000
  C   C11       1.0  0.29620  0.77260  0.47150  1.0000
  C   C12       1.0  0.20380  0.27260  0.02850  1.0000
  H   H9        1.0  0.77080  0.27010  0.47390  1.0000
  H   H10       1.0  0.72920  0.77010  0.02610  1.0000
  H   H11       1.0  0.22920  0.72990  0.52610  1.0000
  H   H12       1.0  0.27080  0.22990  0.97390  1.0000
  O   O9        1.0  0.08820  0.24740  0.42455  1.0000
  O   O10       1.0  0.41180  0.74740  0.07545  1.0000
  O   O11       1.0  0.91180  0.75260  0.57545  1.0000
  O   O12       1.0  0.58820  0.25260  0.92455  1.0000
  O   O13       1.0  0.74750  0.10760  0.56902  1.0000
  O   O14       1.0  0.75250  0.60760  0.93098  1.0000
  O   O15       1.0  0.25250  0.89240  0.43098  1.0000
  O   O16       1.0  0.24750  0.39240  0.06902  1.0000
  O   O17       1.0  0.35460  0.53870  0.82371  1.0000
  O   O18       1.0  0.14540  0.03870  0.67629  1.0000
  O   O19       1.0  0.64540  0.46130  0.17629  1.0000
  O   O20       1.0  0.85460  0.96130  0.32371  1.0000
  O   O21       1.0  0.37640  0.52754  0.64017  1.0000
  O   O22       1.0  0.12360  0.02754  0.85983  1.0000
  O   O23       1.0  0.62360  0.47246  0.35983  1.0000
  O   O24       1.0  0.87640  0.97246  0.14017  1.0000
