data_image0
_chemical_formula_structural       Cr2O12C12H4O4H4O4H4O4K2
_chemical_formula_sum              "Cr2 O24 C12 H12 K2"
_cell_length_a       8.2054
_cell_length_b       9.1089
_cell_length_c       12.3423
_cell_angle_alpha    90
_cell_angle_beta     90.377
_cell_angle_gamma    90

_space_group_name_H-M_alt    "P 1"
_space_group_IT_number       1

loop_
  _space_group_symop_operation_xyz
  'x, y, z'

loop_
  _atom_site_type_symbol
  _atom_site_label
  _atom_site_symmetry_multiplicity
  _atom_site_fract_x
  _atom_site_fract_y
  _atom_site_fract_z
  _atom_site_occupancy
  Cr  Cr1       1.0  0.50000  0.50000  0.50000  1.0000
  Cr  Cr2       1.0  0.00000  0.00000  0.00000  1.0000
  O   O1        1.0  0.62800  0.53290  0.36760  1.0000
  O   O2        1.0  0.87200  0.03290  0.13240  1.0000
  O   O3        1.0  0.37200  0.46710  0.63240  1.0000
  O   O4        1.0  0.12800  0.96710  0.86760  1.0000
  O   O5        1.0  0.44020  0.30600  0.44340  1.0000
  O   O6        1.0  0.05980  0.80600  0.05660  1.0000
  O   O7        1.0  0.55980  0.69400  0.55660  1.0000
  O   O8        1.0  0.94020  0.19400  0.94340  1.0000
  O   O9        1.0  0.30280  0.57970  0.42960  1.0000
  O   O10       1.0  0.19720  0.07970  0.07040  1.0000
  O   O11       1.0  0.69720  0.42030  0.57040  1.0000
  O   O12       1.0  0.80280  0.92030  0.92960  1.0000
  C   C1        1.0  0.57890  0.51910  0.27150  1.0000
  C   C2        1.0  0.92110  0.01910  0.22850  1.0000
  C   C3        1.0  0.42110  0.48090  0.72850  1.0000
  C   C4        1.0  0.07890  0.98090  0.77150  1.0000
  C   C5        1.0  0.31450  0.23360  0.46480  1.0000
  C   C6        1.0  0.18550  0.73360  0.03520  1.0000
  C   C7        1.0  0.68550  0.76640  0.53520  1.0000
  C   C8        1.0  0.81450  0.26640  0.96480  1.0000
  C   C9        1.0  0.78310  0.31560  0.53680  1.0000
  C   C10       1.0  0.71690  0.81560  0.96320  1.0000
  C   C11       1.0  0.21690  0.68440  0.46320  1.0000
  C   C12       1.0  0.28310  0.18440  0.03680  1.0000
  H   H1        1.0  0.47190  0.48830  0.26100  1.0000
  H   H2        1.0  0.02810  0.98830  0.23900  1.0000
  H   H3        1.0  0.52810  0.51170  0.73900  1.0000
  H   H4        1.0  0.97190  0.01170  0.76100  1.0000
  O   O13       1.0  0.66010  0.54300  0.19020  1.0000
  O   O14       1.0  0.83990  0.04300  0.30980  1.0000
  O   O15       1.0  0.33990  0.45700  0.80980  1.0000
  O   O16       1.0  0.16010  0.95700  0.69020  1.0000
  H   H5        1.0  0.24410  0.27200  0.51630  1.0000
  H   H6        1.0  0.25590  0.77200  0.98370  1.0000
  H   H7        1.0  0.75590  0.72800  0.48370  1.0000
  H   H8        1.0  0.74410  0.22800  0.01630  1.0000
  O   O17       1.0  0.27750  0.11670  0.42320  1.0000
  O   O18       1.0  0.22250  0.61670  0.07680  1.0000
  O   O19       1.0  0.72250  0.88330  0.57680  1.0000
  O   O20       1.0  0.77750  0.38330  0.92320  1.0000
  H   H9        1.0  0.74710  0.26800  0.47450  1.0000
  H   H10       1.0  0.75290  0.76800  0.02550  1.0000
  H   H11       1.0  0.25290  0.73200  0.52550  1.0000
  H   H12       1.0  0.24710  0.23200  0.97450  1.0000
  O   O21       1.0  0.90970  0.27010  0.57840  1.0000
  O   O22       1.0  0.59030  0.77010  0.92160  1.0000
  O   O23       1.0  0.09030  0.72990  0.42160  1.0000
  O   O24       1.0  0.40970  0.22990  0.07840  1.0000
  K   K1        1.0  0.50000  0.50000  0.00000  1.0000
  K   K2        1.0  0.00000  0.00000  0.50000  1.0000
