data_image0
_chemical_formula_structural       K2C4H4O4Al2O4C4H4O4C4H4O12
_chemical_formula_sum              "K2 C12 H12 O24 Al2"
_cell_length_a       8.1644
_cell_length_b       9.0972
_cell_length_c       12.2715
_cell_angle_alpha    90
_cell_angle_beta     90.289
_cell_angle_gamma    90

_space_group_name_H-M_alt    "P 1"
_space_group_IT_number       1

loop_
  _space_group_symop_operation_xyz
  'x, y, z'

loop_
  _atom_site_type_symbol
  _atom_site_label
  _atom_site_symmetry_multiplicity
  _atom_site_fract_x
  _atom_site_fract_y
  _atom_site_fract_z
  _atom_site_occupancy
  K   K1        1.0  0.00000  0.00000  0.50000  1.0000
  K   K2        1.0  0.50000  0.50000  0.00000  1.0000
  C   C1        1.0  0.31380  0.76170  0.46710  1.0000
  C   C2        1.0  0.18620  0.26170  0.03290  1.0000
  C   C3        1.0  0.68620  0.23830  0.53290  1.0000
  C   C4        1.0  0.81380  0.73830  0.96710  1.0000
  H   H1        1.0  0.24180  0.72520  0.51890  1.0000
  H   H2        1.0  0.25820  0.22520  0.98110  1.0000
  H   H3        1.0  0.75820  0.27480  0.48110  1.0000
  H   H4        1.0  0.74180  0.77480  0.01890  1.0000
  O   O1        1.0  0.43730  0.68610  0.44670  1.0000
  O   O2        1.0  0.06270  0.18610  0.05330  1.0000
  O   O3        1.0  0.56270  0.31390  0.55330  1.0000
  O   O4        1.0  0.93730  0.81390  0.94670  1.0000
  Al  Al1       1.0  0.50000  0.50000  0.50000  1.0000
  Al  Al2       1.0  0.00000  0.00000  0.00000  1.0000
  O   O5        1.0  0.38030  0.53030  0.62950  1.0000
  O   O6        1.0  0.11970  0.03030  0.87050  1.0000
  O   O7        1.0  0.61970  0.46970  0.37050  1.0000
  O   O8        1.0  0.88030  0.96970  0.12950  1.0000
  C   C5        1.0  0.77840  0.68500  0.53440  1.0000
  C   C6        1.0  0.72160  0.18500  0.96560  1.0000
  C   C7        1.0  0.22160  0.31500  0.46560  1.0000
  C   C8        1.0  0.27840  0.81500  0.03440  1.0000
  H   H5        1.0  0.74350  0.73460  0.47220  1.0000
  H   H6        1.0  0.75650  0.23460  0.02780  1.0000
  H   H7        1.0  0.25650  0.26540  0.52780  1.0000
  H   H8        1.0  0.24350  0.76540  0.97220  1.0000
  O   O9        1.0  0.27870  0.88010  0.42480  1.0000
  O   O10       1.0  0.22130  0.38010  0.07520  1.0000
  O   O11       1.0  0.72130  0.11990  0.57520  1.0000
  O   O12       1.0  0.77870  0.61990  0.92480  1.0000
  C   C9        1.0  0.42520  0.51690  0.72710  1.0000
  C   C10       1.0  0.07480  0.01690  0.77290  1.0000
  C   C11       1.0  0.57480  0.48310  0.27290  1.0000
  C   C12       1.0  0.92520  0.98310  0.22710  1.0000
  H   H9        1.0  0.53170  0.48450  0.73950  1.0000
  H   H10       1.0  0.96830  0.98450  0.76050  1.0000
  H   H11       1.0  0.46830  0.51550  0.26050  1.0000
  H   H12       1.0  0.03170  0.01550  0.23950  1.0000
  O   O13       1.0  0.69130  0.58020  0.56530  1.0000
  O   O14       1.0  0.80870  0.08020  0.93470  1.0000
  O   O15       1.0  0.30870  0.41980  0.43470  1.0000
  O   O16       1.0  0.19130  0.91980  0.06530  1.0000
  O   O17       1.0  0.34180  0.54260  0.80720  1.0000
  O   O18       1.0  0.15820  0.04260  0.69280  1.0000
  O   O19       1.0  0.65820  0.45740  0.19280  1.0000
  O   O20       1.0  0.84180  0.95740  0.30720  1.0000
  O   O21       1.0  0.90590  0.72960  0.57760  1.0000
  O   O22       1.0  0.59410  0.22960  0.92240  1.0000
  O   O23       1.0  0.09410  0.27040  0.42240  1.0000
  O   O24       1.0  0.40590  0.77040  0.07760  1.0000
