data_image0
_chemical_formula_structural       Zn4Cl8N4C8H4C4H4C4H4C4H4O4C4O4
_chemical_formula_sum              "Zn4 Cl8 N4 C24 H16 O8"
_cell_length_a       9.835
_cell_length_b       25.67
_cell_length_c       11.334
_cell_angle_alpha    90
_cell_angle_beta     94.46
_cell_angle_gamma    90

_space_group_name_H-M_alt    "P 1"
_space_group_IT_number       1

loop_
  _space_group_symop_operation_xyz
  'x, y, z'

loop_
  _atom_site_type_symbol
  _atom_site_label
  _atom_site_symmetry_multiplicity
  _atom_site_fract_x
  _atom_site_fract_y
  _atom_site_fract_z
  _atom_site_occupancy
  Zn  Zn1       1.0  0.38401  0.21821  0.02584  1.0000
  Zn  Zn2       1.0  0.11599  0.71821  0.47416  1.0000
  Zn  Zn3       1.0  0.61599  0.78179  0.97416  1.0000
  Zn  Zn4       1.0  0.88401  0.28179  0.52584  1.0000
  Cl  Cl1       1.0  0.50934  0.26401  0.16342  1.0000
  Cl  Cl2       1.0  0.99066  0.76401  0.33658  1.0000
  Cl  Cl3       1.0  0.49066  0.73599  0.83658  1.0000
  Cl  Cl4       1.0  0.00934  0.23599  0.66342  1.0000
  Cl  Cl5       1.0  0.37283  0.13269  0.06304  1.0000
  Cl  Cl6       1.0  0.12717  0.63269  0.43696  1.0000
  Cl  Cl7       1.0  0.62717  0.86731  0.93696  1.0000
  Cl  Cl8       1.0  0.87283  0.36731  0.56304  1.0000
  N   N1        1.0  0.18560  0.24052  0.05430  1.0000
  N   N2        1.0  0.31440  0.74052  0.44570  1.0000
  N   N3        1.0  0.81440  0.75948  0.94570  1.0000
  N   N4        1.0  0.68560  0.25948  0.55430  1.0000
  C   C1        1.0  0.02420  0.25743  0.19820  1.0000
  C   C2        1.0  0.47580  0.75743  0.30180  1.0000
  C   C3        1.0  0.97580  0.74257  0.80180  1.0000
  C   C4        1.0  0.52420  0.24257  0.69820  1.0000
  C   C5        1.0  0.92000  0.24463  0.11790  1.0000
  C   C6        1.0  0.58000  0.74463  0.38210  1.0000
  C   C7        1.0  0.08000  0.75537  0.88210  1.0000
  C   C8        1.0  0.42000  0.25537  0.61790  1.0000
  H   H1        1.0  0.83090  0.24470  0.14000  1.0000
  H   H2        1.0  0.66910  0.74470  0.36000  1.0000
  H   H3        1.0  0.16910  0.75530  0.86000  1.0000
  H   H4        1.0  0.33090  0.25530  0.64000  1.0000
  C   C9        1.0  0.15780  0.25507  0.16460  1.0000
  C   C10       1.0  0.34220  0.75507  0.33540  1.0000
  C   C11       1.0  0.84220  0.74493  0.83540  1.0000
  C   C12       1.0  0.65780  0.24493  0.66460  1.0000
  H   H5        1.0  0.22950  0.26370  0.21950  1.0000
  H   H6        1.0  0.27050  0.76370  0.28050  1.0000
  H   H7        1.0  0.77050  0.73630  0.78050  1.0000
  H   H8        1.0  0.72950  0.23630  0.71950  1.0000
  C   C13       1.0  0.08290  0.22915  0.97700  1.0000
  C   C14       1.0  0.41710  0.72915  0.52300  1.0000
  C   C15       1.0  0.91710  0.77085  0.02300  1.0000
  C   C16       1.0  0.58290  0.27085  0.47700  1.0000
  H   H9        1.0  0.10280  0.21910  0.90140  1.0000
  H   H10       1.0  0.39720  0.71910  0.59860  1.0000
  H   H11       1.0  0.89720  0.78090  0.09860  1.0000
  H   H12       1.0  0.60280  0.28090  0.40140  1.0000
  C   C17       1.0  0.94590  0.23123  0.00150  1.0000
  C   C18       1.0  0.55410  0.73123  0.49850  1.0000
  C   C19       1.0  0.05410  0.76877  0.99850  1.0000
  C   C20       1.0  0.44590  0.26877  0.50150  1.0000
  H   H13       1.0  0.87570  0.22410  0.94390  1.0000
  H   H14       1.0  0.62430  0.72410  0.55610  1.0000
  H   H15       1.0  0.12430  0.77590  0.05610  1.0000
  H   H16       1.0  0.37570  0.27590  0.44390  1.0000
  O   O1        1.0  0.09680  0.29304  0.38500  1.0000
  O   O2        1.0  0.40320  0.79304  0.11500  1.0000
  O   O3        1.0  0.90320  0.70696  0.61500  1.0000
  O   O4        1.0  0.59680  0.20696  0.88500  1.0000
  C   C21       1.0  0.00550  0.27205  0.32590  1.0000
  C   C22       1.0  0.49450  0.77205  0.17410  1.0000
  C   C23       1.0  0.99450  0.72795  0.67410  1.0000
  C   C24       1.0  0.50550  0.22795  0.82590  1.0000
  O   O5        1.0  0.88890  0.26034  0.35990  1.0000
  O   O6        1.0  0.61110  0.76034  0.14010  1.0000
  O   O7        1.0  0.11110  0.73966  0.64010  1.0000
  O   O8        1.0  0.38890  0.23966  0.85990  1.0000
