data_image0
_chemical_formula_structural       C16H8C8H8C16H8C16H8C8Cu8Mn4O80H16
_chemical_formula_sum              "C64 H48 Cu8 Mn4 O80"
_cell_length_a       20.7223
_cell_length_b       11.5326
_cell_length_c       16.0254
_cell_angle_alpha    90
_cell_angle_beta     129.569
_cell_angle_gamma    90

_space_group_name_H-M_alt    "P 1"
_space_group_IT_number       1

loop_
  _space_group_symop_operation_xyz
  'x, y, z'

loop_
  _atom_site_type_symbol
  _atom_site_label
  _atom_site_symmetry_multiplicity
  _atom_site_fract_x
  _atom_site_fract_y
  _atom_site_fract_z
  _atom_site_occupancy
  C   C1        1.0  0.57873  0.57870  0.13830  1.0000
  C   C2        1.0  0.42127  0.57870  0.36170  1.0000
  C   C3        1.0  0.07873  0.07870  0.13830  1.0000
  C   C4        1.0  0.92127  0.07870  0.36170  1.0000
  C   C5        1.0  0.42127  0.42130  0.86170  1.0000
  C   C6        1.0  0.57873  0.42130  0.63830  1.0000
  C   C7        1.0  0.92127  0.92130  0.86170  1.0000
  C   C8        1.0  0.07873  0.92130  0.63830  1.0000
  C   C9        1.0  0.66295  0.60438  0.16542  1.0000
  C   C10       1.0  0.33705  0.60438  0.33458  1.0000
  C   C11       1.0  0.16295  0.10438  0.16542  1.0000
  C   C12       1.0  0.83705  0.10438  0.33458  1.0000
  C   C13       1.0  0.33705  0.39562  0.83458  1.0000
  C   C14       1.0  0.66295  0.39562  0.66542  1.0000
  C   C15       1.0  0.83705  0.89562  0.83458  1.0000
  C   C16       1.0  0.16295  0.89562  0.66542  1.0000
  H   H1        1.0  0.68950  0.66970  0.21610  1.0000
  H   H2        1.0  0.31050  0.66970  0.28390  1.0000
  H   H3        1.0  0.18950  0.16970  0.21610  1.0000
  H   H4        1.0  0.81050  0.16970  0.28390  1.0000
  H   H5        1.0  0.31050  0.33030  0.78390  1.0000
  H   H6        1.0  0.68950  0.33030  0.71610  1.0000
  H   H7        1.0  0.81050  0.83030  0.78390  1.0000
  H   H8        1.0  0.18950  0.83030  0.71610  1.0000
  C   C17       1.0  0.65608  0.63380  0.06681  1.0000
  C   C18       1.0  0.34392  0.63380  0.43319  1.0000
  C   C19       1.0  0.15608  0.13380  0.06681  1.0000
  C   C20       1.0  0.84392  0.13380  0.43319  1.0000
  C   C21       1.0  0.34392  0.36620  0.93319  1.0000
  C   C22       1.0  0.65608  0.36620  0.56681  1.0000
  C   C23       1.0  0.84392  0.86620  0.93319  1.0000
  C   C24       1.0  0.15608  0.86620  0.56681  1.0000
  H   H9        1.0  0.60340  0.67390  0.01120  1.0000
  H   H10       1.0  0.39660  0.67390  0.48880  1.0000
  H   H11       1.0  0.10340  0.17390  0.01120  1.0000
  H   H12       1.0  0.89660  0.17390  0.48880  1.0000
  H   H13       1.0  0.39660  0.32610  0.98880  1.0000
  H   H14       1.0  0.60340  0.32610  0.51120  1.0000
  H   H15       1.0  0.89660  0.82610  0.98880  1.0000
  H   H16       1.0  0.10340  0.82610  0.51120  1.0000
  C   C25       1.0  0.73123  0.70860  0.10535  1.0000
  C   C26       1.0  0.26877  0.70860  0.39465  1.0000
  C   C27       1.0  0.23123  0.20860  0.10535  1.0000
  C   C28       1.0  0.76877  0.20860  0.39465  1.0000
  C   C29       1.0  0.26877  0.29140  0.89465  1.0000
  C   C30       1.0  0.73123  0.29140  0.60535  1.0000
  C   C31       1.0  0.76877  0.79140  0.89465  1.0000
  C   C32       1.0  0.23123  0.79140  0.60535  1.0000
  C   C33       1.0  0.65736  0.51242  0.02883  1.0000
  C   C34       1.0  0.34264  0.51242  0.47117  1.0000
  C   C35       1.0  0.15736  0.01242  0.02883  1.0000
  C   C36       1.0  0.84264  0.01242  0.47117  1.0000
  C   C37       1.0  0.34264  0.48758  0.97117  1.0000
  C   C38       1.0  0.65736  0.48758  0.52883  1.0000
  C   C39       1.0  0.84264  0.98758  0.97117  1.0000
  C   C40       1.0  0.15736  0.98758  0.52883  1.0000
  H   H17       1.0  0.60090  0.48010  0.98750  1.0000
  H   H18       1.0  0.39910  0.48010  0.51250  1.0000
  H   H19       1.0  0.10090  0.98010  0.98750  1.0000
  H   H20       1.0  0.89910  0.98010  0.51250  1.0000
  H   H21       1.0  0.39910  0.51990  0.01250  1.0000
  H   H22       1.0  0.60090  0.51990  0.48750  1.0000
  H   H23       1.0  0.89910  0.01990  0.01250  1.0000
  H   H24       1.0  0.10090  0.01990  0.48750  1.0000
  C   C41       1.0  0.68035  0.51089  0.95550  1.0000
  C   C42       1.0  0.31965  0.51089  0.54450  1.0000
  C   C43       1.0  0.18035  0.01089  0.95550  1.0000
  C   C44       1.0  0.81965  0.01089  0.54450  1.0000
  C   C45       1.0  0.31965  0.48911  0.04450  1.0000
  C   C46       1.0  0.68035  0.48911  0.45550  1.0000
  C   C47       1.0  0.81965  0.98911  0.04450  1.0000
  C   C48       1.0  0.18035  0.98911  0.45550  1.0000
  C   C49       1.0  0.71531  0.44230  0.13519  1.0000
  C   C50       1.0  0.28469  0.44230  0.36481  1.0000
  C   C51       1.0  0.21531  0.94230  0.13519  1.0000
  C   C52       1.0  0.78469  0.94230  0.36481  1.0000
  C   C53       1.0  0.28469  0.55770  0.86481  1.0000
  C   C54       1.0  0.71531  0.55770  0.63519  1.0000
  C   C55       1.0  0.78469  0.05770  0.86481  1.0000
  C   C56       1.0  0.21531  0.05770  0.63519  1.0000
  H   H25       1.0  0.77160  0.43790  0.15740  1.0000
  H   H26       1.0  0.22840  0.43790  0.34260  1.0000
  H   H27       1.0  0.27160  0.93790  0.15740  1.0000
  H   H28       1.0  0.72840  0.93790  0.34260  1.0000
  H   H29       1.0  0.22840  0.56210  0.84260  1.0000
  H   H30       1.0  0.77160  0.56210  0.65740  1.0000
  H   H31       1.0  0.72840  0.06210  0.84260  1.0000
  H   H32       1.0  0.27160  0.06210  0.65740  1.0000
  C   C57       1.0  0.68187  0.32030  0.12272  1.0000
  C   C58       1.0  0.31813  0.32030  0.37728  1.0000
  C   C59       1.0  0.18187  0.82030  0.12272  1.0000
  C   C60       1.0  0.81813  0.82030  0.37728  1.0000
  C   C61       1.0  0.31813  0.67970  0.87728  1.0000
  C   C62       1.0  0.68187  0.67970  0.62272  1.0000
  C   C63       1.0  0.81813  0.17970  0.87728  1.0000
  C   C64       1.0  0.18187  0.17970  0.62272  1.0000
  Cu  Cu1       1.0  0.67024  0.39497  0.28527  1.0000
  Cu  Cu2       1.0  0.32976  0.39497  0.21473  1.0000
  Cu  Cu3       1.0  0.17024  0.89497  0.28527  1.0000
  Cu  Cu4       1.0  0.82976  0.89497  0.21473  1.0000
  Cu  Cu5       1.0  0.32976  0.60503  0.71473  1.0000
  Cu  Cu6       1.0  0.67024  0.60503  0.78527  1.0000
  Cu  Cu7       1.0  0.82976  0.10503  0.71473  1.0000
  Cu  Cu8       1.0  0.17024  0.10503  0.78527  1.0000
  Mn  Mn1       1.0  0.75000  0.25000  0.00000  1.0000
  Mn  Mn2       1.0  0.25000  0.25000  0.50000  1.0000
  Mn  Mn3       1.0  0.25000  0.75000  0.00000  1.0000
  Mn  Mn4       1.0  0.75000  0.75000  0.50000  1.0000
  O   O1        1.0  0.71822  0.50605  0.21497  1.0000
  O   O2        1.0  0.28178  0.50605  0.28503  1.0000
  O   O3        1.0  0.21822  0.00605  0.21497  1.0000
  O   O4        1.0  0.78178  0.00605  0.28503  1.0000
  O   O5        1.0  0.28178  0.49395  0.78503  1.0000
  O   O6        1.0  0.71822  0.49395  0.71497  1.0000
  O   O7        1.0  0.78178  0.99395  0.78503  1.0000
  O   O8        1.0  0.21822  0.99395  0.71497  1.0000
  O   O9        1.0  0.57390  0.49213  0.18302  1.0000
  O   O10       1.0  0.42610  0.49213  0.31698  1.0000
  O   O11       1.0  0.07390  0.99213  0.18302  1.0000
  O   O12       1.0  0.92610  0.99213  0.31698  1.0000
  O   O13       1.0  0.42610  0.50787  0.81698  1.0000
  O   O14       1.0  0.57390  0.50787  0.68302  1.0000
  O   O15       1.0  0.92610  0.00787  0.81698  1.0000
  O   O16       1.0  0.07390  0.00787  0.68302  1.0000
  O   O17       1.0  0.52100  0.64769  0.07978  1.0000
  O   O18       1.0  0.47900  0.64769  0.42022  1.0000
  O   O19       1.0  0.02100  0.14769  0.07978  1.0000
  O   O20       1.0  0.97900  0.14769  0.42022  1.0000
  O   O21       1.0  0.47900  0.35231  0.92022  1.0000
  O   O22       1.0  0.52100  0.35231  0.57978  1.0000
  O   O23       1.0  0.97900  0.85231  0.92022  1.0000
  O   O24       1.0  0.02100  0.85231  0.57978  1.0000
  O   O25       1.0  0.65000  0.29588  0.16530  1.0000
  O   O26       1.0  0.35000  0.29588  0.33470  1.0000
  O   O27       1.0  0.15000  0.79588  0.16530  1.0000
  O   O28       1.0  0.85000  0.79588  0.33470  1.0000
  O   O29       1.0  0.35000  0.70412  0.83470  1.0000
  O   O30       1.0  0.65000  0.70412  0.66530  1.0000
  O   O31       1.0  0.85000  0.20412  0.83470  1.0000
  O   O32       1.0  0.15000  0.20412  0.66530  1.0000
  O   O33       1.0  0.68798  0.24886  0.06904  1.0000
  O   O34       1.0  0.31202  0.24886  0.43096  1.0000
  O   O35       1.0  0.18798  0.74886  0.06904  1.0000
  O   O36       1.0  0.81202  0.74886  0.43096  1.0000
  O   O37       1.0  0.31202  0.75114  0.93096  1.0000
  O   O38       1.0  0.68798  0.75114  0.56904  1.0000
  O   O39       1.0  0.81202  0.25114  0.93096  1.0000
  O   O40       1.0  0.18798  0.25114  0.56904  1.0000
  O   O41       1.0  0.72509  0.43272  0.96228  1.0000
  O   O42       1.0  0.27491  0.43272  0.53772  1.0000
  O   O43       1.0  0.22509  0.93272  0.96228  1.0000
  O   O44       1.0  0.77491  0.93272  0.53772  1.0000
  O   O45       1.0  0.27491  0.56728  0.03772  1.0000
  O   O46       1.0  0.72509  0.56728  0.46228  1.0000
  O   O47       1.0  0.77491  0.06728  0.03772  1.0000
  O   O48       1.0  0.22509  0.06728  0.46228  1.0000
  O   O49       1.0  0.64826  0.59142  0.88666  1.0000
  O   O50       1.0  0.35174  0.59142  0.61334  1.0000
  O   O51       1.0  0.14826  0.09142  0.88666  1.0000
  O   O52       1.0  0.85174  0.09142  0.61334  1.0000
  O   O53       1.0  0.35174  0.40858  0.11334  1.0000
  O   O54       1.0  0.64826  0.40858  0.38666  1.0000
  O   O55       1.0  0.85174  0.90858  0.11334  1.0000
  O   O56       1.0  0.14826  0.90858  0.38666  1.0000
  O   O57       1.0  0.79557  0.66456  0.13142  1.0000
  O   O58       1.0  0.20443  0.66456  0.36858  1.0000
  O   O59       1.0  0.29557  0.16456  0.13142  1.0000
  O   O60       1.0  0.70443  0.16456  0.36858  1.0000
  O   O61       1.0  0.20443  0.33544  0.86858  1.0000
  O   O62       1.0  0.79557  0.33544  0.63142  1.0000
  O   O63       1.0  0.70443  0.83544  0.86858  1.0000
  O   O64       1.0  0.29557  0.83544  0.63142  1.0000
  O   O65       1.0  0.72334  0.81694  0.11642  1.0000
  O   O66       1.0  0.27666  0.81694  0.38358  1.0000
  O   O67       1.0  0.22334  0.31694  0.11642  1.0000
  O   O68       1.0  0.77666  0.31694  0.38358  1.0000
  O   O69       1.0  0.27666  0.18306  0.88358  1.0000
  O   O70       1.0  0.72334  0.18306  0.61642  1.0000
  O   O71       1.0  0.77666  0.68306  0.88358  1.0000
  O   O72       1.0  0.22334  0.68306  0.61642  1.0000
  O   O73       1.0  0.62886  0.21290  0.84352  1.0000
  O   O74       1.0  0.37114  0.21290  0.65648  1.0000
  O   O75       1.0  0.12886  0.71290  0.84352  1.0000
  O   O76       1.0  0.87114  0.71290  0.65648  1.0000
  O   O77       1.0  0.37114  0.78710  0.15648  1.0000
  O   O78       1.0  0.62886  0.78710  0.34352  1.0000
  O   O79       1.0  0.87114  0.28710  0.15648  1.0000
  O   O80       1.0  0.12886  0.28710  0.34352  1.0000
  H   H33       1.0  0.58200  0.26200  0.80800  1.0000
  H   H34       1.0  0.41800  0.26200  0.69200  1.0000
  H   H35       1.0  0.08200  0.76200  0.80800  1.0000
  H   H36       1.0  0.91800  0.76200  0.69200  1.0000
  H   H37       1.0  0.41800  0.73800  0.19200  1.0000
  H   H38       1.0  0.58200  0.73800  0.30800  1.0000
  H   H39       1.0  0.91800  0.23800  0.19200  1.0000
  H   H40       1.0  0.08200  0.23800  0.30800  1.0000
  H   H41       1.0  0.61000  0.13800  0.84400  1.0000
  H   H42       1.0  0.39000  0.13800  0.65600  1.0000
  H   H43       1.0  0.11000  0.63800  0.84400  1.0000
  H   H44       1.0  0.89000  0.63800  0.65600  1.0000
  H   H45       1.0  0.39000  0.86200  0.15600  1.0000
  H   H46       1.0  0.61000  0.86200  0.34400  1.0000
  H   H47       1.0  0.89000  0.36200  0.15600  1.0000
  H   H48       1.0  0.11000  0.36200  0.34400  1.0000
