data_image0
_chemical_formula_structural       C4H2C2H2C8H2C2H2C4H2C2H2C4H2C2H2C8H2C2H2C4H2C2H2C4H2C2H2C8H2C2H2C4H2C2H2C4H2C2H2C8H2C2H2C4H2C2H2Cu2N8Na4O16H2O4H2O4P8H4
_chemical_formula_sum              "C88 H56 Cu2 N8 Na4 O24 P8"
_cell_length_a       9.847
_cell_length_b       17.208
_cell_length_c       17.271
_cell_angle_alpha    86.02
_cell_angle_beta     75.13
_cell_angle_gamma    79.05

_space_group_name_H-M_alt    "P 1"
_space_group_IT_number       1

loop_
  _space_group_symop_operation_xyz
  'x, y, z'

loop_
  _atom_site_type_symbol
  _atom_site_label
  _atom_site_symmetry_multiplicity
  _atom_site_fract_x
  _atom_site_fract_y
  _atom_site_fract_z
  _atom_site_occupancy
  C   C1        1.0  0.06000  0.67400  0.51380  1.0000
  C   C2        1.0  0.94000  0.32600  0.48620  1.0000
  C   C3        1.0  0.98750  0.75220  0.53710  1.0000
  C   C4        1.0  0.01250  0.24780  0.46290  1.0000
  H   H1        1.0  0.95000  0.79140  0.50470  1.0000
  H   H2        1.0  0.05000  0.20860  0.49530  1.0000
  C   C5        1.0  0.98350  0.75840  0.61640  1.0000
  C   C6        1.0  0.01650  0.24160  0.38360  1.0000
  H   H3        1.0  0.94220  0.80210  0.64850  1.0000
  H   H4        1.0  0.05780  0.19790  0.35150  1.0000
  C   C7        1.0  0.05730  0.68260  0.64000  1.0000
  C   C8        1.0  0.94270  0.31740  0.36000  1.0000
  C   C9        1.0  0.07630  0.66760  0.71590  1.0000
  C   C10       1.0  0.92370  0.33240  0.28410  1.0000
  C   C11       1.0  0.99790  0.72380  0.78120  1.0000
  C   C12       1.0  0.00210  0.27620  0.21880  1.0000
  C   C13       1.0  0.84930  0.73980  0.80430  1.0000
  C   C14       1.0  0.15070  0.26020  0.19570  1.0000
  H   H5        1.0  0.79630  0.71250  0.78190  1.0000
  H   H6        1.0  0.20370  0.28750  0.21810  1.0000
  C   C15       1.0  0.78090  0.79730  0.86140  1.0000
  C   C16       1.0  0.21910  0.20270  0.13860  1.0000
  H   H7        1.0  0.68170  0.80940  0.87520  1.0000
  H   H8        1.0  0.31830  0.19060  0.12480  1.0000
  C   C17       1.0  0.85620  0.83650  0.89780  1.0000
  C   C18       1.0  0.14380  0.16350  0.10220  1.0000
  C   C19       1.0  0.00410  0.81840  0.87530  1.0000
  C   C20       1.0  0.99590  0.18160  0.12470  1.0000
  H   H9        1.0  0.05750  0.84370  0.89940  1.0000
  H   H10       1.0  0.94250  0.15630  0.10060  1.0000
  C   C21       1.0  0.07190  0.76370  0.81810  1.0000
  C   C22       1.0  0.92810  0.23630  0.18190  1.0000
  H   H11       1.0  0.17120  0.75300  0.80350  1.0000
  H   H12       1.0  0.82880  0.24700  0.19650  1.0000
  C   C23       1.0  0.16340  0.59940  0.73620  1.0000
  C   C24       1.0  0.83660  0.40060  0.26380  1.0000
  C   C25       1.0  0.18640  0.57940  0.81290  1.0000
  C   C26       1.0  0.81360  0.42060  0.18710  1.0000
  H   H13       1.0  0.13820  0.60640  0.85970  1.0000
  H   H14       1.0  0.86180  0.39360  0.14030  1.0000
  C   C27       1.0  0.28790  0.51590  0.80730  1.0000
  C   C28       1.0  0.71210  0.48410  0.19270  1.0000
  H   H15       1.0  0.32700  0.49200  0.84850  1.0000
  H   H16       1.0  0.67300  0.50800  0.15150  1.0000
  C   C29       1.0  0.32730  0.48990  0.72380  1.0000
  C   C30       1.0  0.67270  0.51010  0.27620  1.0000
  C   C31       1.0  0.42800  0.42480  0.69400  1.0000
  C   C32       1.0  0.57200  0.57520  0.30600  1.0000
  C   C33       1.0  0.50420  0.37740  0.75140  1.0000
  C   C34       1.0  0.49580  0.62260  0.24860  1.0000
  C   C35       1.0  0.59930  0.40710  0.78170  1.0000
  C   C36       1.0  0.40070  0.59290  0.21830  1.0000
  H   H17       1.0  0.62160  0.45640  0.76380  1.0000
  H   H18       1.0  0.37840  0.54360  0.23620  1.0000
  C   C37       1.0  0.66180  0.36570  0.83770  1.0000
  C   C38       1.0  0.33820  0.63430  0.16230  1.0000
  H   H19       1.0  0.72860  0.38660  0.85550  1.0000
  H   H20       1.0  0.27140  0.61340  0.14450  1.0000
  C   C39       1.0  0.62890  0.29470  0.86810  1.0000
  C   C40       1.0  0.37110  0.70530  0.13190  1.0000
  C   C41       1.0  0.53290  0.26460  0.83920  1.0000
  C   C42       1.0  0.46710  0.73540  0.16080  1.0000
  H   H21       1.0  0.50750  0.21650  0.85970  1.0000
  H   H22       1.0  0.49250  0.78350  0.14030  1.0000
  C   C43       1.0  0.47280  0.30410  0.78010  1.0000
  C   C44       1.0  0.52720  0.69590  0.21990  1.0000
  H   H23       1.0  0.41110  0.28130  0.75970  1.0000
  H   H24       1.0  0.58890  0.71870  0.24030  1.0000
  C   C45       1.0  0.45310  0.39830  0.61710  1.0000
  C   C46       1.0  0.54690  0.60170  0.38290  1.0000
  C   C47       1.0  0.55870  0.33150  0.58180  1.0000
  C   C48       1.0  0.44130  0.66850  0.41820  1.0000
  H   H25       1.0  0.62490  0.30050  0.60620  1.0000
  H   H26       1.0  0.37510  0.69950  0.39380  1.0000
  C   C49       1.0  0.54500  0.32170  0.50830  1.0000
  C   C50       1.0  0.45500  0.67830  0.49170  1.0000
  H   H27       1.0  0.59940  0.28290  0.47250  1.0000
  H   H28       1.0  0.40060  0.71710  0.52750  1.0000
  C   C51       1.0  0.43180  0.38150  0.49500  1.0000
  C   C52       1.0  0.56820  0.61850  0.50500  1.0000
  C   C53       1.0  0.37040  0.38630  0.43010  1.0000
  C   C54       1.0  0.62960  0.61370  0.56990  1.0000
  C   C55       1.0  0.42230  0.31910  0.37190  1.0000
  C   C56       1.0  0.57770  0.68090  0.62810  1.0000
  C   C57       1.0  0.40150  0.24310  0.39690  1.0000
  C   C58       1.0  0.59850  0.75690  0.60310  1.0000
  H   H29       1.0  0.35380  0.23440  0.44970  1.0000
  H   H30       1.0  0.64620  0.76560  0.55030  1.0000
  C   C59       1.0  0.44880  0.18040  0.34630  1.0000
  C   C60       1.0  0.55120  0.81960  0.65370  1.0000
  H   H31       1.0  0.43510  0.12980  0.36510  1.0000
  H   H32       1.0  0.56490  0.87020  0.63490  1.0000
  C   C61       1.0  0.51730  0.19300  0.26660  1.0000
  C   C62       1.0  0.48270  0.80700  0.73340  1.0000
  C   C63       1.0  0.53630  0.26770  0.24010  1.0000
  C   C64       1.0  0.46370  0.73230  0.75990  1.0000
  H   H33       1.0  0.58060  0.27670  0.18670  1.0000
  H   H34       1.0  0.41940  0.72330  0.81330  1.0000
  C   C65       1.0  0.49000  0.33040  0.29230  1.0000
  C   C66       1.0  0.51000  0.66960  0.70770  1.0000
  H   H35       1.0  0.50470  0.38080  0.27350  1.0000
  H   H36       1.0  0.49530  0.61920  0.72650  1.0000
  C   C67       1.0  0.26480  0.44810  0.41640  1.0000
  C   C68       1.0  0.73520  0.55190  0.58360  1.0000
  C   C69       1.0  0.19890  0.45310  0.35080  1.0000
  C   C70       1.0  0.80110  0.54690  0.64920  1.0000
  H   H37       1.0  0.21080  0.41400  0.31380  1.0000
  H   H38       1.0  0.78920  0.58600  0.68620  1.0000
  C   C71       1.0  0.11740  0.52460  0.35290  1.0000
  C   C72       1.0  0.88260  0.47540  0.64710  1.0000
  H   H39       1.0  0.06210  0.54500  0.31740  1.0000
  H   H40       1.0  0.93790  0.45500  0.68260  1.0000
  C   C73       1.0  0.13090  0.56360  0.41950  1.0000
  C   C74       1.0  0.86910  0.43640  0.58050  1.0000
  C   C75       1.0  0.06680  0.64150  0.44000  1.0000
  C   C76       1.0  0.93320  0.35850  0.56000  1.0000
  C   C77       1.0  0.00020  0.69470  0.38360  1.0000
  C   C78       1.0  0.99980  0.30530  0.61640  1.0000
  C   C79       1.0  0.08030  0.73570  0.32250  1.0000
  C   C80       1.0  0.91970  0.26430  0.67750  1.0000
  H   H41       1.0  0.17920  0.72680  0.31340  1.0000
  H   H42       1.0  0.82080  0.27320  0.68660  1.0000
  C   C81       1.0  0.01300  0.79040  0.27440  1.0000
  C   C82       1.0  0.98700  0.20960  0.72560  1.0000
  H   H43       1.0  0.06900  0.81700  0.23350  1.0000
  H   H44       1.0  0.93100  0.18300  0.76650  1.0000
  C   C83       1.0  0.86960  0.80600  0.28500  1.0000
  C   C84       1.0  0.13040  0.19400  0.71500  1.0000
  C   C85       1.0  0.78970  0.76380  0.34520  1.0000
  C   C86       1.0  0.21030  0.23620  0.65480  1.0000
  H   H45       1.0  0.69090  0.77250  0.35350  1.0000
  H   H46       1.0  0.30910  0.22750  0.64650  1.0000
  C   C87       1.0  0.85340  0.70960  0.39230  1.0000
  C   C88       1.0  0.14660  0.29040  0.60770  1.0000
  H   H47       1.0  0.79670  0.68160  0.43160  1.0000
  H   H48       1.0  0.20330  0.31840  0.56840  1.0000
  Cu  Cu1       1.0  0.23871  0.53119  0.56919  1.0000
  Cu  Cu2       1.0  0.76129  0.46881  0.43081  1.0000
  N   N1        1.0  0.10780  0.63410  0.57590  1.0000
  N   N2        1.0  0.89220  0.36590  0.42410  1.0000
  N   N3        1.0  0.24780  0.54320  0.68170  1.0000
  N   N4        1.0  0.75220  0.45680  0.31830  1.0000
  N   N5        1.0  0.37970  0.43150  0.56020  1.0000
  N   N6        1.0  0.62030  0.56850  0.43980  1.0000
  N   N7        1.0  0.21650  0.51510  0.46050  1.0000
  N   N8        1.0  0.78350  0.48490  0.53950  1.0000
  Na  Na1       1.0  0.04250  0.92805  0.06457  1.0000
  Na  Na2       1.0  0.95750  0.07195  0.93543  1.0000
  Na  Na3       1.0  0.56400  0.08390  0.00223  1.0000
  Na  Na4       1.0  0.43600  0.91610  0.99777  1.0000
  O   O1        1.0  0.65910  0.96960  0.92870  1.0000
  O   O2        1.0  0.34090  0.03040  0.07130  1.0000
  O   O3        1.0  0.87730  0.95280  0.98820  1.0000
  O   O4        1.0  0.12270  0.04720  0.01180  1.0000
  O   O5        1.0  0.66930  0.87670  0.03950  1.0000
  O   O6        1.0  0.33070  0.12330  0.96050  1.0000
  O   O7        1.0  0.57820  0.25380  0.02120  1.0000
  O   O8        1.0  0.42180  0.74620  0.97880  1.0000
  O   O9        1.0  0.82550  0.27790  0.95400  1.0000
  O   O10       1.0  0.17450  0.72210  0.04600  1.0000
  O   O11       1.0  0.74550  0.15450  0.92670  1.0000
  O   O12       1.0  0.25450  0.84550  0.07330  1.0000
  O   O13       1.0  0.51320  0.04150  0.23680  1.0000
  O   O14       1.0  0.48680  0.95850  0.76320  1.0000
  O   O15       1.0  0.74760  0.08750  0.21000  1.0000
  O   O16       1.0  0.25240  0.91250  0.79000  1.0000
  H   H49       1.0  0.79130  0.05080  0.18060  1.0000
  H   H50       1.0  0.20870  0.94920  0.81940  1.0000
  O   O17       1.0  0.58500  0.13350  0.11810  1.0000
  O   O18       1.0  0.41500  0.86650  0.88190  1.0000
  O   O19       1.0  0.64070  0.90890  0.27460  1.0000
  O   O20       1.0  0.35930  0.09110  0.72540  1.0000
  H   H51       1.0  0.60180  0.94610  0.25110  1.0000
  H   H52       1.0  0.39820  0.05390  0.74890  1.0000
  O   O21       1.0  0.77520  0.82620  0.15480  1.0000
  O   O22       1.0  0.22480  0.17380  0.84520  1.0000
  O   O23       1.0  0.87850  0.93810  0.19160  1.0000
  O   O24       1.0  0.12150  0.06190  0.80840  1.0000
  P   P1        1.0  0.76660  0.91624  0.96611  1.0000
  P   P2        1.0  0.23340  0.08376  0.03389  1.0000
  P   P3        1.0  0.70770  0.24033  0.94486  1.0000
  P   P4        1.0  0.29230  0.75967  0.05514  1.0000
  P   P5        1.0  0.59050  0.10856  0.20170  1.0000
  P   P6        1.0  0.40950  0.89144  0.79830  1.0000
  P   P7        1.0  0.79050  0.87473  0.22048  1.0000
  P   P8        1.0  0.20950  0.12527  0.77952  1.0000
  H   H53       1.0  0.57900  0.21700  0.05500  1.0000
  H   H54       1.0  0.42100  0.78300  0.94500  1.0000
  H   H55       1.0  0.69600  0.86900  0.08200  1.0000
  H   H56       1.0  0.30400  0.13100  0.91800  1.0000
