data_image0
_chemical_formula_structural       Mn4O24N8C80H64
_chemical_formula_sum              "Mn4 O24 N8 C80 H64"
_cell_length_a       17.836
_cell_length_b       11.7949
_cell_length_c       9.4298
_cell_angle_alpha    90
_cell_angle_beta     90.652
_cell_angle_gamma    90

_space_group_name_H-M_alt    "P 1"
_space_group_IT_number       1

loop_
  _space_group_symop_operation_xyz
  'x, y, z'

loop_
  _atom_site_type_symbol
  _atom_site_label
  _atom_site_symmetry_multiplicity
  _atom_site_fract_x
  _atom_site_fract_y
  _atom_site_fract_z
  _atom_site_occupancy
  Mn  Mn1       1.0  0.23522  0.49732  0.43325  1.0000
  Mn  Mn2       1.0  0.76478  0.99732  0.06675  1.0000
  Mn  Mn3       1.0  0.76478  0.50268  0.56675  1.0000
  Mn  Mn4       1.0  0.23522  0.00268  0.93325  1.0000
  O   O1        1.0  0.29511  0.61875  0.49498  1.0000
  O   O2        1.0  0.70489  0.11875  0.00502  1.0000
  O   O3        1.0  0.70489  0.38125  0.50502  1.0000
  O   O4        1.0  0.29511  0.88125  0.99498  1.0000
  O   O5        1.0  0.27235  0.13076  0.08623  1.0000
  O   O6        1.0  0.72765  0.63076  0.41377  1.0000
  O   O7        1.0  0.72765  0.86924  0.91377  1.0000
  O   O8        1.0  0.27235  0.36924  0.58623  1.0000
  O   O9        1.0  0.30624  0.03046  0.27730  1.0000
  O   O10       1.0  0.69376  0.53046  0.22270  1.0000
  O   O11       1.0  0.69376  0.96954  0.72270  1.0000
  O   O12       1.0  0.30624  0.46954  0.77730  1.0000
  O   O13       1.0  0.15345  0.53489  0.55262  1.0000
  O   O14       1.0  0.84655  0.03489  0.94738  1.0000
  O   O15       1.0  0.84655  0.46511  0.44738  1.0000
  O   O16       1.0  0.15345  0.96511  0.05262  1.0000
  O   O17       1.0  0.20363  0.59403  0.24107  1.0000
  O   O18       1.0  0.79637  0.09403  0.25893  1.0000
  O   O19       1.0  0.79637  0.40597  0.75893  1.0000
  O   O20       1.0  0.20363  0.90597  0.74107  1.0000
  O   O21       1.0  0.15541  0.62783  0.02787  1.0000
  O   O22       1.0  0.84459  0.12783  0.47213  1.0000
  O   O23       1.0  0.84459  0.37217  0.97213  1.0000
  O   O24       1.0  0.15541  0.87217  0.52787  1.0000
  N   N1        1.0  0.31464  0.43803  0.30670  1.0000
  N   N2        1.0  0.68536  0.93803  0.19330  1.0000
  N   N3        1.0  0.68536  0.56197  0.69330  1.0000
  N   N4        1.0  0.31464  0.06197  0.80670  1.0000
  N   N5        1.0  0.17388  0.37911  0.33750  1.0000
  N   N6        1.0  0.82612  0.87911  0.16250  1.0000
  N   N7        1.0  0.82612  0.62089  0.66250  1.0000
  N   N8        1.0  0.17388  0.12089  0.83750  1.0000
  C   C1        1.0  0.36767  0.63470  0.47570  1.0000
  C   C2        1.0  0.63233  0.13470  0.02430  1.0000
  C   C3        1.0  0.63233  0.36530  0.52430  1.0000
  C   C4        1.0  0.36767  0.86530  0.97570  1.0000
  C   C5        1.0  0.40320  0.72140  0.55200  1.0000
  C   C6        1.0  0.59680  0.22140  0.94800  1.0000
  C   C7        1.0  0.59680  0.27860  0.44800  1.0000
  C   C8        1.0  0.40320  0.77860  0.05200  1.0000
  C   C9        1.0  0.47858  0.74280  0.53710  1.0000
  C   C10       1.0  0.52142  0.24280  0.96290  1.0000
  C   C11       1.0  0.52142  0.25720  0.46290  1.0000
  C   C12       1.0  0.47858  0.75720  0.03710  1.0000
  C   C13       1.0  0.52189  0.67910  0.44510  1.0000
  C   C14       1.0  0.47811  0.17910  0.05490  1.0000
  C   C15       1.0  0.47811  0.32090  0.55490  1.0000
  C   C16       1.0  0.52189  0.82090  0.94510  1.0000
  C   C17       1.0  0.48838  0.59350  0.36810  1.0000
  C   C18       1.0  0.51162  0.09350  0.13190  1.0000
  C   C19       1.0  0.51162  0.40650  0.63190  1.0000
  C   C20       1.0  0.48838  0.90650  0.86810  1.0000
  C   C21       1.0  0.41182  0.56939  0.38170  1.0000
  C   C22       1.0  0.58818  0.06939  0.11830  1.0000
  C   C23       1.0  0.58818  0.43061  0.61830  1.0000
  C   C24       1.0  0.41182  0.93061  0.88170  1.0000
  C   C25       1.0  0.38182  0.47695  0.29850  1.0000
  C   C26       1.0  0.61818  0.97695  0.20150  1.0000
  C   C27       1.0  0.61818  0.52305  0.70150  1.0000
  C   C28       1.0  0.38182  0.02305  0.79850  1.0000
  C   C29       1.0  0.29030  0.34019  0.21740  1.0000
  C   C30       1.0  0.70970  0.84019  0.28260  1.0000
  C   C31       1.0  0.70970  0.65981  0.78260  1.0000
  C   C32       1.0  0.29030  0.15981  0.71740  1.0000
  C   C33       1.0  0.31201  0.23035  0.29420  1.0000
  C   C34       1.0  0.68799  0.73035  0.20580  1.0000
  C   C35       1.0  0.68799  0.76965  0.70580  1.0000
  C   C36       1.0  0.31201  0.26965  0.79420  1.0000
  C   C37       1.0  0.29519  0.12124  0.21280  1.0000
  C   C38       1.0  0.70481  0.62124  0.28720  1.0000
  C   C39       1.0  0.70481  0.87876  0.78720  1.0000
  C   C40       1.0  0.29519  0.37876  0.71280  1.0000
  C   C41       1.0  0.09875  0.46560  0.59080  1.0000
  C   C42       1.0  0.90125  0.96560  0.90920  1.0000
  C   C43       1.0  0.90125  0.53440  0.40920  1.0000
  C   C44       1.0  0.09875  0.03440  0.09080  1.0000
  C   C45       1.0  0.05998  0.48910  0.71730  1.0000
  C   C46       1.0  0.94002  0.98910  0.78270  1.0000
  C   C47       1.0  0.94002  0.51090  0.28270  1.0000
  C   C48       1.0  0.05998  0.01090  0.21730  1.0000
  C   C49       1.0  0.99972  0.42410  0.75730  1.0000
  C   C50       1.0  0.00028  0.92410  0.74270  1.0000
  C   C51       1.0  0.00028  0.57590  0.24270  1.0000
  C   C52       1.0  0.99972  0.07590  0.25730  1.0000
  C   C53       1.0  0.97426  0.33470  0.67390  1.0000
  C   C54       1.0  0.02574  0.83470  0.82610  1.0000
  C   C55       1.0  0.02574  0.66530  0.32610  1.0000
  C   C56       1.0  0.97426  0.16530  0.17390  1.0000
  C   C57       1.0  0.01174  0.30810  0.55170  1.0000
  C   C58       1.0  0.98826  0.80810  0.94830  1.0000
  C   C59       1.0  0.98826  0.69190  0.44830  1.0000
  C   C60       1.0  0.01174  0.19190  0.05170  1.0000
  C   C61       1.0  0.07522  0.37100  0.50990  1.0000
  C   C62       1.0  0.92478  0.87100  0.99010  1.0000
  C   C63       1.0  0.92478  0.62900  0.49010  1.0000
  C   C64       1.0  0.07522  0.12900  0.00990  1.0000
  C   C65       1.0  0.11161  0.33810  0.38070  1.0000
  C   C66       1.0  0.88839  0.83810  0.11930  1.0000
  C   C67       1.0  0.88839  0.66190  0.61930  1.0000
  C   C68       1.0  0.11161  0.16190  0.88070  1.0000
  C   C69       1.0  0.20478  0.34880  0.19710  1.0000
  C   C70       1.0  0.79522  0.84880  0.30290  1.0000
  C   C71       1.0  0.79522  0.65120  0.80290  1.0000
  C   C72       1.0  0.20478  0.15120  0.69710  1.0000
  C   C73       1.0  0.17911  0.43530  0.08490  1.0000
  C   C74       1.0  0.82089  0.93530  0.41510  1.0000
  C   C75       1.0  0.82089  0.56470  0.91510  1.0000
  C   C76       1.0  0.17911  0.06470  0.58490  1.0000
  C   C77       1.0  0.18048  0.56230  0.11990  1.0000
  C   C78       1.0  0.81952  0.06230  0.38010  1.0000
  C   C79       1.0  0.81952  0.43770  0.88010  1.0000
  C   C80       1.0  0.18048  0.93770  0.61990  1.0000
  H   H1        1.0  0.37480  0.76640  0.61540  1.0000
  H   H2        1.0  0.62520  0.26640  0.88460  1.0000
  H   H3        1.0  0.62520  0.23360  0.38460  1.0000
  H   H4        1.0  0.37480  0.73360  0.11540  1.0000
  H   H5        1.0  0.50130  0.80210  0.59050  1.0000
  H   H6        1.0  0.49870  0.30210  0.90950  1.0000
  H   H7        1.0  0.49870  0.19790  0.40950  1.0000
  H   H8        1.0  0.50130  0.69790  0.09050  1.0000
  H   H9        1.0  0.57390  0.69430  0.43550  1.0000
  H   H10       1.0  0.42610  0.19430  0.06450  1.0000
  H   H11       1.0  0.42610  0.30570  0.56450  1.0000
  H   H12       1.0  0.57390  0.80570  0.93550  1.0000
  H   H13       1.0  0.51770  0.54990  0.30460  1.0000
  H   H14       1.0  0.48230  0.04990  0.19540  1.0000
  H   H15       1.0  0.48230  0.45010  0.69540  1.0000
  H   H16       1.0  0.51770  0.95010  0.80460  1.0000
  H   H17       1.0  0.41430  0.44200  0.23230  1.0000
  H   H18       1.0  0.58570  0.94200  0.26770  1.0000
  H   H19       1.0  0.58570  0.55800  0.76770  1.0000
  H   H20       1.0  0.41430  0.05800  0.73230  1.0000
  H   H21       1.0  0.31540  0.34360  0.12320  1.0000
  H   H22       1.0  0.68460  0.84360  0.37680  1.0000
  H   H23       1.0  0.68460  0.65640  0.87680  1.0000
  H   H24       1.0  0.31540  0.15640  0.62320  1.0000
  H   H25       1.0  0.36640  0.23280  0.31620  1.0000
  H   H26       1.0  0.63360  0.73280  0.18380  1.0000
  H   H27       1.0  0.63360  0.76720  0.68380  1.0000
  H   H28       1.0  0.36640  0.26720  0.81620  1.0000
  H   H29       1.0  0.28520  0.22770  0.38550  1.0000
  H   H30       1.0  0.71480  0.72770  0.11450  1.0000
  H   H31       1.0  0.71480  0.77230  0.61450  1.0000
  H   H32       1.0  0.28520  0.27230  0.88550  1.0000
  H   H33       1.0  0.07570  0.55060  0.77550  1.0000
  H   H34       1.0  0.92430  0.05060  0.72450  1.0000
  H   H35       1.0  0.92430  0.44940  0.22450  1.0000
  H   H36       1.0  0.07570  0.94940  0.27550  1.0000
  H   H37       1.0  0.97510  0.44070  0.84360  1.0000
  H   H38       1.0  0.02490  0.94070  0.65640  1.0000
  H   H39       1.0  0.02490  0.55930  0.15640  1.0000
  H   H40       1.0  0.97510  0.05930  0.34360  1.0000
  H   H41       1.0  0.93140  0.29230  0.70100  1.0000
  H   H42       1.0  0.06860  0.79230  0.79900  1.0000
  H   H43       1.0  0.06860  0.70770  0.29900  1.0000
  H   H44       1.0  0.93140  0.20770  0.20100  1.0000
  H   H45       1.0  0.99470  0.24670  0.49450  1.0000
  H   H46       1.0  0.00530  0.74670  0.00550  1.0000
  H   H47       1.0  0.00530  0.75330  0.50550  1.0000
  H   H48       1.0  0.99470  0.25330  0.99450  1.0000
  H   H49       1.0  0.08780  0.28210  0.32350  1.0000
  H   H50       1.0  0.91220  0.78210  0.17650  1.0000
  H   H51       1.0  0.91220  0.71790  0.67650  1.0000
  H   H52       1.0  0.08780  0.21790  0.82350  1.0000
  H   H53       1.0  0.18510  0.27240  0.16940  1.0000
  H   H54       1.0  0.81490  0.77240  0.33060  1.0000
  H   H55       1.0  0.81490  0.72760  0.83060  1.0000
  H   H56       1.0  0.18510  0.22760  0.66940  1.0000
  H   H57       1.0  0.21050  0.42390  0.00020  1.0000
  H   H58       1.0  0.78950  0.92390  0.49980  1.0000
  H   H59       1.0  0.78950  0.57610  0.99980  1.0000
  H   H60       1.0  0.21050  0.07610  0.50020  1.0000
  H   H61       1.0  0.12700  0.41560  0.05710  1.0000
  H   H62       1.0  0.87300  0.91560  0.44290  1.0000
  H   H63       1.0  0.87300  0.58440  0.94290  1.0000
  H   H64       1.0  0.12700  0.08440  0.55710  1.0000
