data_image0
_chemical_formula_structural       U2O16C2H2C2H2C2H4C2H4C2H4C2H4C6H2
_chemical_formula_sum              "U2 O16 C18 H22"
_cell_length_a       7.7955
_cell_length_b       14.9391
_cell_length_c       13.2114
_cell_angle_alpha    90
_cell_angle_beta     101.563
_cell_angle_gamma    90

_space_group_name_H-M_alt    "P 1"
_space_group_IT_number       1

loop_
  _space_group_symop_operation_xyz
  'x, y, z'

loop_
  _atom_site_type_symbol
  _atom_site_label
  _atom_site_symmetry_multiplicity
  _atom_site_fract_x
  _atom_site_fract_y
  _atom_site_fract_z
  _atom_site_occupancy
  U   U1        1.0  0.18035  0.88219  0.86421  1.0000
  U   U2        1.0  0.81965  0.38219  0.13579  1.0000
  O   O1        1.0  0.31540  0.90170  0.77510  1.0000
  O   O2        1.0  0.68460  0.40170  0.22490  1.0000
  O   O3        1.0  0.04220  0.86370  0.95150  1.0000
  O   O4        1.0  0.95780  0.36370  0.04850  1.0000
  O   O5        1.0  0.20320  0.72110  0.83470  1.0000
  O   O6        1.0  0.79680  0.22110  0.16530  1.0000
  O   O7        1.0  0.40000  0.77890  0.95880  1.0000
  O   O8        1.0  0.60000  0.27890  0.04120  1.0000
  O   O9        1.0  0.61200  0.46800  0.00560  1.0000
  O   O10       1.0  0.38800  0.96800  0.99440  1.0000
  O   O11       1.0  0.82310  0.54340  0.10290  1.0000
  O   O12       1.0  0.17690  0.04340  0.89710  1.0000
  O   O13       1.0  0.93830  0.96300  0.74710  1.0000
  O   O14       1.0  0.06170  0.46300  0.25290  1.0000
  O   O15       1.0  0.94210  0.82010  0.72310  1.0000
  O   O16       1.0  0.05790  0.32010  0.27690  1.0000
  C   C1        1.0  0.43540  0.62260  0.91350  1.0000
  C   C2        1.0  0.56460  0.12260  0.08650  1.0000
  H   H1        1.0  0.36360  0.57970  0.94570  1.0000
  H   H2        1.0  0.63640  0.07970  0.05430  1.0000
  C   C3        1.0  0.61520  0.63030  0.98640  1.0000
  C   C4        1.0  0.38480  0.13030  0.01360  1.0000
  H   H3        1.0  0.59840  0.66900  0.04540  1.0000
  H   H4        1.0  0.40160  0.16900  0.95460  1.0000
  C   C5        1.0  0.74940  0.67920  0.93320  1.0000
  C   C6        1.0  0.25060  0.17920  0.06680  1.0000
  H   H5        1.0  0.71870  0.74350  0.92530  1.0000
  H   H6        1.0  0.28130  0.24350  0.07470  1.0000
  H   H7        1.0  0.86780  0.67440  0.97720  1.0000
  H   H8        1.0  0.13220  0.17440  0.02280  1.0000
  C   C7        1.0  0.75040  0.63890  0.82760  1.0000
  C   C8        1.0  0.24960  0.13890  0.17240  1.0000
  H   H9        1.0  0.83250  0.67330  0.79430  1.0000
  H   H10       1.0  0.16750  0.17330  0.20570  1.0000
  H   H11       1.0  0.79410  0.57660  0.83680  1.0000
  H   H12       1.0  0.20590  0.07660  0.16320  1.0000
  C   C9        1.0  0.57330  0.63870  0.75780  1.0000
  C   C10       1.0  0.42670  0.13870  0.24220  1.0000
  H   H13       1.0  0.58160  0.61200  0.69030  1.0000
  H   H14       1.0  0.41840  0.11200  0.30970  1.0000
  H   H15       1.0  0.53060  0.70090  0.74550  1.0000
  H   H16       1.0  0.46940  0.20090  0.25450  1.0000
  C   C11       1.0  0.44630  0.58560  0.80590  1.0000
  C   C12       1.0  0.55370  0.08560  0.19410  1.0000
  H   H17       1.0  0.48410  0.52230  0.81260  1.0000
  H   H18       1.0  0.51590  0.02230  0.18740  1.0000
  H   H19       1.0  0.32880  0.58790  0.76050  1.0000
  H   H20       1.0  0.67120  0.08790  0.23950  1.0000
  C   C13       1.0  0.33880  0.71270  0.90180  1.0000
  C   C14       1.0  0.66120  0.21270  0.09820  1.0000
  C   C15       1.0  0.68650  0.54090  0.03270  1.0000
  C   C16       1.0  0.31350  0.04090  0.96730  1.0000
  C   C17       1.0  0.87430  0.89190  0.70400  1.0000
  C   C18       1.0  0.12570  0.39190  0.29600  1.0000
  H   H21       1.0  0.76800  0.89530  0.65430  1.0000
  H   H22       1.0  0.23200  0.39530  0.34570  1.0000
