data_image0
_chemical_formula_structural       U8O64C4H4C4H8C4H8C4H4C4H8C4H8C12H4C4H8C4H8C4H4C4H8C4H8C12H4C4H8C4H8C4H4C4H8C4H8C8
_chemical_formula_sum              "U8 O64 C96 H120"
_cell_length_a       28.3178
_cell_length_b       13.1707
_cell_length_c       16.3855
_cell_angle_alpha    90
_cell_angle_beta     91.0988
_cell_angle_gamma    90

_space_group_name_H-M_alt    "P 1"
_space_group_IT_number       1

loop_
  _space_group_symop_operation_xyz
  'x, y, z'

loop_
  _atom_site_type_symbol
  _atom_site_label
  _atom_site_symmetry_multiplicity
  _atom_site_fract_x
  _atom_site_fract_y
  _atom_site_fract_z
  _atom_site_occupancy
  U   U1        1.0  0.09360  0.44686  0.33012  1.0000
  U   U2        1.0  0.90640  0.94686  0.16988  1.0000
  U   U3        1.0  0.90640  0.55314  0.66988  1.0000
  U   U4        1.0  0.09360  0.05314  0.83012  1.0000
  U   U5        1.0  0.41570  0.56956  0.28795  1.0000
  U   U6        1.0  0.58430  0.06956  0.21205  1.0000
  U   U7        1.0  0.58430  0.43044  0.71205  1.0000
  U   U8        1.0  0.41570  0.93044  0.78795  1.0000
  O   O1        1.0  0.06721  0.34090  0.37741  1.0000
  O   O2        1.0  0.93279  0.84090  0.12259  1.0000
  O   O3        1.0  0.93279  0.65910  0.62259  1.0000
  O   O4        1.0  0.06721  0.15910  0.87741  1.0000
  O   O5        1.0  0.12048  0.55233  0.28239  1.0000
  O   O6        1.0  0.87952  0.05233  0.21761  1.0000
  O   O7        1.0  0.87952  0.44767  0.71761  1.0000
  O   O8        1.0  0.12048  0.94767  0.78239  1.0000
  O   O9        1.0  0.37976  0.47193  0.24673  1.0000
  O   O10       1.0  0.62024  0.97193  0.25327  1.0000
  O   O11       1.0  0.62024  0.52807  0.75327  1.0000
  O   O12       1.0  0.37976  0.02807  0.74673  1.0000
  O   O13       1.0  0.45251  0.66698  0.32701  1.0000
  O   O14       1.0  0.54749  0.16698  0.17299  1.0000
  O   O15       1.0  0.54749  0.33302  0.67299  1.0000
  O   O16       1.0  0.45251  0.83302  0.82701  1.0000
  O   O17       1.0  0.17055  0.36494  0.35258  1.0000
  O   O18       1.0  0.82945  0.86494  0.14742  1.0000
  O   O19       1.0  0.82945  0.63506  0.64742  1.0000
  O   O20       1.0  0.17055  0.13506  0.85258  1.0000
  O   O21       1.0  0.14995  0.47031  0.44861  1.0000
  O   O22       1.0  0.85005  0.97031  0.05139  1.0000
  O   O23       1.0  0.85005  0.52969  0.55139  1.0000
  O   O24       1.0  0.14995  0.02969  0.94861  1.0000
  O   O25       1.0  0.35380  0.63247  0.35365  1.0000
  O   O26       1.0  0.64620  0.13247  0.14635  1.0000
  O   O27       1.0  0.64620  0.36753  0.64635  1.0000
  O   O28       1.0  0.35380  0.86753  0.85365  1.0000
  O   O29       1.0  0.28127  0.69298  0.36261  1.0000
  O   O30       1.0  0.71873  0.19298  0.13739  1.0000
  O   O31       1.0  0.71873  0.30702  0.63739  1.0000
  O   O32       1.0  0.28127  0.80702  0.86261  1.0000
  O   O33       1.0  0.05928  0.55599  0.43316  1.0000
  O   O34       1.0  0.94072  0.05599  0.06684  1.0000
  O   O35       1.0  0.94072  0.44401  0.56684  1.0000
  O   O36       1.0  0.05928  0.94401  0.93316  1.0000
  O   O37       1.0  0.01439  0.52861  0.32511  1.0000
  O   O38       1.0  0.98561  0.02861  0.17489  1.0000
  O   O39       1.0  0.98561  0.47139  0.67489  1.0000
  O   O40       1.0  0.01439  0.97139  0.82511  1.0000
  O   O41       1.0  0.95117  0.90827  0.29784  1.0000
  O   O42       1.0  0.04883  0.40827  0.20216  1.0000
  O   O43       1.0  0.04883  0.09173  0.70216  1.0000
  O   O44       1.0  0.95117  0.59173  0.79784  1.0000
  O   O45       1.0  0.88206  0.83562  0.28325  1.0000
  O   O46       1.0  0.11794  0.33562  0.21675  1.0000
  O   O47       1.0  0.11794  0.16438  0.71675  1.0000
  O   O48       1.0  0.88206  0.66438  0.78325  1.0000
  O   O49       1.0  0.39574  0.67638  0.17097  1.0000
  O   O50       1.0  0.60426  0.17638  0.32903  1.0000
  O   O51       1.0  0.60426  0.32362  0.82903  1.0000
  O   O52       1.0  0.39574  0.82362  0.67097  1.0000
  O   O53       1.0  0.45650  0.57530  0.15758  1.0000
  O   O54       1.0  0.54350  0.07530  0.34242  1.0000
  O   O55       1.0  0.54350  0.42470  0.84242  1.0000
  O   O56       1.0  0.45650  0.92470  0.65758  1.0000
  O   O57       1.0  0.52129  0.94725  0.18965  1.0000
  O   O58       1.0  0.47871  0.44725  0.31035  1.0000
  O   O59       1.0  0.47871  0.05275  0.81035  1.0000
  O   O60       1.0  0.52129  0.55275  0.68965  1.0000
  O   O61       1.0  0.56912  0.97123  0.08721  1.0000
  O   O62       1.0  0.43088  0.47123  0.41279  1.0000
  O   O63       1.0  0.43088  0.02877  0.91279  1.0000
  O   O64       1.0  0.56912  0.52877  0.58721  1.0000
  C   C1        1.0  0.22447  0.37930  0.46710  1.0000
  C   C2        1.0  0.77553  0.87930  0.03290  1.0000
  C   C3        1.0  0.77553  0.62070  0.53290  1.0000
  C   C4        1.0  0.22447  0.12070  0.96710  1.0000
  H   H1        1.0  0.21760  0.31610  0.49860  1.0000
  H   H2        1.0  0.78240  0.81610  0.00140  1.0000
  H   H3        1.0  0.78240  0.68390  0.50140  1.0000
  H   H4        1.0  0.21760  0.18390  0.99860  1.0000
  C   C5        1.0  0.26458  0.35450  0.40920  1.0000
  C   C6        1.0  0.73542  0.85450  0.09080  1.0000
  C   C7        1.0  0.73542  0.64550  0.59080  1.0000
  C   C8        1.0  0.26458  0.14550  0.90920  1.0000
  H   H5        1.0  0.29140  0.32460  0.44050  1.0000
  H   H6        1.0  0.70860  0.82460  0.05950  1.0000
  H   H7        1.0  0.70860  0.67540  0.55950  1.0000
  H   H8        1.0  0.29140  0.17540  0.94050  1.0000
  H   H9        1.0  0.25360  0.30380  0.36850  1.0000
  H   H10       1.0  0.74640  0.80380  0.13150  1.0000
  H   H11       1.0  0.74640  0.69620  0.63150  1.0000
  H   H12       1.0  0.25360  0.19620  0.86850  1.0000
  C   C9        1.0  0.28105  0.44950  0.36545  1.0000
  C   C10       1.0  0.71895  0.94950  0.13455  1.0000
  C   C11       1.0  0.71895  0.55050  0.63455  1.0000
  C   C12       1.0  0.28105  0.05050  0.86545  1.0000
  H   H13       1.0  0.25480  0.47630  0.33090  1.0000
  H   H14       1.0  0.74520  0.97630  0.16910  1.0000
  H   H15       1.0  0.74520  0.52370  0.66910  1.0000
  H   H16       1.0  0.25480  0.02370  0.83090  1.0000
  H   H17       1.0  0.30740  0.43170  0.32920  1.0000
  H   H18       1.0  0.69260  0.93170  0.17080  1.0000
  H   H19       1.0  0.69260  0.56830  0.67080  1.0000
  H   H20       1.0  0.30740  0.06830  0.82920  1.0000
  C   C13       1.0  0.29756  0.53240  0.42580  1.0000
  C   C14       1.0  0.70244  0.03240  0.07420  1.0000
  C   C15       1.0  0.70244  0.46760  0.57420  1.0000
  C   C16       1.0  0.29756  0.96760  0.92580  1.0000
  H   H21       1.0  0.32630  0.50750  0.45610  1.0000
  H   H22       1.0  0.67370  0.00750  0.04390  1.0000
  H   H23       1.0  0.67370  0.49250  0.54390  1.0000
  H   H24       1.0  0.32630  0.99250  0.95610  1.0000
  C   C17       1.0  0.25889  0.55420  0.48730  1.0000
  C   C18       1.0  0.74111  0.05420  0.01270  1.0000
  C   C19       1.0  0.74111  0.44580  0.51270  1.0000
  C   C20       1.0  0.25889  0.94580  0.98730  1.0000
  H   H25       1.0  0.27160  0.60090  0.52960  1.0000
  H   H26       1.0  0.72840  0.10090  0.97040  1.0000
  H   H27       1.0  0.72840  0.39910  0.47040  1.0000
  H   H28       1.0  0.27160  0.89910  0.02960  1.0000
  H   H29       1.0  0.23240  0.58910  0.45880  1.0000
  H   H30       1.0  0.76760  0.08910  0.04120  1.0000
  H   H31       1.0  0.76760  0.41090  0.54120  1.0000
  H   H32       1.0  0.23240  0.91090  0.95880  1.0000
  C   C21       1.0  0.24023  0.45990  0.52852  1.0000
  C   C22       1.0  0.75977  0.95990  0.97148  1.0000
  C   C23       1.0  0.75977  0.54010  0.47148  1.0000
  C   C24       1.0  0.24023  0.04010  0.02852  1.0000
  H   H33       1.0  0.21320  0.47870  0.56280  1.0000
  H   H34       1.0  0.78680  0.97870  0.93720  1.0000
  H   H35       1.0  0.78680  0.52130  0.43720  1.0000
  H   H36       1.0  0.21320  0.02130  0.06280  1.0000
  H   H37       1.0  0.26520  0.43130  0.56480  1.0000
  H   H38       1.0  0.73480  0.93130  0.93520  1.0000
  H   H39       1.0  0.73480  0.56870  0.43520  1.0000
  H   H40       1.0  0.26520  0.06870  0.06480  1.0000
  C   C25       1.0  0.17930  0.40800  0.42052  1.0000
  C   C26       1.0  0.82070  0.90800  0.07948  1.0000
  C   C27       1.0  0.82070  0.59200  0.57948  1.0000
  C   C28       1.0  0.17930  0.09200  0.92052  1.0000
  C   C29       1.0  0.31059  0.62750  0.37824  1.0000
  C   C30       1.0  0.68941  0.12750  0.12176  1.0000
  C   C31       1.0  0.68941  0.37250  0.62176  1.0000
  C   C32       1.0  0.31059  0.87250  0.87824  1.0000
  C   C33       1.0  0.98425  0.64090  0.42954  1.0000
  C   C34       1.0  0.01575  0.14090  0.07046  1.0000
  C   C35       1.0  0.01575  0.35910  0.57046  1.0000
  C   C36       1.0  0.98425  0.85910  0.92954  1.0000
  H   H41       1.0  0.98180  0.62570  0.48910  1.0000
  H   H42       1.0  0.01820  0.12570  0.01090  1.0000
  H   H43       1.0  0.01820  0.37430  0.51090  1.0000
  H   H44       1.0  0.98180  0.87430  0.98910  1.0000
  C   C37       1.0  0.93476  0.63160  0.39040  1.0000
  C   C38       1.0  0.06524  0.13160  0.10960  1.0000
  C   C39       1.0  0.06524  0.36840  0.60960  1.0000
  C   C40       1.0  0.93476  0.86840  0.89040  1.0000
  H   H45       1.0  0.93690  0.64030  0.33060  1.0000
  H   H46       1.0  0.06310  0.14030  0.16940  1.0000
  H   H47       1.0  0.06310  0.35970  0.66940  1.0000
  H   H48       1.0  0.93690  0.85970  0.83060  1.0000
  H   H49       1.0  0.92210  0.56290  0.40100  1.0000
  H   H50       1.0  0.07790  0.06290  0.09900  1.0000
  H   H51       1.0  0.07790  0.43710  0.59900  1.0000
  H   H52       1.0  0.92210  0.93710  0.90100  1.0000
  C   C41       1.0  0.90115  0.71100  0.42440  1.0000
  C   C42       1.0  0.09885  0.21100  0.07560  1.0000
  C   C43       1.0  0.09885  0.28900  0.57560  1.0000
  C   C44       1.0  0.90115  0.78900  0.92440  1.0000
  H   H53       1.0  0.89600  0.69690  0.48290  1.0000
  H   H54       1.0  0.10400  0.19690  0.01710  1.0000
  H   H55       1.0  0.10400  0.30310  0.51710  1.0000
  H   H56       1.0  0.89600  0.80310  0.98290  1.0000
  H   H57       1.0  0.87030  0.70580  0.39540  1.0000
  H   H58       1.0  0.12970  0.20580  0.10460  1.0000
  H   H59       1.0  0.12970  0.29420  0.60460  1.0000
  H   H60       1.0  0.87030  0.79420  0.89540  1.0000
  C   C45       1.0  0.92028  0.81930  0.41524  1.0000
  C   C46       1.0  0.07972  0.31930  0.08476  1.0000
  C   C47       1.0  0.07972  0.18070  0.58476  1.0000
  C   C48       1.0  0.92028  0.68070  0.91524  1.0000
  H   H61       1.0  0.89890  0.86480  0.44670  1.0000
  H   H62       1.0  0.10110  0.36480  0.05330  1.0000
  H   H63       1.0  0.10110  0.13520  0.55330  1.0000
  H   H64       1.0  0.89890  0.63520  0.94670  1.0000
  C   C49       1.0  0.96939  0.82850  0.45482  1.0000
  C   C50       1.0  0.03061  0.32850  0.04518  1.0000
  C   C51       1.0  0.03061  0.17150  0.54518  1.0000
  C   C52       1.0  0.96939  0.67150  0.95482  1.0000
  H   H65       1.0  0.98200  0.89740  0.44500  1.0000
  H   H66       1.0  0.01800  0.39740  0.05500  1.0000
  H   H67       1.0  0.01800  0.10260  0.55500  1.0000
  H   H68       1.0  0.98200  0.60260  0.94500  1.0000
  H   H69       1.0  0.96710  0.81890  0.51450  1.0000
  H   H70       1.0  0.03290  0.31890  0.98550  1.0000
  H   H71       1.0  0.03290  0.18110  0.48550  1.0000
  H   H72       1.0  0.96710  0.68110  0.01450  1.0000
  C   C53       1.0  0.00315  0.74970  0.42040  1.0000
  C   C54       1.0  0.99685  0.24970  0.07960  1.0000
  C   C55       1.0  0.99685  0.25030  0.57960  1.0000
  C   C56       1.0  0.00315  0.75030  0.92040  1.0000
  H   H73       1.0  0.03410  0.75530  0.44920  1.0000
  H   H74       1.0  0.96590  0.25530  0.05080  1.0000
  H   H75       1.0  0.96590  0.24470  0.55080  1.0000
  H   H76       1.0  0.03410  0.74470  0.94920  1.0000
  H   H77       1.0  0.00810  0.76410  0.36190  1.0000
  H   H78       1.0  0.99190  0.26410  0.13810  1.0000
  H   H79       1.0  0.99190  0.23590  0.63810  1.0000
  H   H80       1.0  0.00810  0.73590  0.86190  1.0000
  C   C57       1.0  0.02052  0.57050  0.39399  1.0000
  C   C58       1.0  0.97948  0.07050  0.10601  1.0000
  C   C59       1.0  0.97948  0.42950  0.60601  1.0000
  C   C60       1.0  0.02052  0.92950  0.89399  1.0000
  C   C61       1.0  0.91830  0.85550  0.32753  1.0000
  C   C62       1.0  0.08170  0.35550  0.17247  1.0000
  C   C63       1.0  0.08170  0.14450  0.67247  1.0000
  C   C64       1.0  0.91830  0.64450  0.82753  1.0000
  C   C65       1.0  0.43778  0.68720  0.04395  1.0000
  C   C66       1.0  0.56222  0.18720  0.45605  1.0000
  C   C67       1.0  0.56222  0.31280  0.95605  1.0000
  C   C68       1.0  0.43778  0.81280  0.54395  1.0000
  H   H81       1.0  0.41910  0.64440  0.00460  1.0000
  H   H82       1.0  0.58090  0.14440  0.49540  1.0000
  H   H83       1.0  0.58090  0.35560  0.99540  1.0000
  H   H84       1.0  0.41910  0.85560  0.50460  1.0000
  C   C69       1.0  0.48955  0.68010  0.01984  1.0000
  C   C70       1.0  0.51045  0.18010  0.48016  1.0000
  C   C71       1.0  0.51045  0.31990  0.98016  1.0000
  C   C72       1.0  0.48955  0.81990  0.51984  1.0000
  H   H85       1.0  0.50090  0.60970  0.02810  1.0000
  H   H86       1.0  0.49910  0.10970  0.47190  1.0000
  H   H87       1.0  0.49910  0.39030  0.97190  1.0000
  H   H88       1.0  0.50090  0.89030  0.52810  1.0000
  H   H89       1.0  0.49240  0.69690  0.96130  1.0000
  H   H90       1.0  0.50760  0.19690  0.53870  1.0000
  H   H91       1.0  0.50760  0.30310  0.03870  1.0000
  H   H92       1.0  0.49240  0.80310  0.46130  1.0000
  C   C73       1.0  0.52011  0.75270  0.07070  1.0000
  C   C74       1.0  0.47989  0.25270  0.42930  1.0000
  C   C75       1.0  0.47989  0.24730  0.92930  1.0000
  C   C76       1.0  0.52011  0.74730  0.57070  1.0000
  H   H93       1.0  0.55310  0.74940  0.05200  1.0000
  H   H94       1.0  0.44690  0.24940  0.44800  1.0000
  H   H95       1.0  0.44690  0.25060  0.94800  1.0000
  H   H96       1.0  0.55310  0.75060  0.55200  1.0000
  H   H97       1.0  0.51980  0.73160  0.12870  1.0000
  H   H98       1.0  0.48020  0.23160  0.37130  1.0000
  H   H99       1.0  0.48020  0.26840  0.87130  1.0000
  H   H100      1.0  0.51980  0.76840  0.62870  1.0000
  C   C77       1.0  0.50195  0.86230  0.06310  1.0000
  C   C78       1.0  0.49805  0.36230  0.43690  1.0000
  C   C79       1.0  0.49805  0.13770  0.93690  1.0000
  C   C80       1.0  0.50195  0.63770  0.56310  1.0000
  H   H101      1.0  0.50480  0.88420  0.00500  1.0000
  H   H102      1.0  0.49520  0.38420  0.49500  1.0000
  H   H103      1.0  0.49520  0.11580  0.99500  1.0000
  H   H104      1.0  0.50480  0.61580  0.50500  1.0000
  C   C81       1.0  0.44981  0.86850  0.08600  1.0000
  C   C82       1.0  0.55019  0.36850  0.41400  1.0000
  C   C83       1.0  0.55019  0.13150  0.91400  1.0000
  C   C84       1.0  0.44981  0.63150  0.58600  1.0000
  H   H105      1.0  0.44670  0.85240  0.14470  1.0000
  H   H106      1.0  0.55330  0.35240  0.35530  1.0000
  H   H107      1.0  0.55330  0.14760  0.85530  1.0000
  H   H108      1.0  0.44670  0.64760  0.64470  1.0000
  H   H109      1.0  0.43830  0.93870  0.07710  1.0000
  H   H110      1.0  0.56170  0.43870  0.42290  1.0000
  H   H111      1.0  0.56170  0.06130  0.92290  1.0000
  H   H112      1.0  0.43830  0.56130  0.57710  1.0000
  C   C85       1.0  0.41949  0.79540  0.03580  1.0000
  C   C86       1.0  0.58051  0.29540  0.46420  1.0000
  C   C87       1.0  0.58051  0.20460  0.96420  1.0000
  C   C88       1.0  0.41949  0.70460  0.53580  1.0000
  H   H113      1.0  0.41970  0.81600  0.97770  1.0000
  H   H114      1.0  0.58030  0.31600  0.52230  1.0000
  H   H115      1.0  0.58030  0.18400  0.02230  1.0000
  H   H116      1.0  0.41970  0.68400  0.47770  1.0000
  H   H117      1.0  0.38650  0.79850  0.05450  1.0000
  H   H118      1.0  0.61350  0.29850  0.44550  1.0000
  H   H119      1.0  0.61350  0.20150  0.94550  1.0000
  H   H120      1.0  0.38650  0.70150  0.55450  1.0000
  C   C89       1.0  0.42985  0.64450  0.12885  1.0000
  C   C90       1.0  0.57015  0.14450  0.37115  1.0000
  C   C91       1.0  0.57015  0.35550  0.87115  1.0000
  C   C92       1.0  0.42985  0.85550  0.62885  1.0000
  C   C93       1.0  0.53213  0.93070  0.11537  1.0000
  C   C94       1.0  0.46787  0.43070  0.38463  1.0000
  C   C95       1.0  0.46787  0.06930  0.88463  1.0000
  C   C96       1.0  0.53213  0.56930  0.61537  1.0000
