data_image0
_chemical_formula_structural       U2O16C4H2C2H4C2H4C4H2C2H4C2H4C4H2C2H4C2H4
_chemical_formula_sum              "U2 O16 C24 H30"
_cell_length_a       10.0284
_cell_length_b       13.5216
_cell_length_c       14.0662
_cell_angle_alpha    102.635
_cell_angle_beta     95.694
_cell_angle_gamma    106.678

_space_group_name_H-M_alt    "P 1"
_space_group_IT_number       1

loop_
  _space_group_symop_operation_xyz
  'x, y, z'

loop_
  _atom_site_type_symbol
  _atom_site_label
  _atom_site_symmetry_multiplicity
  _atom_site_fract_x
  _atom_site_fract_y
  _atom_site_fract_z
  _atom_site_occupancy
  U   U1        1.0  0.46594  0.18943  0.83137  1.0000
  U   U2        1.0  0.53406  0.81057  0.16863  1.0000
  O   O1        1.0  0.55800  0.09801  0.84062  1.0000
  O   O2        1.0  0.44200  0.90199  0.15938  1.0000
  O   O3        1.0  0.37420  0.28201  0.82163  1.0000
  O   O4        1.0  0.62580  0.71799  0.17837  1.0000
  O   O5        1.0  0.33120  0.07285  0.67105  1.0000
  O   O6        1.0  0.66880  0.92715  0.32895  1.0000
  O   O7        1.0  0.52630  0.19591  0.66802  1.0000
  O   O8        1.0  0.47370  0.80409  0.33198  1.0000
  O   O9        1.0  0.69440  0.32531  0.83989  1.0000
  O   O10       1.0  0.30560  0.67469  0.16011  1.0000
  O   O11       1.0  0.61360  0.32886  0.97888  1.0000
  O   O12       1.0  0.38640  0.67114  0.02112  1.0000
  O   O13       1.0  0.37400  0.16906  0.98446  1.0000
  O   O14       1.0  0.62600  0.83094  0.01554  1.0000
  O   O15       1.0  0.24830  0.05782  0.84540  1.0000
  O   O16       1.0  0.75170  0.94218  0.15460  1.0000
  C   C1        1.0  0.42200  0.11420  0.62290  1.0000
  C   C2        1.0  0.57800  0.88580  0.37710  1.0000
  C   C3        1.0  0.40630  0.06740  0.51260  1.0000
  C   C4        1.0  0.59370  0.93260  0.48740  1.0000
  H   H1        1.0  0.33670  0.09370  0.47810  1.0000
  H   H2        1.0  0.66330  0.90630  0.52190  1.0000
  C   C5        1.0  0.54590  0.10230  0.47410  1.0000
  C   C6        1.0  0.45410  0.89770  0.52590  1.0000
  H   H3        1.0  0.52720  0.07950  0.40090  1.0000
  H   H4        1.0  0.47280  0.92050  0.59910  1.0000
  H   H5        1.0  0.58560  0.18130  0.49450  1.0000
  H   H6        1.0  0.41440  0.81870  0.50550  1.0000
  C   C7        1.0  0.65280  0.05500  0.51310  1.0000
  C   C8        1.0  0.34720  0.94500  0.48690  1.0000
  H   H7        1.0  0.67890  0.08350  0.58580  1.0000
  H   H8        1.0  0.32110  0.91650  0.41420  1.0000
  H   H9        1.0  0.73940  0.07640  0.48420  1.0000
  H   H10       1.0  0.26060  0.92360  0.51580  1.0000
  C   C9        1.0  0.71130  0.36440  0.93200  1.0000
  C   C10       1.0  0.28870  0.63560  0.06800  1.0000
  C   C11       1.0  0.84700  0.44880  0.98730  1.0000
  C   C12       1.0  0.15300  0.55120  0.01270  1.0000
  H   H11       1.0  0.82660  0.49030  0.04910  1.0000
  H   H12       1.0  0.17340  0.50970  0.95090  1.0000
  C   C13       1.0  0.90770  0.52630  0.92690  1.0000
  C   C14       1.0  0.09230  0.47370  0.07310  1.0000
  H   H13       1.0  0.84010  0.56430  0.91280  1.0000
  H   H14       1.0  0.15990  0.43570  0.08720  1.0000
  H   H15       1.0  0.92180  0.48610  0.86290  1.0000
  H   H16       1.0  0.07820  0.51390  0.13710  1.0000
  C   C15       1.0  0.04870  0.60750  0.98300  1.0000
  C   C16       1.0  0.95130  0.39250  0.01700  1.0000
  H   H17       1.0  0.03270  0.65330  0.04310  1.0000
  H   H18       1.0  0.96730  0.34670  0.95690  1.0000
  H   H19       1.0  0.08980  0.65390  0.94080  1.0000
  H   H20       1.0  0.91020  0.34610  0.05920  1.0000
  C   C17       1.0  0.26370  0.09280  0.93790  1.0000
  C   C18       1.0  0.73630  0.90720  0.06210  1.0000
  C   C19       1.0  0.14880  0.04910  0.99350  1.0000
  C   C20       1.0  0.85120  0.95090  0.00650  1.0000
  H   H21       1.0  0.19340  0.06040  0.06350  1.0000
  H   H22       1.0  0.80660  0.93960  0.93650  1.0000
  C   C21       1.0  0.04540  0.11160  0.99390  1.0000
  C   C22       1.0  0.95460  0.88840  0.00610  1.0000
  H   H23       1.0  0.00430  0.10490  0.92500  1.0000
  H   H24       1.0  0.99570  0.89510  0.07500  1.0000
  H   H25       1.0  0.09610  0.18820  0.02550  1.0000
  H   H26       1.0  0.90390  0.81180  0.97450  1.0000
  C   C23       1.0  0.92600  0.07080  0.05020  1.0000
  C   C24       1.0  0.07400  0.92920  0.94980  1.0000
  H   H27       1.0  0.96570  0.08440  0.12080  1.0000
  H   H28       1.0  0.03430  0.91560  0.87920  1.0000
  H   H29       1.0  0.85690  0.10990  0.04590  1.0000
  H   H30       1.0  0.14310  0.89010  0.95410  1.0000
