data_image0
_chemical_formula_structural       U4O36N4C4H4C4H8C4H8C4H4C4H8C4H8C8
_chemical_formula_sum              "U4 O36 N4 C32 H40"
_cell_length_a       14.2044
_cell_length_b       14.6258
_cell_length_c       15.1949
_cell_angle_alpha    90
_cell_angle_beta     99.312
_cell_angle_gamma    90

_space_group_name_H-M_alt    "P 1"
_space_group_IT_number       1

loop_
  _space_group_symop_operation_xyz
  'x, y, z'

loop_
  _atom_site_type_symbol
  _atom_site_label
  _atom_site_symmetry_multiplicity
  _atom_site_fract_x
  _atom_site_fract_y
  _atom_site_fract_z
  _atom_site_occupancy
  U   U1        1.0  0.75548  0.93493  0.58501  1.0000
  U   U2        1.0  0.74452  0.43493  0.91499  1.0000
  U   U3        1.0  0.24452  0.06507  0.41499  1.0000
  U   U4        1.0  0.25548  0.56507  0.08501  1.0000
  O   O1        1.0  0.84877  0.99456  0.54607  1.0000
  O   O2        1.0  0.65123  0.49456  0.95393  1.0000
  O   O3        1.0  0.15123  0.00544  0.45393  1.0000
  O   O4        1.0  0.34877  0.50544  0.04607  1.0000
  O   O5        1.0  0.66158  0.87180  0.61808  1.0000
  O   O6        1.0  0.83842  0.37180  0.88192  1.0000
  O   O7        1.0  0.33842  0.12820  0.38192  1.0000
  O   O8        1.0  0.16158  0.62820  0.11808  1.0000
  O   O9        1.0  0.64130  0.05082  0.51657  1.0000
  O   O10       1.0  0.85870  0.55082  0.98343  1.0000
  O   O11       1.0  0.35870  0.94918  0.48343  1.0000
  O   O12       1.0  0.14130  0.44918  0.01657  1.0000
  O   O13       1.0  0.71210  0.07551  0.65278  1.0000
  O   O14       1.0  0.78790  0.57551  0.84722  1.0000
  O   O15       1.0  0.28790  0.92449  0.34722  1.0000
  O   O16       1.0  0.21210  0.42449  0.15278  1.0000
  O   O17       1.0  0.66920  0.44716  0.76045  1.0000
  O   O18       1.0  0.83080  0.94716  0.73955  1.0000
  O   O19       1.0  0.33080  0.55284  0.23955  1.0000
  O   O20       1.0  0.16920  0.05284  0.26045  1.0000
  O   O21       1.0  0.62688  0.32976  0.83337  1.0000
  O   O22       1.0  0.87312  0.82976  0.66663  1.0000
  O   O23       1.0  0.37312  0.67024  0.16663  1.0000
  O   O24       1.0  0.12688  0.17024  0.33337  1.0000
  O   O25       1.0  0.79730  0.80558  0.48672  1.0000
  O   O26       1.0  0.70270  0.30558  0.01328  1.0000
  O   O27       1.0  0.20270  0.19442  0.51328  1.0000
  O   O28       1.0  0.29730  0.69442  0.98672  1.0000
  O   O29       1.0  0.68830  0.89790  0.42654  1.0000
  O   O30       1.0  0.81170  0.39790  0.07346  1.0000
  O   O31       1.0  0.31170  0.10210  0.57346  1.0000
  O   O32       1.0  0.18830  0.60210  0.92654  1.0000
  O   O33       1.0  0.73915  0.79142  0.34628  1.0000
  O   O34       1.0  0.76085  0.29142  0.15372  1.0000
  O   O35       1.0  0.26085  0.20858  0.65372  1.0000
  O   O36       1.0  0.23915  0.70858  0.84628  1.0000
  N   N1        1.0  0.74201  0.82980  0.41875  1.0000
  N   N2        1.0  0.75799  0.32980  0.08125  1.0000
  N   N3        1.0  0.25799  0.17020  0.58125  1.0000
  N   N4        1.0  0.24201  0.67020  0.91875  1.0000
  C   C1        1.0  0.59180  0.18400  0.59290  1.0000
  C   C2        1.0  0.90820  0.68400  0.90710  1.0000
  C   C3        1.0  0.40820  0.81600  0.40710  1.0000
  C   C4        1.0  0.09180  0.31600  0.09290  1.0000
  H   H1        1.0  0.53820  0.18460  0.54140  1.0000
  H   H2        1.0  0.96180  0.68460  0.95860  1.0000
  H   H3        1.0  0.46180  0.81540  0.45860  1.0000
  H   H4        1.0  0.03820  0.31540  0.04140  1.0000
  C   C5        1.0  0.65000  0.27160  0.58960  1.0000
  C   C6        1.0  0.85000  0.77160  0.91040  1.0000
  C   C7        1.0  0.35000  0.72840  0.41040  1.0000
  C   C8        1.0  0.15000  0.22840  0.08960  1.0000
  H   H5        1.0  0.67590  0.27360  0.53290  1.0000
  H   H6        1.0  0.82410  0.77360  0.96710  1.0000
  H   H7        1.0  0.32410  0.72640  0.46710  1.0000
  H   H8        1.0  0.17590  0.22640  0.03290  1.0000
  H   H9        1.0  0.70450  0.27130  0.63930  1.0000
  H   H10       1.0  0.79550  0.77130  0.86070  1.0000
  H   H11       1.0  0.29550  0.72870  0.36070  1.0000
  H   H12       1.0  0.20450  0.22870  0.13930  1.0000
  C   C9        1.0  0.58930  0.35610  0.59670  1.0000
  C   C10       1.0  0.91070  0.85610  0.90330  1.0000
  C   C11       1.0  0.41070  0.64390  0.40330  1.0000
  C   C12       1.0  0.08930  0.14390  0.09670  1.0000
  H   H13       1.0  0.53820  0.35910  0.54410  1.0000
  H   H14       1.0  0.96180  0.85910  0.95590  1.0000
  H   H15       1.0  0.46180  0.64090  0.45590  1.0000
  H   H16       1.0  0.03820  0.14090  0.04410  1.0000
  H   H17       1.0  0.62950  0.41130  0.59640  1.0000
  H   H18       1.0  0.87050  0.91130  0.90360  1.0000
  H   H19       1.0  0.37050  0.58870  0.40360  1.0000
  H   H20       1.0  0.12950  0.08870  0.09640  1.0000
  C   C13       1.0  0.54420  0.35550  0.68200  1.0000
  C   C14       1.0  0.95580  0.85550  0.81800  1.0000
  C   C15       1.0  0.45580  0.64450  0.31800  1.0000
  C   C16       1.0  0.04420  0.14450  0.18200  1.0000
  H   H21       1.0  0.49620  0.40610  0.67600  1.0000
  H   H22       1.0  0.00380  0.90610  0.82400  1.0000
  H   H23       1.0  0.50380  0.59390  0.32400  1.0000
  H   H24       1.0  0.99620  0.09390  0.17600  1.0000
  C   C17       1.0  0.48960  0.26660  0.68870  1.0000
  C   C18       1.0  0.01040  0.76660  0.81130  1.0000
  C   C19       1.0  0.51040  0.73340  0.31130  1.0000
  C   C20       1.0  0.98960  0.23340  0.18870  1.0000
  H   H25       1.0  0.46690  0.26490  0.74690  1.0000
  H   H26       1.0  0.03310  0.76490  0.75310  1.0000
  H   H27       1.0  0.53310  0.73510  0.25310  1.0000
  H   H28       1.0  0.96690  0.23510  0.24690  1.0000
  H   H29       1.0  0.43300  0.26570  0.64130  1.0000
  H   H30       1.0  0.06700  0.76570  0.85870  1.0000
  H   H31       1.0  0.56700  0.73430  0.35870  1.0000
  H   H32       1.0  0.93300  0.23430  0.14130  1.0000
  C   C21       1.0  0.54880  0.18270  0.68010  1.0000
  C   C22       1.0  0.95120  0.68270  0.81990  1.0000
  C   C23       1.0  0.45120  0.81730  0.31990  1.0000
  C   C24       1.0  0.04880  0.31730  0.18010  1.0000
  H   H33       1.0  0.50850  0.12760  0.68090  1.0000
  H   H34       1.0  0.99150  0.62760  0.81910  1.0000
  H   H35       1.0  0.49150  0.87240  0.31910  1.0000
  H   H36       1.0  0.00850  0.37240  0.18090  1.0000
  H   H37       1.0  0.60100  0.17920  0.73170  1.0000
  H   H38       1.0  0.89900  0.67920  0.76830  1.0000
  H   H39       1.0  0.39900  0.82080  0.26830  1.0000
  H   H40       1.0  0.10100  0.32080  0.23170  1.0000
  C   C25       1.0  0.65080  0.09900  0.58620  1.0000
  C   C26       1.0  0.84920  0.59900  0.91380  1.0000
  C   C27       1.0  0.34920  0.90100  0.41380  1.0000
  C   C28       1.0  0.15080  0.40100  0.08620  1.0000
  C   C29       1.0  0.61840  0.37740  0.76310  1.0000
  C   C30       1.0  0.88160  0.87740  0.73690  1.0000
  C   C31       1.0  0.38160  0.62260  0.23690  1.0000
  C   C32       1.0  0.11840  0.12260  0.26310  1.0000
