data_image0
_chemical_formula_structural       Zn8N8O16N16C24H8N8C32H8Zn8N24H8C8O8N16Zn8C8H16O8N8C8N8C8O8H8C8H8C24H16C8H8C8O8
_chemical_formula_sum              "Zn24 N88 O48 C136 H80"
_cell_length_a       18.9549
_cell_length_b       12.8976
_cell_length_c       32.3865
_cell_angle_alpha    90
_cell_angle_beta     95.872
_cell_angle_gamma    90

_space_group_name_H-M_alt    "P 1"
_space_group_IT_number       1

loop_
  _space_group_symop_operation_xyz
  'x, y, z'

loop_
  _atom_site_type_symbol
  _atom_site_label
  _atom_site_symmetry_multiplicity
  _atom_site_fract_x
  _atom_site_fract_y
  _atom_site_fract_z
  _atom_site_occupancy
  Zn  Zn1       1.0  0.04018  0.08194  0.04154  1.0000
  Zn  Zn2       1.0  0.95982  0.08194  0.45847  1.0000
  Zn  Zn3       1.0  0.54018  0.58194  0.04154  1.0000
  Zn  Zn4       1.0  0.45982  0.58194  0.45847  1.0000
  Zn  Zn5       1.0  0.95982  0.91806  0.95847  1.0000
  Zn  Zn6       1.0  0.04018  0.91806  0.54153  1.0000
  Zn  Zn7       1.0  0.45982  0.41806  0.95847  1.0000
  Zn  Zn8       1.0  0.54018  0.41806  0.54153  1.0000
  N   N1        1.0  0.97446  0.06780  0.08799  1.0000
  N   N2        1.0  0.02554  0.06780  0.41201  1.0000
  N   N3        1.0  0.47446  0.56780  0.08799  1.0000
  N   N4        1.0  0.52554  0.56780  0.41201  1.0000
  N   N5        1.0  0.02554  0.93220  0.91201  1.0000
  N   N6        1.0  0.97446  0.93220  0.58799  1.0000
  N   N7        1.0  0.52554  0.43220  0.91201  1.0000
  N   N8        1.0  0.47446  0.43220  0.58799  1.0000
  O   O1        1.0  0.08962  0.21830  0.04542  1.0000
  O   O2        1.0  0.91038  0.21830  0.45458  1.0000
  O   O3        1.0  0.58962  0.71830  0.04542  1.0000
  O   O4        1.0  0.41038  0.71830  0.45458  1.0000
  O   O5        1.0  0.91038  0.78170  0.95458  1.0000
  O   O6        1.0  0.08962  0.78170  0.54542  1.0000
  O   O7        1.0  0.41038  0.28170  0.95458  1.0000
  O   O8        1.0  0.58962  0.28170  0.54542  1.0000
  O   O9        1.0  0.14991  0.11370  0.08973  1.0000
  O   O10       1.0  0.85009  0.11370  0.41027  1.0000
  O   O11       1.0  0.64991  0.61370  0.08973  1.0000
  O   O12       1.0  0.35009  0.61370  0.41027  1.0000
  O   O13       1.0  0.85009  0.88630  0.91027  1.0000
  O   O14       1.0  0.14991  0.88630  0.58973  1.0000
  O   O15       1.0  0.35009  0.38630  0.91027  1.0000
  O   O16       1.0  0.64991  0.38630  0.58973  1.0000
  N   N9        1.0  0.07751  0.94380  0.02811  1.0000
  N   N10       1.0  0.92249  0.94380  0.47189  1.0000
  N   N11       1.0  0.57751  0.44380  0.02811  1.0000
  N   N12       1.0  0.42249  0.44380  0.47189  1.0000
  N   N13       1.0  0.92249  0.05620  0.97189  1.0000
  N   N14       1.0  0.07751  0.05620  0.52811  1.0000
  N   N15       1.0  0.42249  0.55620  0.97189  1.0000
  N   N16       1.0  0.57751  0.55620  0.52811  1.0000
  N   N17       1.0  0.96779  0.12404  0.99421  1.0000
  N   N18       1.0  0.03221  0.12404  0.50579  1.0000
  N   N19       1.0  0.46779  0.62404  0.99421  1.0000
  N   N20       1.0  0.53221  0.62404  0.50579  1.0000
  N   N21       1.0  0.03221  0.87596  0.00579  1.0000
  N   N22       1.0  0.96779  0.87596  0.49421  1.0000
  N   N23       1.0  0.53221  0.37596  0.00579  1.0000
  N   N24       1.0  0.46779  0.37596  0.49421  1.0000
  C   C1        1.0  0.90640  0.08940  0.07895  1.0000
  C   C2        1.0  0.09360  0.08940  0.42105  1.0000
  C   C3        1.0  0.40640  0.58940  0.07895  1.0000
  C   C4        1.0  0.59360  0.58940  0.42105  1.0000
  C   C5        1.0  0.09360  0.91060  0.92105  1.0000
  C   C6        1.0  0.90640  0.91060  0.57895  1.0000
  C   C7        1.0  0.59360  0.41060  0.92105  1.0000
  C   C8        1.0  0.40640  0.41060  0.57895  1.0000
  C   C9        1.0  0.97687  0.02350  0.12726  1.0000
  C   C10       1.0  0.02313  0.02350  0.37274  1.0000
  C   C11       1.0  0.47687  0.52350  0.12726  1.0000
  C   C12       1.0  0.52313  0.52350  0.37274  1.0000
  C   C13       1.0  0.02313  0.97650  0.87274  1.0000
  C   C14       1.0  0.97687  0.97650  0.62726  1.0000
  C   C15       1.0  0.52313  0.47650  0.87274  1.0000
  C   C16       1.0  0.47687  0.47650  0.62726  1.0000
  C   C17       1.0  0.13268  0.89040  0.04517  1.0000
  C   C18       1.0  0.86732  0.89040  0.45483  1.0000
  C   C19       1.0  0.63268  0.39040  0.04517  1.0000
  C   C20       1.0  0.36732  0.39040  0.45483  1.0000
  C   C21       1.0  0.86732  0.10960  0.95483  1.0000
  C   C22       1.0  0.13268  0.10960  0.54517  1.0000
  C   C23       1.0  0.36732  0.60960  0.95483  1.0000
  C   C24       1.0  0.63268  0.60960  0.54517  1.0000
  H   H1        1.0  0.88920  0.11950  0.05380  1.0000
  H   H2        1.0  0.11080  0.11950  0.44620  1.0000
  H   H3        1.0  0.38920  0.61950  0.05380  1.0000
  H   H4        1.0  0.61080  0.61950  0.44620  1.0000
  H   H5        1.0  0.11080  0.88050  0.94620  1.0000
  H   H6        1.0  0.88920  0.88050  0.55380  1.0000
  H   H7        1.0  0.61080  0.38050  0.94620  1.0000
  H   H8        1.0  0.38920  0.38050  0.55380  1.0000
  N   N25       1.0  0.86370  0.06555  0.10789  1.0000
  N   N26       1.0  0.13630  0.06555  0.39211  1.0000
  N   N27       1.0  0.36370  0.56555  0.10789  1.0000
  N   N28       1.0  0.63630  0.56555  0.39211  1.0000
  N   N29       1.0  0.13630  0.93445  0.89211  1.0000
  N   N30       1.0  0.86370  0.93445  0.60789  1.0000
  N   N31       1.0  0.63630  0.43445  0.89211  1.0000
  N   N32       1.0  0.36370  0.43445  0.60789  1.0000
  C   C25       1.0  0.90851  0.02240  0.13905  1.0000
  C   C26       1.0  0.09149  0.02240  0.36095  1.0000
  C   C27       1.0  0.40851  0.52240  0.13905  1.0000
  C   C28       1.0  0.59149  0.52240  0.36095  1.0000
  C   C29       1.0  0.09149  0.97760  0.86095  1.0000
  C   C30       1.0  0.90851  0.97760  0.63905  1.0000
  C   C31       1.0  0.59149  0.47760  0.86095  1.0000
  C   C32       1.0  0.40851  0.47760  0.63905  1.0000
  C   C33       1.0  0.03240  0.98660  0.15635  1.0000
  C   C34       1.0  0.96760  0.98660  0.34365  1.0000
  C   C35       1.0  0.53240  0.48660  0.15635  1.0000
  C   C36       1.0  0.46760  0.48660  0.34365  1.0000
  C   C37       1.0  0.96760  0.01340  0.84365  1.0000
  C   C38       1.0  0.03240  0.01340  0.65635  1.0000
  C   C39       1.0  0.46760  0.51340  0.84365  1.0000
  C   C40       1.0  0.53240  0.51340  0.65635  1.0000
  C   C41       1.0  0.06135  0.78210  0.00960  1.0000
  C   C42       1.0  0.93865  0.78210  0.49040  1.0000
  C   C43       1.0  0.56135  0.28210  0.00960  1.0000
  C   C44       1.0  0.43865  0.28210  0.49040  1.0000
  C   C45       1.0  0.93865  0.21790  0.99040  1.0000
  C   C46       1.0  0.06135  0.21790  0.50960  1.0000
  C   C47       1.0  0.43865  0.71790  0.99040  1.0000
  C   C48       1.0  0.56135  0.71790  0.50960  1.0000
  C   C49       1.0  0.12614  0.78630  0.03426  1.0000
  C   C50       1.0  0.87386  0.78630  0.46574  1.0000
  C   C51       1.0  0.62614  0.28630  0.03426  1.0000
  C   C52       1.0  0.37386  0.28630  0.46574  1.0000
  C   C53       1.0  0.87386  0.21370  0.96574  1.0000
  C   C54       1.0  0.12614  0.21370  0.53426  1.0000
  C   C55       1.0  0.37386  0.71370  0.96574  1.0000
  C   C56       1.0  0.62614  0.71370  0.53426  1.0000
  H   H9        1.0  0.17050  0.91860  0.06210  1.0000
  H   H10       1.0  0.82950  0.91860  0.43790  1.0000
  H   H11       1.0  0.67050  0.41860  0.06210  1.0000
  H   H12       1.0  0.32950  0.41860  0.43790  1.0000
  H   H13       1.0  0.82950  0.08140  0.93790  1.0000
  H   H14       1.0  0.17050  0.08140  0.56210  1.0000
  H   H15       1.0  0.32950  0.58140  0.93790  1.0000
  H   H16       1.0  0.67050  0.58140  0.56210  1.0000
  Zn  Zn9       1.0  0.75746  0.09456  0.10312  1.0000
  Zn  Zn10      1.0  0.24254  0.09456  0.39688  1.0000
  Zn  Zn11      1.0  0.25746  0.59456  0.10312  1.0000
  Zn  Zn12      1.0  0.74254  0.59456  0.39688  1.0000
  Zn  Zn13      1.0  0.24254  0.90544  0.89688  1.0000
  Zn  Zn14      1.0  0.75746  0.90544  0.60312  1.0000
  Zn  Zn15      1.0  0.74254  0.40544  0.89688  1.0000
  Zn  Zn16      1.0  0.25746  0.40544  0.60312  1.0000
  N   N33       1.0  0.89098  0.98187  0.17559  1.0000
  N   N34       1.0  0.10902  0.98187  0.32441  1.0000
  N   N35       1.0  0.39098  0.48187  0.17559  1.0000
  N   N36       1.0  0.60902  0.48187  0.32441  1.0000
  N   N37       1.0  0.10902  0.01813  0.82441  1.0000
  N   N38       1.0  0.89098  0.01813  0.67559  1.0000
  N   N39       1.0  0.60902  0.51813  0.82441  1.0000
  N   N40       1.0  0.39098  0.51813  0.67559  1.0000
  N   N41       1.0  0.01456  0.94620  0.19269  1.0000
  N   N42       1.0  0.98544  0.94620  0.30731  1.0000
  N   N43       1.0  0.51456  0.44620  0.19269  1.0000
  N   N44       1.0  0.48544  0.44620  0.30731  1.0000
  N   N45       1.0  0.98544  0.05380  0.80731  1.0000
  N   N46       1.0  0.01456  0.05380  0.69269  1.0000
  N   N47       1.0  0.48544  0.55380  0.80731  1.0000
  N   N48       1.0  0.51456  0.55380  0.69269  1.0000
  N   N49       1.0  0.10083  0.98740  0.15073  1.0000
  N   N50       1.0  0.89917  0.98740  0.34927  1.0000
  N   N51       1.0  0.60083  0.48740  0.15073  1.0000
  N   N52       1.0  0.39917  0.48740  0.34927  1.0000
  N   N53       1.0  0.89917  0.01260  0.84927  1.0000
  N   N54       1.0  0.10083  0.01260  0.65073  1.0000
  N   N55       1.0  0.39917  0.51260  0.84927  1.0000
  N   N56       1.0  0.60083  0.51260  0.65073  1.0000
  H   H17       1.0  0.04130  0.72220  0.99750  1.0000
  H   H18       1.0  0.95870  0.72220  0.50250  1.0000
  H   H19       1.0  0.54130  0.22220  0.99750  1.0000
  H   H20       1.0  0.45870  0.22220  0.50250  1.0000
  H   H21       1.0  0.95870  0.27780  0.00250  1.0000
  H   H22       1.0  0.04130  0.27780  0.49750  1.0000
  H   H23       1.0  0.45870  0.77780  0.00250  1.0000
  H   H24       1.0  0.54130  0.77780  0.49750  1.0000
  C   C57       1.0  0.17290  0.69840  0.04723  1.0000
  C   C58       1.0  0.82710  0.69840  0.45277  1.0000
  C   C59       1.0  0.67290  0.19840  0.04723  1.0000
  C   C60       1.0  0.32710  0.19840  0.45277  1.0000
  C   C61       1.0  0.82710  0.30160  0.95277  1.0000
  C   C62       1.0  0.17290  0.30160  0.54723  1.0000
  C   C63       1.0  0.32710  0.80160  0.95277  1.0000
  C   C64       1.0  0.67290  0.80160  0.54723  1.0000
  O   O17       1.0  0.72848  0.21811  0.07040  1.0000
  O   O18       1.0  0.27152  0.21811  0.42960  1.0000
  O   O19       1.0  0.22848  0.71811  0.07040  1.0000
  O   O20       1.0  0.77152  0.71811  0.42960  1.0000
  O   O21       1.0  0.27152  0.78189  0.92960  1.0000
  O   O22       1.0  0.72848  0.78189  0.57040  1.0000
  O   O23       1.0  0.77152  0.28189  0.92960  1.0000
  O   O24       1.0  0.22848  0.28189  0.57040  1.0000
  N   N57       1.0  0.74189  0.15394  0.15929  1.0000
  N   N58       1.0  0.25811  0.15394  0.34071  1.0000
  N   N59       1.0  0.24189  0.65394  0.15929  1.0000
  N   N60       1.0  0.75811  0.65394  0.34071  1.0000
  N   N61       1.0  0.25811  0.84606  0.84071  1.0000
  N   N62       1.0  0.74189  0.84606  0.65929  1.0000
  N   N63       1.0  0.75811  0.34606  0.84071  1.0000
  N   N64       1.0  0.24189  0.34606  0.65929  1.0000
  N   N65       1.0  0.71584  0.95330  0.10440  1.0000
  N   N66       1.0  0.28416  0.95330  0.39560  1.0000
  N   N67       1.0  0.21584  0.45330  0.10440  1.0000
  N   N68       1.0  0.78416  0.45330  0.39560  1.0000
  N   N69       1.0  0.28416  0.04670  0.89560  1.0000
  N   N70       1.0  0.71584  0.04670  0.60440  1.0000
  N   N71       1.0  0.78416  0.54670  0.89560  1.0000
  N   N72       1.0  0.21584  0.54670  0.60440  1.0000
  Zn  Zn17      1.0  0.79106  0.95609  0.18942  1.0000
  Zn  Zn18      1.0  0.20894  0.95609  0.31058  1.0000
  Zn  Zn19      1.0  0.29106  0.45609  0.18942  1.0000
  Zn  Zn20      1.0  0.70894  0.45609  0.31058  1.0000
  Zn  Zn21      1.0  0.20894  0.04391  0.81058  1.0000
  Zn  Zn22      1.0  0.79106  0.04391  0.68942  1.0000
  Zn  Zn23      1.0  0.70894  0.54391  0.81058  1.0000
  Zn  Zn24      1.0  0.29106  0.54391  0.68942  1.0000
  C   C65       1.0  0.94673  0.94640  0.19982  1.0000
  C   C66       1.0  0.05327  0.94640  0.30018  1.0000
  C   C67       1.0  0.44673  0.44640  0.19982  1.0000
  C   C68       1.0  0.55327  0.44640  0.30018  1.0000
  C   C69       1.0  0.05327  0.05360  0.80018  1.0000
  C   C70       1.0  0.94673  0.05360  0.69982  1.0000
  C   C71       1.0  0.55327  0.55360  0.80018  1.0000
  C   C72       1.0  0.44673  0.55360  0.69982  1.0000
  H   H25       1.0  0.13160  0.96310  0.16960  1.0000
  H   H26       1.0  0.86840  0.96310  0.33040  1.0000
  H   H27       1.0  0.63160  0.46310  0.16960  1.0000
  H   H28       1.0  0.36840  0.46310  0.33040  1.0000
  H   H29       1.0  0.86840  0.03690  0.83040  1.0000
  H   H30       1.0  0.13160  0.03690  0.66960  1.0000
  H   H31       1.0  0.36840  0.53690  0.83040  1.0000
  H   H32       1.0  0.63160  0.53690  0.66960  1.0000
  H   H33       1.0  0.11440  0.01220  0.12820  1.0000
  H   H34       1.0  0.88560  0.01220  0.37180  1.0000
  H   H35       1.0  0.61440  0.51220  0.12820  1.0000
  H   H36       1.0  0.38560  0.51220  0.37180  1.0000
  H   H37       1.0  0.88560  0.98780  0.87180  1.0000
  H   H38       1.0  0.11440  0.98780  0.62820  1.0000
  H   H39       1.0  0.38560  0.48780  0.87180  1.0000
  H   H40       1.0  0.61440  0.48780  0.62820  1.0000
  O   O25       1.0  0.15810  0.60880  0.03500  1.0000
  O   O26       1.0  0.84190  0.60880  0.46500  1.0000
  O   O27       1.0  0.65810  0.10880  0.03500  1.0000
  O   O28       1.0  0.34190  0.10880  0.46500  1.0000
  O   O29       1.0  0.84190  0.39120  0.96500  1.0000
  O   O30       1.0  0.15810  0.39120  0.53500  1.0000
  O   O31       1.0  0.34190  0.89120  0.96500  1.0000
  O   O32       1.0  0.65810  0.89120  0.53500  1.0000
  N   N73       1.0  0.74995  0.09570  0.19512  1.0000
  N   N74       1.0  0.25005  0.09570  0.30488  1.0000
  N   N75       1.0  0.24995  0.59570  0.19512  1.0000
  N   N76       1.0  0.75005  0.59570  0.30488  1.0000
  N   N77       1.0  0.25005  0.90430  0.80488  1.0000
  N   N78       1.0  0.74995  0.90430  0.69512  1.0000
  N   N79       1.0  0.75005  0.40430  0.80488  1.0000
  N   N80       1.0  0.24995  0.40430  0.69512  1.0000
  C   C73       1.0  0.72647  0.25120  0.16937  1.0000
  C   C74       1.0  0.27353  0.25120  0.33063  1.0000
  C   C75       1.0  0.22647  0.75120  0.16937  1.0000
  C   C76       1.0  0.77353  0.75120  0.33063  1.0000
  C   C77       1.0  0.27353  0.74880  0.83063  1.0000
  C   C78       1.0  0.72647  0.74880  0.66937  1.0000
  C   C79       1.0  0.77353  0.24880  0.83063  1.0000
  C   C80       1.0  0.22647  0.24880  0.66937  1.0000
  N   N81       1.0  0.74146  0.89350  0.13786  1.0000
  N   N82       1.0  0.25854  0.89350  0.36214  1.0000
  N   N83       1.0  0.24146  0.39350  0.13786  1.0000
  N   N84       1.0  0.75854  0.39350  0.36214  1.0000
  N   N85       1.0  0.25854  0.10650  0.86214  1.0000
  N   N86       1.0  0.74146  0.10650  0.63786  1.0000
  N   N87       1.0  0.75854  0.60650  0.86214  1.0000
  N   N88       1.0  0.24146  0.60650  0.63786  1.0000
  C   C81       1.0  0.67579  0.89250  0.07836  1.0000
  C   C82       1.0  0.32421  0.89250  0.42164  1.0000
  C   C83       1.0  0.17579  0.39250  0.07836  1.0000
  C   C84       1.0  0.82421  0.39250  0.42164  1.0000
  C   C85       1.0  0.32421  0.10750  0.92164  1.0000
  C   C86       1.0  0.67579  0.10750  0.57836  1.0000
  C   C87       1.0  0.82421  0.60750  0.92164  1.0000
  C   C88       1.0  0.17579  0.60750  0.57836  1.0000
  O   O33       1.0  0.79044  0.83503  0.22412  1.0000
  O   O34       1.0  0.20956  0.83503  0.27588  1.0000
  O   O35       1.0  0.29044  0.33503  0.22412  1.0000
  O   O36       1.0  0.70956  0.33503  0.27588  1.0000
  O   O37       1.0  0.20956  0.16497  0.77588  1.0000
  O   O38       1.0  0.79044  0.16497  0.72412  1.0000
  O   O39       1.0  0.70956  0.66497  0.77588  1.0000
  O   O40       1.0  0.29044  0.66497  0.72412  1.0000
  H   H41       1.0  0.93690  0.91800  0.22500  1.0000
  H   H42       1.0  0.06310  0.91800  0.27500  1.0000
  H   H43       1.0  0.43690  0.41800  0.22500  1.0000
  H   H44       1.0  0.56310  0.41800  0.27500  1.0000
  H   H45       1.0  0.06310  0.08200  0.77500  1.0000
  H   H46       1.0  0.93690  0.08200  0.72500  1.0000
  H   H47       1.0  0.56310  0.58200  0.77500  1.0000
  H   H48       1.0  0.43690  0.58200  0.72500  1.0000
  C   C89       1.0  0.73963  0.15720  0.22688  1.0000
  C   C90       1.0  0.26037  0.15720  0.27312  1.0000
  C   C91       1.0  0.23963  0.65720  0.22688  1.0000
  C   C92       1.0  0.76037  0.65720  0.27312  1.0000
  C   C93       1.0  0.26037  0.84280  0.77312  1.0000
  C   C94       1.0  0.73963  0.84280  0.72688  1.0000
  C   C95       1.0  0.76037  0.34280  0.77312  1.0000
  C   C96       1.0  0.23963  0.34280  0.72688  1.0000
  H   H49       1.0  0.71830  0.30570  0.15070  1.0000
  H   H50       1.0  0.28170  0.30570  0.34930  1.0000
  H   H51       1.0  0.21830  0.80570  0.15070  1.0000
  H   H52       1.0  0.78170  0.80570  0.34930  1.0000
  H   H53       1.0  0.28170  0.69430  0.84930  1.0000
  H   H54       1.0  0.71830  0.69430  0.65070  1.0000
  H   H55       1.0  0.78170  0.19430  0.84930  1.0000
  H   H56       1.0  0.21830  0.19430  0.65070  1.0000
  C   C97       1.0  0.72445  0.25850  0.21234  1.0000
  C   C98       1.0  0.27555  0.25850  0.28766  1.0000
  C   C99       1.0  0.22445  0.75850  0.21234  1.0000
  C   C100      1.0  0.77555  0.75850  0.28766  1.0000
  C   C101      1.0  0.27555  0.74150  0.78766  1.0000
  C   C102      1.0  0.72445  0.74150  0.71234  1.0000
  C   C103      1.0  0.77555  0.24150  0.78766  1.0000
  C   C104      1.0  0.22445  0.24150  0.71234  1.0000
  C   C105      1.0  0.71865  0.79700  0.13102  1.0000
  C   C106      1.0  0.28135  0.79700  0.36898  1.0000
  C   C107      1.0  0.21865  0.29700  0.13102  1.0000
  C   C108      1.0  0.78135  0.29700  0.36898  1.0000
  C   C109      1.0  0.28135  0.20300  0.86898  1.0000
  C   C110      1.0  0.71865  0.20300  0.63102  1.0000
  C   C111      1.0  0.78135  0.70300  0.86898  1.0000
  C   C112      1.0  0.21865  0.70300  0.63102  1.0000
  C   C113      1.0  0.67651  0.79290  0.09320  1.0000
  C   C114      1.0  0.32349  0.79290  0.40680  1.0000
  C   C115      1.0  0.17651  0.29290  0.09320  1.0000
  C   C116      1.0  0.82349  0.29290  0.40680  1.0000
  C   C117      1.0  0.32349  0.20710  0.90680  1.0000
  C   C118      1.0  0.67651  0.20710  0.59320  1.0000
  C   C119      1.0  0.82349  0.70710  0.90680  1.0000
  C   C120      1.0  0.17651  0.70710  0.59320  1.0000
  H   H57       1.0  0.65090  0.91450  0.05370  1.0000
  H   H58       1.0  0.34910  0.91450  0.44630  1.0000
  H   H59       1.0  0.15090  0.41450  0.05370  1.0000
  H   H60       1.0  0.84910  0.41450  0.44630  1.0000
  H   H61       1.0  0.34910  0.08550  0.94630  1.0000
  H   H62       1.0  0.65090  0.08550  0.55370  1.0000
  H   H63       1.0  0.84910  0.58550  0.94630  1.0000
  H   H64       1.0  0.15090  0.58550  0.55370  1.0000
  H   H65       1.0  0.74210  0.13660  0.25450  1.0000
  H   H66       1.0  0.25790  0.13660  0.24550  1.0000
  H   H67       1.0  0.24210  0.63660  0.25450  1.0000
  H   H68       1.0  0.75790  0.63660  0.24550  1.0000
  H   H69       1.0  0.25790  0.86340  0.74550  1.0000
  H   H70       1.0  0.74210  0.86340  0.75450  1.0000
  H   H71       1.0  0.75790  0.36340  0.74550  1.0000
  H   H72       1.0  0.24210  0.36340  0.75450  1.0000
  C   C121      1.0  0.71191  0.35060  0.23681  1.0000
  C   C122      1.0  0.28809  0.35060  0.26319  1.0000
  C   C123      1.0  0.21191  0.85060  0.23681  1.0000
  C   C124      1.0  0.78809  0.85060  0.26319  1.0000
  C   C125      1.0  0.28809  0.64940  0.76319  1.0000
  C   C126      1.0  0.71191  0.64940  0.73681  1.0000
  C   C127      1.0  0.78809  0.14940  0.76319  1.0000
  C   C128      1.0  0.21191  0.14940  0.73681  1.0000
  H   H73       1.0  0.72920  0.74100  0.14870  1.0000
  H   H74       1.0  0.27080  0.74100  0.35130  1.0000
  H   H75       1.0  0.22920  0.24100  0.14870  1.0000
  H   H76       1.0  0.77080  0.24100  0.35130  1.0000
  H   H77       1.0  0.27080  0.25900  0.85130  1.0000
  H   H78       1.0  0.72920  0.25900  0.64870  1.0000
  H   H79       1.0  0.77080  0.75900  0.85130  1.0000
  H   H80       1.0  0.22920  0.75900  0.64870  1.0000
  C   C129      1.0  0.63770  0.70240  0.07566  1.0000
  C   C130      1.0  0.36230  0.70240  0.42434  1.0000
  C   C131      1.0  0.13770  0.20240  0.07566  1.0000
  C   C132      1.0  0.86230  0.20240  0.42434  1.0000
  C   C133      1.0  0.36230  0.29760  0.92434  1.0000
  C   C134      1.0  0.63770  0.29760  0.57566  1.0000
  C   C135      1.0  0.86230  0.79760  0.92434  1.0000
  C   C136      1.0  0.13770  0.79760  0.57566  1.0000
  O   O41       1.0  0.70526  0.43800  0.22097  1.0000
  O   O42       1.0  0.29474  0.43800  0.27903  1.0000
  O   O43       1.0  0.20526  0.93800  0.22097  1.0000
  O   O44       1.0  0.79474  0.93800  0.27903  1.0000
  O   O45       1.0  0.29474  0.56200  0.77903  1.0000
  O   O46       1.0  0.70526  0.56200  0.72097  1.0000
  O   O47       1.0  0.79474  0.06200  0.77903  1.0000
  O   O48       1.0  0.20526  0.06200  0.72097  1.0000
