data_image0
_chemical_formula_structural       Zn24N24O8C8H8N16O8N24C8N8O8C8O8C8O8N8C8H8C8H8C8H8C16H8C16H8C24H8N8H16C16O8C8H8
_chemical_formula_sum              "Zn24 N88 O48 C136 H80"
_cell_length_a       18.5604
_cell_length_b       13.0176
_cell_length_c       32.7297
_cell_angle_alpha    90
_cell_angle_beta     95.844
_cell_angle_gamma    90

_space_group_name_H-M_alt    "P 1"
_space_group_IT_number       1

loop_
  _space_group_symop_operation_xyz
  'x, y, z'

loop_
  _atom_site_type_symbol
  _atom_site_label
  _atom_site_symmetry_multiplicity
  _atom_site_fract_x
  _atom_site_fract_y
  _atom_site_fract_z
  _atom_site_occupancy
  Zn  Zn1       1.0  0.25216  0.09542  0.10557  1.0000
  Zn  Zn2       1.0  0.74784  0.09542  0.39443  1.0000
  Zn  Zn3       1.0  0.75216  0.59542  0.10557  1.0000
  Zn  Zn4       1.0  0.24784  0.59542  0.39443  1.0000
  Zn  Zn5       1.0  0.74784  0.90458  0.89443  1.0000
  Zn  Zn6       1.0  0.25216  0.90458  0.60557  1.0000
  Zn  Zn7       1.0  0.24784  0.40458  0.89443  1.0000
  Zn  Zn8       1.0  0.75216  0.40458  0.60557  1.0000
  Zn  Zn9       1.0  0.53900  0.08089  0.04224  1.0000
  Zn  Zn10      1.0  0.46100  0.08089  0.45776  1.0000
  Zn  Zn11      1.0  0.03900  0.58089  0.04224  1.0000
  Zn  Zn12      1.0  0.96100  0.58089  0.45776  1.0000
  Zn  Zn13      1.0  0.46100  0.91911  0.95776  1.0000
  Zn  Zn14      1.0  0.53900  0.91911  0.54224  1.0000
  Zn  Zn15      1.0  0.96100  0.41911  0.95776  1.0000
  Zn  Zn16      1.0  0.03900  0.41911  0.54224  1.0000
  Zn  Zn17      1.0  0.28597  0.95834  0.19034  1.0000
  Zn  Zn18      1.0  0.71403  0.95834  0.30966  1.0000
  Zn  Zn19      1.0  0.78597  0.45834  0.19034  1.0000
  Zn  Zn20      1.0  0.21403  0.45834  0.30966  1.0000
  Zn  Zn21      1.0  0.71403  0.04166  0.80966  1.0000
  Zn  Zn22      1.0  0.28597  0.04166  0.69034  1.0000
  Zn  Zn23      1.0  0.21403  0.54166  0.80966  1.0000
  Zn  Zn24      1.0  0.78597  0.54166  0.69034  1.0000
  N   N1        1.0  0.20860  0.95560  0.10609  1.0000
  N   N2        1.0  0.79140  0.95560  0.39391  1.0000
  N   N3        1.0  0.70860  0.45560  0.10609  1.0000
  N   N4        1.0  0.29140  0.45560  0.39391  1.0000
  N   N5        1.0  0.79140  0.04440  0.89391  1.0000
  N   N6        1.0  0.20860  0.04440  0.60609  1.0000
  N   N7        1.0  0.29140  0.54440  0.89391  1.0000
  N   N8        1.0  0.70860  0.54440  0.60609  1.0000
  N   N9        1.0  0.24730  0.09860  0.19591  1.0000
  N   N10       1.0  0.75270  0.09860  0.30409  1.0000
  N   N11       1.0  0.74730  0.59860  0.19591  1.0000
  N   N12       1.0  0.25270  0.59860  0.30409  1.0000
  N   N13       1.0  0.75270  0.90140  0.80409  1.0000
  N   N14       1.0  0.24730  0.90140  0.69591  1.0000
  N   N15       1.0  0.25270  0.40140  0.80409  1.0000
  N   N16       1.0  0.74730  0.40140  0.69591  1.0000
  N   N17       1.0  0.35917  0.06270  0.10872  1.0000
  N   N18       1.0  0.64083  0.06270  0.39128  1.0000
  N   N19       1.0  0.85917  0.56270  0.10872  1.0000
  N   N20       1.0  0.14083  0.56270  0.39128  1.0000
  N   N21       1.0  0.64083  0.93730  0.89128  1.0000
  N   N22       1.0  0.35917  0.93730  0.60872  1.0000
  N   N23       1.0  0.14083  0.43730  0.89128  1.0000
  N   N24       1.0  0.85917  0.43730  0.60872  1.0000
  O   O1        1.0  0.21490  0.33850  0.27569  1.0000
  O   O2        1.0  0.78510  0.33850  0.22431  1.0000
  O   O3        1.0  0.71490  0.83850  0.27569  1.0000
  O   O4        1.0  0.28510  0.83850  0.22431  1.0000
  O   O5        1.0  0.78510  0.66150  0.72431  1.0000
  O   O6        1.0  0.21490  0.66150  0.77569  1.0000
  O   O7        1.0  0.28510  0.16150  0.72431  1.0000
  O   O8        1.0  0.71490  0.16150  0.77569  1.0000
  C   C1        1.0  0.40235  0.08710  0.07970  1.0000
  C   C2        1.0  0.59765  0.08710  0.42030  1.0000
  C   C3        1.0  0.90235  0.58710  0.07970  1.0000
  C   C4        1.0  0.09765  0.58710  0.42030  1.0000
  C   C5        1.0  0.59765  0.91290  0.92030  1.0000
  C   C6        1.0  0.40235  0.91290  0.57970  1.0000
  C   C7        1.0  0.09765  0.41290  0.92030  1.0000
  C   C8        1.0  0.90235  0.41290  0.57970  1.0000
  H   H1        1.0  0.38440  0.11740  0.05500  1.0000
  H   H2        1.0  0.61560  0.11740  0.44500  1.0000
  H   H3        1.0  0.88440  0.61740  0.05500  1.0000
  H   H4        1.0  0.11560  0.61740  0.44500  1.0000
  H   H5        1.0  0.61560  0.88260  0.94500  1.0000
  H   H6        1.0  0.38440  0.88260  0.55500  1.0000
  H   H7        1.0  0.11560  0.38260  0.94500  1.0000
  H   H8        1.0  0.88440  0.38260  0.55500  1.0000
  N   N25       1.0  0.38796  0.98180  0.17543  1.0000
  N   N26       1.0  0.61204  0.98180  0.32457  1.0000
  N   N27       1.0  0.88796  0.48180  0.17543  1.0000
  N   N28       1.0  0.11204  0.48180  0.32457  1.0000
  N   N29       1.0  0.61204  0.01820  0.82457  1.0000
  N   N30       1.0  0.38796  0.01820  0.67543  1.0000
  N   N31       1.0  0.11204  0.51820  0.82457  1.0000
  N   N32       1.0  0.88796  0.51820  0.67543  1.0000
  N   N33       1.0  0.57874  0.94500  0.02813  1.0000
  N   N34       1.0  0.42126  0.94500  0.47187  1.0000
  N   N35       1.0  0.07874  0.44500  0.02813  1.0000
  N   N36       1.0  0.92126  0.44500  0.47187  1.0000
  N   N37       1.0  0.42126  0.05500  0.97187  1.0000
  N   N38       1.0  0.57874  0.05500  0.52813  1.0000
  N   N39       1.0  0.92126  0.55500  0.97187  1.0000
  N   N40       1.0  0.07874  0.55500  0.52813  1.0000
  O   O9        1.0  0.20760  0.43890  0.22136  1.0000
  O   O10       1.0  0.79240  0.43890  0.27864  1.0000
  O   O11       1.0  0.70760  0.93890  0.22136  1.0000
  O   O12       1.0  0.29240  0.93890  0.27864  1.0000
  O   O13       1.0  0.79240  0.56110  0.77864  1.0000
  O   O14       1.0  0.20760  0.56110  0.72136  1.0000
  O   O15       1.0  0.29240  0.06110  0.77864  1.0000
  O   O16       1.0  0.70760  0.06110  0.72136  1.0000
  N   N41       1.0  0.23350  0.89740  0.13923  1.0000
  N   N42       1.0  0.76650  0.89740  0.36077  1.0000
  N   N43       1.0  0.73350  0.39740  0.13923  1.0000
  N   N44       1.0  0.26650  0.39740  0.36077  1.0000
  N   N45       1.0  0.76650  0.10260  0.86077  1.0000
  N   N46       1.0  0.23350  0.10260  0.63923  1.0000
  N   N47       1.0  0.26650  0.60260  0.86077  1.0000
  N   N48       1.0  0.73350  0.60260  0.63923  1.0000
  N   N49       1.0  0.53520  0.87902  0.00508  1.0000
  N   N50       1.0  0.46480  0.87902  0.49492  1.0000
  N   N51       1.0  0.03520  0.37902  0.00508  1.0000
  N   N52       1.0  0.96480  0.37902  0.49492  1.0000
  N   N53       1.0  0.46480  0.12098  0.99492  1.0000
  N   N54       1.0  0.53520  0.12098  0.50508  1.0000
  N   N55       1.0  0.96480  0.62098  0.99492  1.0000
  N   N56       1.0  0.03520  0.62098  0.50508  1.0000
  N   N57       1.0  0.23700  0.15510  0.16047  1.0000
  N   N58       1.0  0.76300  0.15510  0.33953  1.0000
  N   N59       1.0  0.73700  0.65510  0.16047  1.0000
  N   N60       1.0  0.26300  0.65510  0.33953  1.0000
  N   N61       1.0  0.76300  0.84490  0.83953  1.0000
  N   N62       1.0  0.23700  0.84490  0.66047  1.0000
  N   N63       1.0  0.26300  0.34490  0.83953  1.0000
  N   N64       1.0  0.73700  0.34490  0.66047  1.0000
  C   C9        1.0  0.47500  0.02270  0.12760  1.0000
  C   C10       1.0  0.52500  0.02270  0.37240  1.0000
  C   C11       1.0  0.97500  0.52270  0.12760  1.0000
  C   C12       1.0  0.02500  0.52270  0.37240  1.0000
  C   C13       1.0  0.52500  0.97730  0.87240  1.0000
  C   C14       1.0  0.47500  0.97730  0.62760  1.0000
  C   C15       1.0  0.02500  0.47730  0.87240  1.0000
  C   C16       1.0  0.97500  0.47730  0.62760  1.0000
  N   N65       1.0  0.47252  0.06540  0.08839  1.0000
  N   N66       1.0  0.52748  0.06540  0.41161  1.0000
  N   N67       1.0  0.97252  0.56540  0.08839  1.0000
  N   N68       1.0  0.02748  0.56540  0.41161  1.0000
  N   N69       1.0  0.52748  0.93460  0.91161  1.0000
  N   N70       1.0  0.47252  0.93460  0.58839  1.0000
  N   N71       1.0  0.02748  0.43460  0.91161  1.0000
  N   N72       1.0  0.97252  0.43460  0.58839  1.0000
  O   O17       1.0  0.08690  0.71910  0.04526  1.0000
  O   O18       1.0  0.91310  0.71910  0.45474  1.0000
  O   O19       1.0  0.58690  0.21910  0.04526  1.0000
  O   O20       1.0  0.41310  0.21910  0.45474  1.0000
  O   O21       1.0  0.91310  0.28090  0.95474  1.0000
  O   O22       1.0  0.08690  0.28090  0.54526  1.0000
  O   O23       1.0  0.41310  0.78090  0.95474  1.0000
  O   O24       1.0  0.58690  0.78090  0.54526  1.0000
  C   C17       1.0  0.22480  0.26090  0.21320  1.0000
  C   C18       1.0  0.77520  0.26090  0.28680  1.0000
  C   C19       1.0  0.72480  0.76090  0.21320  1.0000
  C   C20       1.0  0.27520  0.76090  0.28680  1.0000
  C   C21       1.0  0.77520  0.73910  0.78680  1.0000
  C   C22       1.0  0.22480  0.73910  0.71320  1.0000
  C   C23       1.0  0.27520  0.23910  0.78680  1.0000
  C   C24       1.0  0.72480  0.23910  0.71320  1.0000
  O   O25       1.0  0.72790  0.71820  0.07245  1.0000
  O   O26       1.0  0.27210  0.71820  0.42755  1.0000
  O   O27       1.0  0.22790  0.21820  0.07245  1.0000
  O   O28       1.0  0.77210  0.21820  0.42755  1.0000
  O   O29       1.0  0.27210  0.28180  0.92755  1.0000
  O   O30       1.0  0.72790  0.28180  0.57245  1.0000
  O   O31       1.0  0.77210  0.78180  0.92755  1.0000
  O   O32       1.0  0.22790  0.78180  0.57245  1.0000
  C   C25       1.0  0.40597  0.02080  0.13920  1.0000
  C   C26       1.0  0.59403  0.02080  0.36080  1.0000
  C   C27       1.0  0.90597  0.52080  0.13920  1.0000
  C   C28       1.0  0.09403  0.52080  0.36080  1.0000
  C   C29       1.0  0.59403  0.97920  0.86080  1.0000
  C   C30       1.0  0.40597  0.97920  0.63920  1.0000
  C   C31       1.0  0.09403  0.47920  0.86080  1.0000
  C   C32       1.0  0.90597  0.47920  0.63920  1.0000
  O   O33       1.0  0.14680  0.61850  0.09039  1.0000
  O   O34       1.0  0.85320  0.61850  0.40961  1.0000
  O   O35       1.0  0.64680  0.11850  0.09039  1.0000
  O   O36       1.0  0.35320  0.11850  0.40961  1.0000
  O   O37       1.0  0.85320  0.38150  0.90961  1.0000
  O   O38       1.0  0.14680  0.38150  0.59039  1.0000
  O   O39       1.0  0.35320  0.88150  0.90961  1.0000
  O   O40       1.0  0.64680  0.88150  0.59039  1.0000
  N   N73       1.0  0.51410  0.94690  0.19199  1.0000
  N   N74       1.0  0.48590  0.94690  0.30801  1.0000
  N   N75       1.0  0.01410  0.44690  0.19199  1.0000
  N   N76       1.0  0.98590  0.44690  0.30801  1.0000
  N   N77       1.0  0.48590  0.05310  0.80801  1.0000
  N   N78       1.0  0.51410  0.05310  0.69199  1.0000
  N   N79       1.0  0.98590  0.55310  0.80801  1.0000
  N   N80       1.0  0.01410  0.55310  0.69199  1.0000
  C   C33       1.0  0.56540  0.78550  0.00865  1.0000
  C   C34       1.0  0.43460  0.78550  0.49135  1.0000
  C   C35       1.0  0.06540  0.28550  0.00865  1.0000
  C   C36       1.0  0.93460  0.28550  0.49135  1.0000
  C   C37       1.0  0.43460  0.21450  0.99135  1.0000
  C   C38       1.0  0.56540  0.21450  0.50865  1.0000
  C   C39       1.0  0.93460  0.71450  0.99135  1.0000
  C   C40       1.0  0.06540  0.71450  0.50865  1.0000
  H   H9        1.0  0.54640  0.72650  0.99570  1.0000
  H   H10       1.0  0.45360  0.72650  0.50430  1.0000
  H   H11       1.0  0.04640  0.22650  0.99570  1.0000
  H   H12       1.0  0.95360  0.22650  0.50430  1.0000
  H   H13       1.0  0.45360  0.27350  0.00430  1.0000
  H   H14       1.0  0.54640  0.27350  0.49570  1.0000
  H   H15       1.0  0.95360  0.77350  0.00430  1.0000
  H   H16       1.0  0.04640  0.77350  0.49570  1.0000
  C   C41       1.0  0.22390  0.25220  0.17043  1.0000
  C   C42       1.0  0.77610  0.25220  0.32957  1.0000
  C   C43       1.0  0.72390  0.75220  0.17043  1.0000
  C   C44       1.0  0.27610  0.75220  0.32957  1.0000
  C   C45       1.0  0.77610  0.74780  0.82957  1.0000
  C   C46       1.0  0.22390  0.74780  0.67043  1.0000
  C   C47       1.0  0.27610  0.24780  0.82957  1.0000
  C   C48       1.0  0.72390  0.24780  0.67043  1.0000
  H   H17       1.0  0.21550  0.30600  0.15180  1.0000
  H   H18       1.0  0.78450  0.30600  0.34820  1.0000
  H   H19       1.0  0.71550  0.80600  0.15180  1.0000
  H   H20       1.0  0.28450  0.80600  0.34820  1.0000
  H   H21       1.0  0.78450  0.69400  0.84820  1.0000
  H   H22       1.0  0.21550  0.69400  0.65180  1.0000
  H   H23       1.0  0.28450  0.19400  0.84820  1.0000
  H   H24       1.0  0.71550  0.19400  0.65180  1.0000
  C   C49       1.0  0.24000  0.16090  0.22738  1.0000
  C   C50       1.0  0.76000  0.16090  0.27262  1.0000
  C   C51       1.0  0.74000  0.66090  0.22738  1.0000
  C   C52       1.0  0.26000  0.66090  0.27262  1.0000
  C   C53       1.0  0.76000  0.83910  0.77262  1.0000
  C   C54       1.0  0.24000  0.83910  0.72738  1.0000
  C   C55       1.0  0.26000  0.33910  0.77262  1.0000
  C   C56       1.0  0.74000  0.33910  0.72738  1.0000
  H   H25       1.0  0.24430  0.14110  0.25480  1.0000
  H   H26       1.0  0.75570  0.14110  0.24520  1.0000
  H   H27       1.0  0.74430  0.64110  0.25480  1.0000
  H   H28       1.0  0.25570  0.64110  0.24520  1.0000
  H   H29       1.0  0.75570  0.85890  0.74520  1.0000
  H   H30       1.0  0.24430  0.85890  0.75480  1.0000
  H   H31       1.0  0.25570  0.35890  0.74520  1.0000
  H   H32       1.0  0.74430  0.35890  0.75480  1.0000
  C   C57       1.0  0.21500  0.35320  0.23727  1.0000
  C   C58       1.0  0.78500  0.35320  0.26273  1.0000
  C   C59       1.0  0.71500  0.85320  0.23727  1.0000
  C   C60       1.0  0.28500  0.85320  0.26273  1.0000
  C   C61       1.0  0.78500  0.64680  0.76273  1.0000
  C   C62       1.0  0.21500  0.64680  0.73727  1.0000
  C   C63       1.0  0.28500  0.14680  0.76273  1.0000
  C   C64       1.0  0.71500  0.14680  0.73727  1.0000
  C   C65       1.0  0.17050  0.89560  0.07949  1.0000
  C   C66       1.0  0.82950  0.89560  0.42051  1.0000
  C   C67       1.0  0.67050  0.39560  0.07949  1.0000
  C   C68       1.0  0.32950  0.39560  0.42051  1.0000
  C   C69       1.0  0.82950  0.10440  0.92051  1.0000
  C   C70       1.0  0.17050  0.10440  0.57949  1.0000
  C   C71       1.0  0.32950  0.60440  0.92051  1.0000
  C   C72       1.0  0.67050  0.60440  0.57949  1.0000
  H   H33       1.0  0.14700  0.91710  0.05450  1.0000
  H   H34       1.0  0.85300  0.91710  0.44550  1.0000
  H   H35       1.0  0.64700  0.41710  0.05450  1.0000
  H   H36       1.0  0.35300  0.41710  0.44550  1.0000
  H   H37       1.0  0.85300  0.08290  0.94550  1.0000
  H   H38       1.0  0.14700  0.08290  0.55450  1.0000
  H   H39       1.0  0.35300  0.58290  0.94550  1.0000
  H   H40       1.0  0.64700  0.58290  0.55450  1.0000
  C   C73       1.0  0.17080  0.79570  0.09427  1.0000
  C   C74       1.0  0.82920  0.79570  0.40573  1.0000
  C   C75       1.0  0.67080  0.29570  0.09427  1.0000
  C   C76       1.0  0.32920  0.29570  0.40573  1.0000
  C   C77       1.0  0.82920  0.20430  0.90573  1.0000
  C   C78       1.0  0.17080  0.20430  0.59427  1.0000
  C   C79       1.0  0.32920  0.70430  0.90573  1.0000
  C   C80       1.0  0.67080  0.70430  0.59427  1.0000
  C   C81       1.0  0.44560  0.94700  0.19953  1.0000
  C   C82       1.0  0.55440  0.94700  0.30047  1.0000
  C   C83       1.0  0.94560  0.44700  0.19953  1.0000
  C   C84       1.0  0.05440  0.44700  0.30047  1.0000
  C   C85       1.0  0.55440  0.05300  0.80047  1.0000
  C   C86       1.0  0.44560  0.05300  0.69953  1.0000
  C   C87       1.0  0.05440  0.55300  0.80047  1.0000
  C   C88       1.0  0.94560  0.55300  0.69953  1.0000
  H   H41       1.0  0.43610  0.91960  0.22470  1.0000
  H   H42       1.0  0.56390  0.91960  0.27530  1.0000
  H   H43       1.0  0.93610  0.41960  0.22470  1.0000
  H   H44       1.0  0.06390  0.41960  0.27530  1.0000
  H   H45       1.0  0.56390  0.08040  0.77530  1.0000
  H   H46       1.0  0.43610  0.08040  0.72470  1.0000
  H   H47       1.0  0.06390  0.58040  0.77530  1.0000
  H   H48       1.0  0.93610  0.58040  0.72470  1.0000
  C   C89       1.0  0.62840  0.78970  0.03421  1.0000
  C   C90       1.0  0.37160  0.78970  0.46579  1.0000
  C   C91       1.0  0.12840  0.28970  0.03421  1.0000
  C   C92       1.0  0.87160  0.28970  0.46579  1.0000
  C   C93       1.0  0.37160  0.21030  0.96579  1.0000
  C   C94       1.0  0.62840  0.21030  0.53421  1.0000
  C   C95       1.0  0.87160  0.71030  0.96579  1.0000
  C   C96       1.0  0.12840  0.71030  0.53421  1.0000
  C   C97       1.0  0.53220  0.98640  0.15610  1.0000
  C   C98       1.0  0.46780  0.98640  0.34390  1.0000
  C   C99       1.0  0.03220  0.48640  0.15610  1.0000
  C   C100      1.0  0.96780  0.48640  0.34390  1.0000
  C   C101      1.0  0.46780  0.01360  0.84390  1.0000
  C   C102      1.0  0.53220  0.01360  0.65610  1.0000
  C   C103      1.0  0.96780  0.51360  0.84390  1.0000
  C   C104      1.0  0.03220  0.51360  0.65610  1.0000
  C   C105      1.0  0.21080  0.80170  0.13225  1.0000
  C   C106      1.0  0.78920  0.80170  0.36775  1.0000
  C   C107      1.0  0.71080  0.30170  0.13225  1.0000
  C   C108      1.0  0.28920  0.30170  0.36775  1.0000
  C   C109      1.0  0.78920  0.19830  0.86775  1.0000
  C   C110      1.0  0.21080  0.19830  0.63225  1.0000
  C   C111      1.0  0.28920  0.69830  0.86775  1.0000
  C   C112      1.0  0.71080  0.69830  0.63225  1.0000
  H   H49       1.0  0.22040  0.74690  0.15020  1.0000
  H   H50       1.0  0.77960  0.74690  0.34980  1.0000
  H   H51       1.0  0.72040  0.24690  0.15020  1.0000
  H   H52       1.0  0.27960  0.24690  0.34980  1.0000
  H   H53       1.0  0.77960  0.25310  0.84980  1.0000
  H   H54       1.0  0.22040  0.25310  0.65020  1.0000
  H   H55       1.0  0.27960  0.75310  0.84980  1.0000
  H   H56       1.0  0.72040  0.75310  0.65020  1.0000
  N   N81       1.0  0.60212  0.98790  0.15056  1.0000
  N   N82       1.0  0.39788  0.98790  0.34944  1.0000
  N   N83       1.0  0.10212  0.48790  0.15056  1.0000
  N   N84       1.0  0.89788  0.48790  0.34944  1.0000
  N   N85       1.0  0.39788  0.01210  0.84944  1.0000
  N   N86       1.0  0.60212  0.01210  0.65056  1.0000
  N   N87       1.0  0.89788  0.51210  0.84944  1.0000
  N   N88       1.0  0.10212  0.51210  0.65056  1.0000
  H   H57       1.0  0.63360  0.96450  0.16930  1.0000
  H   H58       1.0  0.36640  0.96450  0.33070  1.0000
  H   H59       1.0  0.13360  0.46450  0.16930  1.0000
  H   H60       1.0  0.86640  0.46450  0.33070  1.0000
  H   H61       1.0  0.36640  0.03550  0.83070  1.0000
  H   H62       1.0  0.63360  0.03550  0.66930  1.0000
  H   H63       1.0  0.86640  0.53550  0.83070  1.0000
  H   H64       1.0  0.13360  0.53550  0.66930  1.0000
  H   H65       1.0  0.61590  0.01230  0.12820  1.0000
  H   H66       1.0  0.38410  0.01230  0.37180  1.0000
  H   H67       1.0  0.11590  0.51230  0.12820  1.0000
  H   H68       1.0  0.88410  0.51230  0.37180  1.0000
  H   H69       1.0  0.38410  0.98770  0.87180  1.0000
  H   H70       1.0  0.61590  0.98770  0.62820  1.0000
  H   H71       1.0  0.88410  0.48770  0.87180  1.0000
  H   H72       1.0  0.11590  0.48770  0.62820  1.0000
  C   C113      1.0  0.67390  0.69860  0.04833  1.0000
  C   C114      1.0  0.32610  0.69860  0.45167  1.0000
  C   C115      1.0  0.17390  0.19860  0.04833  1.0000
  C   C116      1.0  0.82610  0.19860  0.45167  1.0000
  C   C117      1.0  0.32610  0.30140  0.95167  1.0000
  C   C118      1.0  0.67390  0.30140  0.54833  1.0000
  C   C119      1.0  0.82610  0.80140  0.95167  1.0000
  C   C120      1.0  0.17390  0.80140  0.54833  1.0000
  C   C121      1.0  0.13320  0.70570  0.07612  1.0000
  C   C122      1.0  0.86680  0.70570  0.42388  1.0000
  C   C123      1.0  0.63320  0.20570  0.07612  1.0000
  C   C124      1.0  0.36680  0.20570  0.42388  1.0000
  C   C125      1.0  0.86680  0.29430  0.92388  1.0000
  C   C126      1.0  0.13320  0.29430  0.57612  1.0000
  C   C127      1.0  0.36680  0.79430  0.92388  1.0000
  C   C128      1.0  0.63320  0.79430  0.57612  1.0000
  O   O41       1.0  0.65690  0.61280  0.03660  1.0000
  O   O42       1.0  0.34310  0.61280  0.46340  1.0000
  O   O43       1.0  0.15690  0.11280  0.03660  1.0000
  O   O44       1.0  0.84310  0.11280  0.46340  1.0000
  O   O45       1.0  0.34310  0.38720  0.96340  1.0000
  O   O46       1.0  0.65690  0.38720  0.53660  1.0000
  O   O47       1.0  0.84310  0.88720  0.96340  1.0000
  O   O48       1.0  0.15690  0.88720  0.53660  1.0000
  C   C129      1.0  0.63460  0.89210  0.04559  1.0000
  C   C130      1.0  0.36540  0.89210  0.45441  1.0000
  C   C131      1.0  0.13460  0.39210  0.04559  1.0000
  C   C132      1.0  0.86540  0.39210  0.45441  1.0000
  C   C133      1.0  0.36540  0.10790  0.95441  1.0000
  C   C134      1.0  0.63460  0.10790  0.54559  1.0000
  C   C135      1.0  0.86540  0.60790  0.95441  1.0000
  C   C136      1.0  0.13460  0.60790  0.54559  1.0000
  H   H73       1.0  0.67250  0.91970  0.06300  1.0000
  H   H74       1.0  0.32750  0.91970  0.43700  1.0000
  H   H75       1.0  0.17250  0.41970  0.06300  1.0000
  H   H76       1.0  0.82750  0.41970  0.43700  1.0000
  H   H77       1.0  0.32750  0.08030  0.93700  1.0000
  H   H78       1.0  0.67250  0.08030  0.56300  1.0000
  H   H79       1.0  0.82750  0.58030  0.93700  1.0000
  H   H80       1.0  0.17250  0.58030  0.56300  1.0000
