data_image0
_chemical_formula_structural       In12O96C96H48C48
_chemical_formula_sum              "In12 O96 C144 H48"
_cell_length_a       20.4029
_cell_length_b       20.4029
_cell_length_c       20.4029
_cell_angle_alpha    90
_cell_angle_beta     90
_cell_angle_gamma    90

_space_group_name_H-M_alt    "P 1"
_space_group_IT_number       1

loop_
  _space_group_symop_operation_xyz
  'x, y, z'

loop_
  _atom_site_type_symbol
  _atom_site_label
  _atom_site_symmetry_multiplicity
  _atom_site_fract_x
  _atom_site_fract_y
  _atom_site_fract_z
  _atom_site_occupancy
  In  In1       1.0  0.00000  0.25000  0.87500  1.0000
  In  In2       1.0  0.50000  0.75000  0.37500  1.0000
  In  In3       1.0  0.00000  0.75000  0.62500  1.0000
  In  In4       1.0  0.50000  0.25000  0.12500  1.0000
  In  In5       1.0  0.87500  0.00000  0.25000  1.0000
  In  In6       1.0  0.37500  0.50000  0.75000  1.0000
  In  In7       1.0  0.62500  0.00000  0.75000  1.0000
  In  In8       1.0  0.12500  0.50000  0.25000  1.0000
  In  In9       1.0  0.25000  0.87500  0.00000  1.0000
  In  In10      1.0  0.75000  0.37500  0.50000  1.0000
  In  In11      1.0  0.75000  0.62500  0.00000  1.0000
  In  In12      1.0  0.25000  0.12500  0.50000  1.0000
  O   O1        1.0  0.93610  0.28570  0.78150  1.0000
  O   O2        1.0  0.56390  0.71430  0.28150  1.0000
  O   O3        1.0  0.06390  0.78570  0.71850  1.0000
  O   O4        1.0  0.43610  0.21430  0.21850  1.0000
  O   O5        1.0  0.78150  0.93610  0.28570  1.0000
  O   O6        1.0  0.28150  0.56390  0.71430  1.0000
  O   O7        1.0  0.71850  0.06390  0.78570  1.0000
  O   O8        1.0  0.21850  0.43610  0.21430  1.0000
  O   O9        1.0  0.28570  0.78150  0.93610  1.0000
  O   O10       1.0  0.71430  0.28150  0.56390  1.0000
  O   O11       1.0  0.78570  0.71850  0.06390  1.0000
  O   O12       1.0  0.21430  0.21850  0.43610  1.0000
  O   O13       1.0  0.53570  0.18610  0.03150  1.0000
  O   O14       1.0  0.96430  0.81390  0.53150  1.0000
  O   O15       1.0  0.03570  0.31390  0.96850  1.0000
  O   O16       1.0  0.46430  0.68610  0.46850  1.0000
  O   O17       1.0  0.18610  0.03150  0.53570  1.0000
  O   O18       1.0  0.81390  0.53150  0.96430  1.0000
  O   O19       1.0  0.31390  0.96850  0.03570  1.0000
  O   O20       1.0  0.68610  0.46850  0.46430  1.0000
  O   O21       1.0  0.03150  0.53570  0.18610  1.0000
  O   O22       1.0  0.53150  0.96430  0.81390  1.0000
  O   O23       1.0  0.96850  0.03570  0.31390  1.0000
  O   O24       1.0  0.46850  0.46430  0.68610  1.0000
  O   O25       1.0  0.43610  0.78570  0.28150  1.0000
  O   O26       1.0  0.06390  0.21430  0.78150  1.0000
  O   O27       1.0  0.56390  0.28570  0.21850  1.0000
  O   O28       1.0  0.93610  0.71430  0.71850  1.0000
  O   O29       1.0  0.28150  0.43610  0.78570  1.0000
  O   O30       1.0  0.78150  0.06390  0.21430  1.0000
  O   O31       1.0  0.21850  0.56390  0.28570  1.0000
  O   O32       1.0  0.71850  0.93610  0.71430  1.0000
  O   O33       1.0  0.78570  0.28150  0.43610  1.0000
  O   O34       1.0  0.21430  0.78150  0.06390  1.0000
  O   O35       1.0  0.28570  0.21850  0.56390  1.0000
  O   O36       1.0  0.71430  0.71850  0.93610  1.0000
  O   O37       1.0  0.03570  0.68610  0.53150  1.0000
  O   O38       1.0  0.46430  0.31390  0.03150  1.0000
  O   O39       1.0  0.53570  0.81390  0.46850  1.0000
  O   O40       1.0  0.96430  0.18610  0.96850  1.0000
  O   O41       1.0  0.68610  0.53150  0.03570  1.0000
  O   O42       1.0  0.31390  0.03150  0.46430  1.0000
  O   O43       1.0  0.81390  0.46850  0.53570  1.0000
  O   O44       1.0  0.18610  0.96850  0.96430  1.0000
  O   O45       1.0  0.53150  0.03570  0.68610  1.0000
  O   O46       1.0  0.03150  0.46430  0.31390  1.0000
  O   O47       1.0  0.46850  0.53570  0.81390  1.0000
  O   O48       1.0  0.96850  0.96430  0.18610  1.0000
  O   O49       1.0  0.91920  0.19500  0.83370  1.0000
  O   O50       1.0  0.58080  0.80500  0.33370  1.0000
  O   O51       1.0  0.08080  0.69500  0.66630  1.0000
  O   O52       1.0  0.41920  0.30500  0.16630  1.0000
  O   O53       1.0  0.83370  0.91920  0.19500  1.0000
  O   O54       1.0  0.33370  0.58080  0.80500  1.0000
  O   O55       1.0  0.66630  0.08080  0.69500  1.0000
  O   O56       1.0  0.16630  0.41920  0.30500  1.0000
  O   O57       1.0  0.19500  0.83370  0.91920  1.0000
  O   O58       1.0  0.80500  0.33370  0.58080  1.0000
  O   O59       1.0  0.69500  0.66630  0.08080  1.0000
  O   O60       1.0  0.30500  0.16630  0.41920  1.0000
  O   O61       1.0  0.44500  0.16920  0.08370  1.0000
  O   O62       1.0  0.05500  0.83080  0.58370  1.0000
  O   O63       1.0  0.94500  0.33080  0.91630  1.0000
  O   O64       1.0  0.55500  0.66920  0.41630  1.0000
  O   O65       1.0  0.16920  0.08370  0.44500  1.0000
  O   O66       1.0  0.83080  0.58370  0.05500  1.0000
  O   O67       1.0  0.33080  0.91630  0.94500  1.0000
  O   O68       1.0  0.66920  0.41630  0.55500  1.0000
  O   O69       1.0  0.08370  0.44500  0.16920  1.0000
  O   O70       1.0  0.58370  0.05500  0.83080  1.0000
  O   O71       1.0  0.91630  0.94500  0.33080  1.0000
  O   O72       1.0  0.41630  0.55500  0.66920  1.0000
  O   O73       1.0  0.41920  0.69500  0.33370  1.0000
  O   O74       1.0  0.08080  0.30500  0.83370  1.0000
  O   O75       1.0  0.58080  0.19500  0.16630  1.0000
  O   O76       1.0  0.91920  0.80500  0.66630  1.0000
  O   O77       1.0  0.33370  0.41920  0.69500  1.0000
  O   O78       1.0  0.83370  0.08080  0.30500  1.0000
  O   O79       1.0  0.16630  0.58080  0.19500  1.0000
  O   O80       1.0  0.66630  0.91920  0.80500  1.0000
  O   O81       1.0  0.69500  0.33370  0.41920  1.0000
  O   O82       1.0  0.30500  0.83370  0.08080  1.0000
  O   O83       1.0  0.19500  0.16630  0.58080  1.0000
  O   O84       1.0  0.80500  0.66630  0.91920  1.0000
  O   O85       1.0  0.94500  0.66920  0.58370  1.0000
  O   O86       1.0  0.55500  0.33080  0.08370  1.0000
  O   O87       1.0  0.44500  0.83080  0.41630  1.0000
  O   O88       1.0  0.05500  0.16920  0.91630  1.0000
  O   O89       1.0  0.66920  0.58370  0.94500  1.0000
  O   O90       1.0  0.33080  0.08370  0.55500  1.0000
  O   O91       1.0  0.83080  0.41630  0.44500  1.0000
  O   O92       1.0  0.16920  0.91630  0.05500  1.0000
  O   O93       1.0  0.58370  0.94500  0.66920  1.0000
  O   O94       1.0  0.08370  0.55500  0.33080  1.0000
  O   O95       1.0  0.41630  0.44500  0.83080  1.0000
  O   O96       1.0  0.91630  0.05500  0.16920  1.0000
  C   C1        1.0  0.90400  0.23540  0.78930  1.0000
  C   C2        1.0  0.59600  0.76460  0.28930  1.0000
  C   C3        1.0  0.09600  0.73540  0.71070  1.0000
  C   C4        1.0  0.40400  0.26460  0.21070  1.0000
  C   C5        1.0  0.78930  0.90400  0.23540  1.0000
  C   C6        1.0  0.28930  0.59600  0.76460  1.0000
  C   C7        1.0  0.71070  0.09600  0.73540  1.0000
  C   C8        1.0  0.21070  0.40400  0.26460  1.0000
  C   C9        1.0  0.23540  0.78930  0.90400  1.0000
  C   C10       1.0  0.76460  0.28930  0.59600  1.0000
  C   C11       1.0  0.73540  0.71070  0.09600  1.0000
  C   C12       1.0  0.26460  0.21070  0.40400  1.0000
  C   C13       1.0  0.48540  0.15400  0.03930  1.0000
  C   C14       1.0  0.01460  0.84600  0.53930  1.0000
  C   C15       1.0  0.98540  0.34600  0.96070  1.0000
  C   C16       1.0  0.51460  0.65400  0.46070  1.0000
  C   C17       1.0  0.15400  0.03930  0.48540  1.0000
  C   C18       1.0  0.84600  0.53930  0.01460  1.0000
  C   C19       1.0  0.34600  0.96070  0.98540  1.0000
  C   C20       1.0  0.65400  0.46070  0.51460  1.0000
  C   C21       1.0  0.03930  0.48540  0.15400  1.0000
  C   C22       1.0  0.53930  0.01460  0.84600  1.0000
  C   C23       1.0  0.96070  0.98540  0.34600  1.0000
  C   C24       1.0  0.46070  0.51460  0.65400  1.0000
  C   C25       1.0  0.40400  0.73540  0.28930  1.0000
  C   C26       1.0  0.09600  0.26460  0.78930  1.0000
  C   C27       1.0  0.59600  0.23540  0.21070  1.0000
  C   C28       1.0  0.90400  0.76460  0.71070  1.0000
  C   C29       1.0  0.28930  0.40400  0.73540  1.0000
  C   C30       1.0  0.78930  0.09600  0.26460  1.0000
  C   C31       1.0  0.21070  0.59600  0.23540  1.0000
  C   C32       1.0  0.71070  0.90400  0.76460  1.0000
  C   C33       1.0  0.73540  0.28930  0.40400  1.0000
  C   C34       1.0  0.26460  0.78930  0.09600  1.0000
  C   C35       1.0  0.23540  0.21070  0.59600  1.0000
  C   C36       1.0  0.76460  0.71070  0.90400  1.0000
  C   C37       1.0  0.98540  0.65400  0.53930  1.0000
  C   C38       1.0  0.51460  0.34600  0.03930  1.0000
  C   C39       1.0  0.48540  0.84600  0.46070  1.0000
  C   C40       1.0  0.01460  0.15400  0.96070  1.0000
  C   C41       1.0  0.65400  0.53930  0.98540  1.0000
  C   C42       1.0  0.34600  0.03930  0.51460  1.0000
  C   C43       1.0  0.84600  0.46070  0.48540  1.0000
  C   C44       1.0  0.15400  0.96070  0.01460  1.0000
  C   C45       1.0  0.53930  0.98540  0.65400  1.0000
  C   C46       1.0  0.03930  0.51460  0.34600  1.0000
  C   C47       1.0  0.46070  0.48540  0.84600  1.0000
  C   C48       1.0  0.96070  0.01460  0.15400  1.0000
  C   C49       1.0  0.83480  0.25970  0.69190  1.0000
  C   C50       1.0  0.66520  0.74030  0.19190  1.0000
  C   C51       1.0  0.16520  0.75970  0.80810  1.0000
  C   C52       1.0  0.33480  0.24030  0.30810  1.0000
  C   C53       1.0  0.69190  0.83480  0.25970  1.0000
  C   C54       1.0  0.19190  0.66520  0.74030  1.0000
  C   C55       1.0  0.80810  0.16520  0.75970  1.0000
  C   C56       1.0  0.30810  0.33480  0.24030  1.0000
  C   C57       1.0  0.25970  0.69190  0.83480  1.0000
  C   C58       1.0  0.74030  0.19190  0.66520  1.0000
  C   C59       1.0  0.75970  0.80810  0.16520  1.0000
  C   C60       1.0  0.24030  0.30810  0.33480  1.0000
  C   C61       1.0  0.50970  0.08480  0.94190  1.0000
  C   C62       1.0  0.99030  0.91520  0.44190  1.0000
  C   C63       1.0  0.00970  0.41520  0.05810  1.0000
  C   C64       1.0  0.49030  0.58480  0.55810  1.0000
  C   C65       1.0  0.08480  0.94190  0.50970  1.0000
  C   C66       1.0  0.91520  0.44190  0.99030  1.0000
  C   C67       1.0  0.41520  0.05810  0.00970  1.0000
  C   C68       1.0  0.58480  0.55810  0.49030  1.0000
  C   C69       1.0  0.94190  0.50970  0.08480  1.0000
  C   C70       1.0  0.44190  0.99030  0.91520  1.0000
  C   C71       1.0  0.05810  0.00970  0.41520  1.0000
  C   C72       1.0  0.55810  0.49030  0.58480  1.0000
  C   C73       1.0  0.33480  0.75970  0.19190  1.0000
  C   C74       1.0  0.16520  0.24030  0.69190  1.0000
  C   C75       1.0  0.66520  0.25970  0.30810  1.0000
  C   C76       1.0  0.83480  0.74030  0.80810  1.0000
  C   C77       1.0  0.19190  0.33480  0.75970  1.0000
  C   C78       1.0  0.69190  0.16520  0.24030  1.0000
  C   C79       1.0  0.30810  0.66520  0.25970  1.0000
  C   C80       1.0  0.80810  0.83480  0.74030  1.0000
  C   C81       1.0  0.75970  0.19190  0.33480  1.0000
  C   C82       1.0  0.24030  0.69190  0.16520  1.0000
  C   C83       1.0  0.25970  0.30810  0.66520  1.0000
  C   C84       1.0  0.74030  0.80810  0.83480  1.0000
  C   C85       1.0  0.00970  0.58480  0.44190  1.0000
  C   C86       1.0  0.49030  0.41520  0.94190  1.0000
  C   C87       1.0  0.50970  0.91520  0.55810  1.0000
  C   C88       1.0  0.99030  0.08480  0.05810  1.0000
  C   C89       1.0  0.58480  0.44190  0.00970  1.0000
  C   C90       1.0  0.41520  0.94190  0.49030  1.0000
  C   C91       1.0  0.91520  0.55810  0.50970  1.0000
  C   C92       1.0  0.08480  0.05810  0.99030  1.0000
  C   C93       1.0  0.44190  0.00970  0.58480  1.0000
  C   C94       1.0  0.94190  0.49030  0.41520  1.0000
  C   C95       1.0  0.55810  0.50970  0.91520  1.0000
  C   C96       1.0  0.05810  0.99030  0.08480  1.0000
  H   H1        1.0  0.86150  0.29540  0.68260  1.0000
  H   H2        1.0  0.63850  0.70460  0.18260  1.0000
  H   H3        1.0  0.13850  0.79540  0.81740  1.0000
  H   H4        1.0  0.36150  0.20460  0.31740  1.0000
  H   H5        1.0  0.68260  0.86150  0.29540  1.0000
  H   H6        1.0  0.18260  0.63850  0.70460  1.0000
  H   H7        1.0  0.81740  0.13850  0.79540  1.0000
  H   H8        1.0  0.31740  0.36150  0.20460  1.0000
  H   H9        1.0  0.29540  0.68260  0.86150  1.0000
  H   H10       1.0  0.70460  0.18260  0.63850  1.0000
  H   H11       1.0  0.79540  0.81740  0.13850  1.0000
  H   H12       1.0  0.20460  0.31740  0.36150  1.0000
  H   H13       1.0  0.54540  0.11150  0.93260  1.0000
  H   H14       1.0  0.95460  0.88850  0.43260  1.0000
  H   H15       1.0  0.04540  0.38850  0.06740  1.0000
  H   H16       1.0  0.45460  0.61150  0.56740  1.0000
  H   H17       1.0  0.11150  0.93260  0.54540  1.0000
  H   H18       1.0  0.88850  0.43260  0.95460  1.0000
  H   H19       1.0  0.38850  0.06740  0.04540  1.0000
  H   H20       1.0  0.61150  0.56740  0.45460  1.0000
  H   H21       1.0  0.93260  0.54540  0.11150  1.0000
  H   H22       1.0  0.43260  0.95460  0.88850  1.0000
  H   H23       1.0  0.06740  0.04540  0.38850  1.0000
  H   H24       1.0  0.56740  0.45460  0.61150  1.0000
  H   H25       1.0  0.36150  0.79540  0.18260  1.0000
  H   H26       1.0  0.13850  0.20460  0.68260  1.0000
  H   H27       1.0  0.63850  0.29540  0.31740  1.0000
  H   H28       1.0  0.86150  0.70460  0.81740  1.0000
  H   H29       1.0  0.18260  0.36150  0.79540  1.0000
  H   H30       1.0  0.68260  0.13850  0.20460  1.0000
  H   H31       1.0  0.31740  0.63850  0.29540  1.0000
  H   H32       1.0  0.81740  0.86150  0.70460  1.0000
  H   H33       1.0  0.79540  0.18260  0.36150  1.0000
  H   H34       1.0  0.20460  0.68260  0.13850  1.0000
  H   H35       1.0  0.29540  0.31740  0.63850  1.0000
  H   H36       1.0  0.70460  0.81740  0.86150  1.0000
  H   H37       1.0  0.04540  0.61150  0.43260  1.0000
  H   H38       1.0  0.45460  0.38850  0.93260  1.0000
  H   H39       1.0  0.54540  0.88850  0.56740  1.0000
  H   H40       1.0  0.95460  0.11150  0.06740  1.0000
  H   H41       1.0  0.61150  0.43260  0.04540  1.0000
  H   H42       1.0  0.38850  0.93260  0.45460  1.0000
  H   H43       1.0  0.88850  0.56740  0.54540  1.0000
  H   H44       1.0  0.11150  0.06740  0.95460  1.0000
  H   H45       1.0  0.43260  0.04540  0.61150  1.0000
  H   H46       1.0  0.93260  0.45460  0.38850  1.0000
  H   H47       1.0  0.56740  0.54540  0.88850  1.0000
  H   H48       1.0  0.06740  0.95460  0.11150  1.0000
  C   C97       1.0  0.84760  0.21950  0.74510  1.0000
  C   C98       1.0  0.65240  0.78050  0.24510  1.0000
  C   C99       1.0  0.15240  0.71950  0.75490  1.0000
  C   C100      1.0  0.34760  0.28050  0.25490  1.0000
  C   C101      1.0  0.74510  0.84760  0.21950  1.0000
  C   C102      1.0  0.24510  0.65240  0.78050  1.0000
  C   C103      1.0  0.75490  0.15240  0.71950  1.0000
  C   C104      1.0  0.25490  0.34760  0.28050  1.0000
  C   C105      1.0  0.21950  0.74510  0.84760  1.0000
  C   C106      1.0  0.78050  0.24510  0.65240  1.0000
  C   C107      1.0  0.71950  0.75490  0.15240  1.0000
  C   C108      1.0  0.28050  0.25490  0.34760  1.0000
  C   C109      1.0  0.46950  0.09760  0.99510  1.0000
  C   C110      1.0  0.03050  0.90240  0.49510  1.0000
  C   C111      1.0  0.96950  0.40240  0.00490  1.0000
  C   C112      1.0  0.53050  0.59760  0.50490  1.0000
  C   C113      1.0  0.09760  0.99510  0.46950  1.0000
  C   C114      1.0  0.90240  0.49510  0.03050  1.0000
  C   C115      1.0  0.40240  0.00490  0.96950  1.0000
  C   C116      1.0  0.59760  0.50490  0.53050  1.0000
  C   C117      1.0  0.99510  0.46950  0.09760  1.0000
  C   C118      1.0  0.49510  0.03050  0.90240  1.0000
  C   C119      1.0  0.00490  0.96950  0.40240  1.0000
  C   C120      1.0  0.50490  0.53050  0.59760  1.0000
  C   C121      1.0  0.34760  0.71950  0.24510  1.0000
  C   C122      1.0  0.15240  0.28050  0.74510  1.0000
  C   C123      1.0  0.65240  0.21950  0.25490  1.0000
  C   C124      1.0  0.84760  0.78050  0.75490  1.0000
  C   C125      1.0  0.24510  0.34760  0.71950  1.0000
  C   C126      1.0  0.74510  0.15240  0.28050  1.0000
  C   C127      1.0  0.25490  0.65240  0.21950  1.0000
  C   C128      1.0  0.75490  0.84760  0.78050  1.0000
  C   C129      1.0  0.71950  0.24510  0.34760  1.0000
  C   C130      1.0  0.28050  0.74510  0.15240  1.0000
  C   C131      1.0  0.21950  0.25490  0.65240  1.0000
  C   C132      1.0  0.78050  0.75490  0.84760  1.0000
  C   C133      1.0  0.96950  0.59760  0.49510  1.0000
  C   C134      1.0  0.53050  0.40240  0.99510  1.0000
  C   C135      1.0  0.46950  0.90240  0.50490  1.0000
  C   C136      1.0  0.03050  0.09760  0.00490  1.0000
  C   C137      1.0  0.59760  0.49510  0.96950  1.0000
  C   C138      1.0  0.40240  0.99510  0.53050  1.0000
  C   C139      1.0  0.90240  0.50490  0.46950  1.0000
  C   C140      1.0  0.09760  0.00490  0.03050  1.0000
  C   C141      1.0  0.49510  0.96950  0.59760  1.0000
  C   C142      1.0  0.99510  0.53050  0.40240  1.0000
  C   C143      1.0  0.50490  0.46950  0.90240  1.0000
  C   C144      1.0  0.00490  0.03050  0.09760  1.0000
