data_image0
_chemical_formula_structural       Ge36K4O24C4H8C4H8C4H8C4H8C4H8C4H8C4H8C4H8C4H8C4H8C4H8C4H8
_chemical_formula_sum              "Ge36 K4 O24 C48 H96"
_cell_length_a       11.2796
_cell_length_b       14.7049
_cell_length_c       27.8321
_cell_angle_alpha    90
_cell_angle_beta     90
_cell_angle_gamma    90

_space_group_name_H-M_alt    "P 1"
_space_group_IT_number       1

loop_
  _space_group_symop_operation_xyz
  'x, y, z'

loop_
  _atom_site_type_symbol
  _atom_site_label
  _atom_site_symmetry_multiplicity
  _atom_site_fract_x
  _atom_site_fract_y
  _atom_site_fract_z
  _atom_site_occupancy
  Ge  Ge1       1.0  0.87808  0.41787  0.61576  1.0000
  Ge  Ge2       1.0  0.62192  0.58213  0.11576  1.0000
  Ge  Ge3       1.0  0.12192  0.91787  0.88424  1.0000
  Ge  Ge4       1.0  0.37808  0.08213  0.38424  1.0000
  Ge  Ge5       1.0  0.74840  0.27438  0.60069  1.0000
  Ge  Ge6       1.0  0.75160  0.72562  0.10069  1.0000
  Ge  Ge7       1.0  0.25160  0.77438  0.89931  1.0000
  Ge  Ge8       1.0  0.24840  0.22562  0.39931  1.0000
  Ge  Ge9       1.0  0.75076  0.42996  0.53880  1.0000
  Ge  Ge10      1.0  0.74924  0.57004  0.03880  1.0000
  Ge  Ge11      1.0  0.24924  0.92996  0.96120  1.0000
  Ge  Ge12      1.0  0.25076  0.07004  0.46120  1.0000
  Ge  Ge13      1.0  0.99278  0.42125  0.53569  1.0000
  Ge  Ge14      1.0  0.50722  0.57875  0.03569  1.0000
  Ge  Ge15      1.0  0.00722  0.92125  0.96431  1.0000
  Ge  Ge16      1.0  0.49278  0.07875  0.46431  1.0000
  Ge  Ge17      1.0  0.98795  0.26706  0.59801  1.0000
  Ge  Ge18      1.0  0.51205  0.73294  0.09801  1.0000
  Ge  Ge19      1.0  0.01205  0.76706  0.90199  1.0000
  Ge  Ge20      1.0  0.48795  0.23294  0.40199  1.0000
  Ge  Ge21      1.0  0.71967  0.26406  0.50743  1.0000
  Ge  Ge22      1.0  0.78033  0.73594  0.00743  1.0000
  Ge  Ge23      1.0  0.28033  0.76406  0.99257  1.0000
  Ge  Ge24      1.0  0.21967  0.23594  0.49257  1.0000
  Ge  Ge25      1.0  0.86506  0.36704  0.46216  1.0000
  Ge  Ge26      1.0  0.63494  0.63296  0.96216  1.0000
  Ge  Ge27      1.0  0.13494  0.86704  0.03784  1.0000
  Ge  Ge28      1.0  0.36506  0.13296  0.53784  1.0000
  Ge  Ge29      1.0  0.00223  0.25359  0.50385  1.0000
  Ge  Ge30      1.0  0.49777  0.74641  0.00385  1.0000
  Ge  Ge31      1.0  0.99777  0.75359  0.99615  1.0000
  Ge  Ge32      1.0  0.50223  0.24641  0.49615  1.0000
  Ge  Ge33      1.0  0.85731  0.15085  0.54883  1.0000
  Ge  Ge34      1.0  0.64269  0.84915  0.04883  1.0000
  Ge  Ge35      1.0  0.14269  0.65085  0.95117  1.0000
  Ge  Ge36      1.0  0.35731  0.34915  0.45117  1.0000
  K   K1        1.0  0.57368  0.44989  0.65557  1.0000
  K   K2        1.0  0.92632  0.55011  0.15557  1.0000
  K   K3        1.0  0.42632  0.94989  0.84443  1.0000
  K   K4        1.0  0.07368  0.05011  0.34443  1.0000
  O   O1        1.0  0.67860  0.58700  0.72040  1.0000
  O   O2        1.0  0.82140  0.41300  0.22040  1.0000
  O   O3        1.0  0.32140  0.08700  0.77960  1.0000
  O   O4        1.0  0.17860  0.91300  0.27960  1.0000
  O   O5        1.0  0.56610  0.64250  0.63590  1.0000
  O   O6        1.0  0.93390  0.35750  0.13590  1.0000
  O   O7        1.0  0.43390  0.14250  0.86410  1.0000
  O   O8        1.0  0.06610  0.85750  0.36410  1.0000
  O   O9        1.0  0.37520  0.53420  0.60550  1.0000
  O   O10       1.0  0.12480  0.46580  0.10550  1.0000
  O   O11       1.0  0.62480  0.03420  0.89450  1.0000
  O   O12       1.0  0.87520  0.96580  0.39450  1.0000
  O   O13       1.0  0.37470  0.35190  0.63510  1.0000
  O   O14       1.0  0.12530  0.64810  0.13510  1.0000
  O   O15       1.0  0.62530  0.85190  0.86490  1.0000
  O   O16       1.0  0.87470  0.14810  0.36490  1.0000
  O   O17       1.0  0.49810  0.28690  0.71350  1.0000
  O   O18       1.0  0.00190  0.71310  0.21350  1.0000
  O   O19       1.0  0.50190  0.78690  0.78650  1.0000
  O   O20       1.0  0.99810  0.21310  0.28650  1.0000
  O   O21       1.0  0.68200  0.40060  0.74390  1.0000
  O   O22       1.0  0.81800  0.59940  0.24390  1.0000
  O   O23       1.0  0.31800  0.90060  0.75610  1.0000
  O   O24       1.0  0.18200  0.09940  0.25610  1.0000
  C   C1        1.0  0.72150  0.65940  0.69130  1.0000
  C   C2        1.0  0.77850  0.34060  0.19130  1.0000
  C   C3        1.0  0.27850  0.15940  0.80870  1.0000
  C   C4        1.0  0.22150  0.84060  0.30870  1.0000
  H   H1        1.0  0.77510  0.63560  0.66660  1.0000
  H   H2        1.0  0.72490  0.36440  0.16660  1.0000
  H   H3        1.0  0.22490  0.13560  0.83340  1.0000
  H   H4        1.0  0.27510  0.86440  0.33340  1.0000
  H   H5        1.0  0.76550  0.70310  0.71100  1.0000
  H   H6        1.0  0.73450  0.29690  0.21100  1.0000
  H   H7        1.0  0.23450  0.20310  0.78900  1.0000
  H   H8        1.0  0.26550  0.79690  0.28900  1.0000
  C   C5        1.0  0.61860  0.70480  0.66840  1.0000
  C   C6        1.0  0.88140  0.29520  0.16840  1.0000
  C   C7        1.0  0.38140  0.20480  0.83160  1.0000
  C   C8        1.0  0.11860  0.79520  0.33160  1.0000
  H   H9        1.0  0.56090  0.72300  0.69290  1.0000
  H   H10       1.0  0.93910  0.27700  0.19290  1.0000
  H   H11       1.0  0.43910  0.22300  0.80710  1.0000
  H   H12       1.0  0.06090  0.77700  0.30710  1.0000
  H   H13       1.0  0.64470  0.75940  0.65120  1.0000
  H   H14       1.0  0.85530  0.24060  0.15120  1.0000
  H   H15       1.0  0.35530  0.25940  0.84880  1.0000
  H   H16       1.0  0.14470  0.74060  0.34880  1.0000
  C   C9        1.0  0.46330  0.67900  0.61380  1.0000
  C   C10       1.0  0.03670  0.32100  0.11380  1.0000
  C   C11       1.0  0.53670  0.17900  0.88620  1.0000
  C   C12       1.0  0.96330  0.82100  0.38620  1.0000
  H   H17       1.0  0.48290  0.73560  0.59700  1.0000
  H   H18       1.0  0.01710  0.26440  0.09700  1.0000
  H   H19       1.0  0.51710  0.23560  0.90300  1.0000
  H   H20       1.0  0.98290  0.76440  0.40300  1.0000
  H   H21       1.0  0.40290  0.69240  0.63810  1.0000
  H   H22       1.0  0.09710  0.30760  0.13810  1.0000
  H   H23       1.0  0.59710  0.19240  0.86190  1.0000
  H   H24       1.0  0.90290  0.80760  0.36190  1.0000
  C   C13       1.0  0.41800  0.61090  0.57940  1.0000
  C   C14       1.0  0.08200  0.38910  0.07940  1.0000
  C   C15       1.0  0.58200  0.11090  0.92060  1.0000
  C   C16       1.0  0.91800  0.88910  0.42060  1.0000
  H   H25       1.0  0.35390  0.63730  0.56020  1.0000
  H   H26       1.0  0.14610  0.36270  0.06020  1.0000
  H   H27       1.0  0.64610  0.13730  0.93980  1.0000
  H   H28       1.0  0.85390  0.86270  0.43980  1.0000
  H   H29       1.0  0.48160  0.59210  0.55760  1.0000
  H   H30       1.0  0.01840  0.40790  0.05760  1.0000
  H   H31       1.0  0.51840  0.09210  0.94240  1.0000
  H   H32       1.0  0.98160  0.90790  0.44240  1.0000
  C   C17       1.0  0.33760  0.46080  0.57570  1.0000
  C   C18       1.0  0.16240  0.53920  0.07570  1.0000
  C   C19       1.0  0.66240  0.96080  0.92430  1.0000
  C   C20       1.0  0.83760  0.03920  0.42430  1.0000
  H   H33       1.0  0.40570  0.43640  0.55810  1.0000
  H   H34       1.0  0.09430  0.56360  0.05810  1.0000
  H   H35       1.0  0.59430  0.93640  0.94190  1.0000
  H   H36       1.0  0.90570  0.06360  0.44190  1.0000
  H   H37       1.0  0.27950  0.48280  0.55230  1.0000
  H   H38       1.0  0.22050  0.51720  0.05230  1.0000
  H   H39       1.0  0.72050  0.98280  0.94770  1.0000
  H   H40       1.0  0.77950  0.01720  0.44770  1.0000
  C   C21       1.0  0.28470  0.38930  0.60500  1.0000
  C   C22       1.0  0.21530  0.61070  0.10500  1.0000
  C   C23       1.0  0.71530  0.88930  0.89500  1.0000
  C   C24       1.0  0.78470  0.11070  0.39500  1.0000
  H   H41       1.0  0.22050  0.41440  0.62470  1.0000
  H   H42       1.0  0.27950  0.58560  0.12470  1.0000
  H   H43       1.0  0.77950  0.91440  0.87530  1.0000
  H   H44       1.0  0.72050  0.08560  0.37530  1.0000
  H   H45       1.0  0.25150  0.34180  0.58430  1.0000
  H   H46       1.0  0.24850  0.65820  0.08430  1.0000
  H   H47       1.0  0.74850  0.84180  0.91570  1.0000
  H   H48       1.0  0.75150  0.15820  0.41570  1.0000
  C   C25       1.0  0.34210  0.27030  0.65870  1.0000
  C   C26       1.0  0.15790  0.72970  0.15870  1.0000
  C   C27       1.0  0.65790  0.77030  0.84130  1.0000
  C   C28       1.0  0.84210  0.22970  0.34130  1.0000
  H   H49       1.0  0.30430  0.22890  0.63570  1.0000
  H   H50       1.0  0.19570  0.77110  0.13570  1.0000
  H   H51       1.0  0.69570  0.72890  0.86430  1.0000
  H   H52       1.0  0.80430  0.27110  0.36430  1.0000
  H   H53       1.0  0.28500  0.28360  0.68430  1.0000
  H   H54       1.0  0.21500  0.71640  0.18430  1.0000
  H   H55       1.0  0.71500  0.78360  0.81570  1.0000
  H   H56       1.0  0.78500  0.21640  0.31570  1.0000
  C   C29       1.0  0.44720  0.22700  0.67920  1.0000
  C   C30       1.0  0.05280  0.77300  0.17920  1.0000
  C   C31       1.0  0.55280  0.72700  0.82080  1.0000
  C   C32       1.0  0.94720  0.27300  0.32080  1.0000
  H   H57       1.0  0.42520  0.16960  0.69470  1.0000
  H   H58       1.0  0.07480  0.83040  0.19470  1.0000
  H   H59       1.0  0.57480  0.66960  0.80530  1.0000
  H   H60       1.0  0.92520  0.33040  0.30530  1.0000
  H   H61       1.0  0.50470  0.21370  0.65380  1.0000
  H   H62       1.0  0.99530  0.78630  0.15380  1.0000
  H   H63       1.0  0.49530  0.71370  0.84620  1.0000
  H   H64       1.0  0.00470  0.28630  0.34620  1.0000
  C   C33       1.0  0.60440  0.25320  0.73300  1.0000
  C   C34       1.0  0.89560  0.74680  0.23300  1.0000
  C   C35       1.0  0.39560  0.75320  0.76700  1.0000
  C   C36       1.0  0.10440  0.24680  0.26700  1.0000
  H   H65       1.0  0.66270  0.24410  0.70730  1.0000
  H   H66       1.0  0.83730  0.75590  0.20730  1.0000
  H   H67       1.0  0.33730  0.74410  0.79270  1.0000
  H   H68       1.0  0.16270  0.25590  0.29270  1.0000
  H   H69       1.0  0.58990  0.19450  0.74860  1.0000
  H   H70       1.0  0.91010  0.80550  0.24860  1.0000
  H   H71       1.0  0.41010  0.69450  0.75140  1.0000
  H   H72       1.0  0.08990  0.30550  0.25140  1.0000
  C   C37       1.0  0.65120  0.32010  0.76900  1.0000
  C   C38       1.0  0.84880  0.67990  0.26900  1.0000
  C   C39       1.0  0.34880  0.82010  0.73100  1.0000
  C   C40       1.0  0.15120  0.17990  0.23100  1.0000
  H   H73       1.0  0.59060  0.33340  0.79320  1.0000
  H   H74       1.0  0.90940  0.66660  0.29320  1.0000
  H   H75       1.0  0.40940  0.83340  0.70680  1.0000
  H   H76       1.0  0.09060  0.16660  0.20680  1.0000
  H   H77       1.0  0.72100  0.29510  0.78530  1.0000
  H   H78       1.0  0.77900  0.70490  0.28530  1.0000
  H   H79       1.0  0.27900  0.79510  0.71470  1.0000
  H   H80       1.0  0.22100  0.20490  0.21470  1.0000
  C   C41       1.0  0.72450  0.46890  0.77540  1.0000
  C   C42       1.0  0.77550  0.53110  0.27540  1.0000
  C   C43       1.0  0.27550  0.96890  0.72460  1.0000
  C   C44       1.0  0.22450  0.03110  0.22460  1.0000
  H   H81       1.0  0.78670  0.44380  0.79610  1.0000
  H   H82       1.0  0.71330  0.55620  0.29610  1.0000
  H   H83       1.0  0.21330  0.94380  0.70390  1.0000
  H   H84       1.0  0.28670  0.05620  0.20390  1.0000
  H   H85       1.0  0.65980  0.49040  0.79590  1.0000
  H   H86       1.0  0.84020  0.50960  0.29590  1.0000
  H   H87       1.0  0.34020  0.99040  0.70410  1.0000
  H   H88       1.0  0.15980  0.00960  0.20410  1.0000
  C   C45       1.0  0.77320  0.54670  0.74660  1.0000
  C   C46       1.0  0.72680  0.45330  0.24660  1.0000
  C   C47       1.0  0.22680  0.04670  0.75340  1.0000
  C   C48       1.0  0.27320  0.95330  0.25340  1.0000
  H   H89       1.0  0.80930  0.59170  0.76800  1.0000
  H   H90       1.0  0.69070  0.40830  0.26800  1.0000
  H   H91       1.0  0.19070  0.09170  0.73200  1.0000
  H   H92       1.0  0.30930  0.90830  0.23200  1.0000
  H   H93       1.0  0.83420  0.52460  0.72440  1.0000
  H   H94       1.0  0.66580  0.47540  0.22440  1.0000
  H   H95       1.0  0.16580  0.02460  0.77560  1.0000
  H   H96       1.0  0.33420  0.97540  0.27560  1.0000
