data_image0
_chemical_formula_structural       C72H8C8H8Cd8O64
_chemical_formula_sum              "C80 H16 Cd8 O64"
_cell_length_a       13.795
_cell_length_b       13.795
_cell_length_c       17.743
_cell_angle_alpha    90
_cell_angle_beta     90
_cell_angle_gamma    90

_space_group_name_H-M_alt    "P 1"
_space_group_IT_number       1

loop_
  _space_group_symop_operation_xyz
  'x, y, z'

loop_
  _atom_site_type_symbol
  _atom_site_label
  _atom_site_symmetry_multiplicity
  _atom_site_fract_x
  _atom_site_fract_y
  _atom_site_fract_z
  _atom_site_occupancy
  C   C1        1.0  0.13990  0.48010  0.36100  1.0000
  C   C2        1.0  0.86010  0.51990  0.36100  1.0000
  C   C3        1.0  0.51990  0.13990  0.86100  1.0000
  C   C4        1.0  0.48010  0.86010  0.86100  1.0000
  C   C5        1.0  0.36010  0.98010  0.63900  1.0000
  C   C6        1.0  0.63990  0.01990  0.63900  1.0000
  C   C7        1.0  0.98010  0.63990  0.13900  1.0000
  C   C8        1.0  0.01990  0.36010  0.13900  1.0000
  C   C9        1.0  0.86010  0.51990  0.63900  1.0000
  C   C10       1.0  0.13990  0.48010  0.63900  1.0000
  C   C11       1.0  0.48010  0.86010  0.13900  1.0000
  C   C12       1.0  0.51990  0.13990  0.13900  1.0000
  C   C13       1.0  0.63990  0.01990  0.36100  1.0000
  C   C14       1.0  0.36010  0.98010  0.36100  1.0000
  C   C15       1.0  0.01990  0.36010  0.86100  1.0000
  C   C16       1.0  0.98010  0.63990  0.86100  1.0000
  C   C17       1.0  0.19990  0.48490  0.43170  1.0000
  C   C18       1.0  0.80010  0.51510  0.43170  1.0000
  C   C19       1.0  0.51510  0.19990  0.93170  1.0000
  C   C20       1.0  0.48490  0.80010  0.93170  1.0000
  C   C21       1.0  0.30010  0.98490  0.56830  1.0000
  C   C22       1.0  0.69990  0.01510  0.56830  1.0000
  C   C23       1.0  0.98490  0.69990  0.06830  1.0000
  C   C24       1.0  0.01510  0.30010  0.06830  1.0000
  C   C25       1.0  0.80010  0.51510  0.56830  1.0000
  C   C26       1.0  0.19990  0.48490  0.56830  1.0000
  C   C27       1.0  0.48490  0.80010  0.06830  1.0000
  C   C28       1.0  0.51510  0.19990  0.06830  1.0000
  C   C29       1.0  0.69990  0.01510  0.43170  1.0000
  C   C30       1.0  0.30010  0.98490  0.43170  1.0000
  C   C31       1.0  0.01510  0.30010  0.93170  1.0000
  C   C32       1.0  0.98490  0.69990  0.93170  1.0000
  C   C33       1.0  0.29920  0.50590  0.43200  1.0000
  C   C34       1.0  0.70080  0.49410  0.43200  1.0000
  C   C35       1.0  0.49410  0.29920  0.93200  1.0000
  C   C36       1.0  0.50590  0.70080  0.93200  1.0000
  C   C37       1.0  0.20080  0.00590  0.56800  1.0000
  C   C38       1.0  0.79920  0.99410  0.56800  1.0000
  C   C39       1.0  0.00590  0.79920  0.06800  1.0000
  C   C40       1.0  0.99410  0.20080  0.06800  1.0000
  C   C41       1.0  0.70080  0.49410  0.56800  1.0000
  C   C42       1.0  0.29920  0.50590  0.56800  1.0000
  C   C43       1.0  0.50590  0.70080  0.06800  1.0000
  C   C44       1.0  0.49410  0.29920  0.06800  1.0000
  C   C45       1.0  0.79920  0.99410  0.43200  1.0000
  C   C46       1.0  0.20080  0.00590  0.43200  1.0000
  C   C47       1.0  0.99410  0.20080  0.93200  1.0000
  C   C48       1.0  0.00590  0.79920  0.93200  1.0000
  C   C49       1.0  0.35970  0.51370  0.36090  1.0000
  C   C50       1.0  0.64030  0.48630  0.36090  1.0000
  C   C51       1.0  0.48630  0.35970  0.86090  1.0000
  C   C52       1.0  0.51370  0.64030  0.86090  1.0000
  C   C53       1.0  0.14030  0.01370  0.63910  1.0000
  C   C54       1.0  0.85970  0.98630  0.63910  1.0000
  C   C55       1.0  0.01370  0.85970  0.13910  1.0000
  C   C56       1.0  0.98630  0.14030  0.13910  1.0000
  C   C57       1.0  0.64030  0.48630  0.63910  1.0000
  C   C58       1.0  0.35970  0.51370  0.63910  1.0000
  C   C59       1.0  0.51370  0.64030  0.13910  1.0000
  C   C60       1.0  0.48630  0.35970  0.13910  1.0000
  C   C61       1.0  0.85970  0.98630  0.36090  1.0000
  C   C62       1.0  0.14030  0.01370  0.36090  1.0000
  C   C63       1.0  0.98630  0.14030  0.86090  1.0000
  C   C64       1.0  0.01370  0.85970  0.86090  1.0000
  C   C65       1.0  0.34630  0.51750  0.50000  1.0000
  C   C66       1.0  0.65370  0.48250  0.50000  1.0000
  C   C67       1.0  0.48250  0.34630  0.00000  1.0000
  C   C68       1.0  0.51750  0.65370  0.00000  1.0000
  C   C69       1.0  0.15370  0.01750  0.50000  1.0000
  C   C70       1.0  0.84630  0.98250  0.50000  1.0000
  C   C71       1.0  0.01750  0.84630  0.00000  1.0000
  C   C72       1.0  0.98250  0.15370  0.00000  1.0000
  H   H1        1.0  0.41180  0.53350  0.50000  1.0000
  H   H2        1.0  0.58820  0.46650  0.50000  1.0000
  H   H3        1.0  0.46650  0.41180  0.00000  1.0000
  H   H4        1.0  0.53350  0.58820  0.00000  1.0000
  H   H5        1.0  0.08820  0.03350  0.50000  1.0000
  H   H6        1.0  0.91180  0.96650  0.50000  1.0000
  H   H7        1.0  0.03350  0.91180  0.00000  1.0000
  H   H8        1.0  0.96650  0.08820  0.00000  1.0000
  C   C73       1.0  0.15270  0.47330  0.50000  1.0000
  C   C74       1.0  0.84730  0.52670  0.50000  1.0000
  C   C75       1.0  0.52670  0.15270  0.00000  1.0000
  C   C76       1.0  0.47330  0.84730  0.00000  1.0000
  C   C77       1.0  0.34730  0.97330  0.50000  1.0000
  C   C78       1.0  0.65270  0.02670  0.50000  1.0000
  C   C79       1.0  0.97330  0.65270  0.00000  1.0000
  C   C80       1.0  0.02670  0.34730  0.00000  1.0000
  H   H9        1.0  0.08730  0.45730  0.50000  1.0000
  H   H10       1.0  0.91270  0.54270  0.50000  1.0000
  H   H11       1.0  0.54270  0.08730  0.00000  1.0000
  H   H12       1.0  0.45730  0.91270  0.00000  1.0000
  H   H13       1.0  0.41270  0.95730  0.50000  1.0000
  H   H14       1.0  0.58730  0.04270  0.50000  1.0000
  H   H15       1.0  0.95730  0.58730  0.00000  1.0000
  H   H16       1.0  0.04270  0.41270  0.00000  1.0000
  Cd  Cd1       1.0  0.00000  0.50000  0.25000  1.0000
  Cd  Cd2       1.0  0.50000  0.00000  0.75000  1.0000
  Cd  Cd3       1.0  0.00000  0.50000  0.75000  1.0000
  Cd  Cd4       1.0  0.50000  0.00000  0.25000  1.0000
  Cd  Cd5       1.0  0.50000  0.50000  0.25000  1.0000
  Cd  Cd6       1.0  0.50000  0.50000  0.75000  1.0000
  Cd  Cd7       1.0  0.00000  0.00000  0.75000  1.0000
  Cd  Cd8       1.0  0.00000  0.00000  0.25000  1.0000
  O   O1        1.0  0.07750  0.41710  0.35410  1.0000
  O   O2        1.0  0.92250  0.58290  0.35410  1.0000
  O   O3        1.0  0.58290  0.07750  0.85410  1.0000
  O   O4        1.0  0.41710  0.92250  0.85410  1.0000
  O   O5        1.0  0.42250  0.91710  0.64590  1.0000
  O   O6        1.0  0.57750  0.08290  0.64590  1.0000
  O   O7        1.0  0.91710  0.57750  0.14590  1.0000
  O   O8        1.0  0.08290  0.42250  0.14590  1.0000
  O   O9        1.0  0.92250  0.58290  0.64590  1.0000
  O   O10       1.0  0.07750  0.41710  0.64590  1.0000
  O   O11       1.0  0.41710  0.92250  0.14590  1.0000
  O   O12       1.0  0.58290  0.07750  0.14590  1.0000
  O   O13       1.0  0.57750  0.08290  0.35410  1.0000
  O   O14       1.0  0.42250  0.91710  0.35410  1.0000
  O   O15       1.0  0.08290  0.42250  0.85410  1.0000
  O   O16       1.0  0.91710  0.57750  0.85410  1.0000
  O   O17       1.0  0.15030  0.54600  0.31250  1.0000
  O   O18       1.0  0.84970  0.45400  0.31250  1.0000
  O   O19       1.0  0.45400  0.15030  0.81250  1.0000
  O   O20       1.0  0.54600  0.84970  0.81250  1.0000
  O   O21       1.0  0.34970  0.04600  0.68750  1.0000
  O   O22       1.0  0.65030  0.95400  0.68750  1.0000
  O   O23       1.0  0.04600  0.65030  0.18750  1.0000
  O   O24       1.0  0.95400  0.34970  0.18750  1.0000
  O   O25       1.0  0.84970  0.45400  0.68750  1.0000
  O   O26       1.0  0.15030  0.54600  0.68750  1.0000
  O   O27       1.0  0.54600  0.84970  0.18750  1.0000
  O   O28       1.0  0.45400  0.15030  0.18750  1.0000
  O   O29       1.0  0.65030  0.95400  0.31250  1.0000
  O   O30       1.0  0.34970  0.04600  0.31250  1.0000
  O   O31       1.0  0.95400  0.34970  0.81250  1.0000
  O   O32       1.0  0.04600  0.65030  0.81250  1.0000
  O   O33       1.0  0.35240  0.44930  0.31220  1.0000
  O   O34       1.0  0.64760  0.55070  0.31220  1.0000
  O   O35       1.0  0.55070  0.35240  0.81220  1.0000
  O   O36       1.0  0.44930  0.64760  0.81220  1.0000
  O   O37       1.0  0.14760  0.94930  0.68780  1.0000
  O   O38       1.0  0.85240  0.05070  0.68780  1.0000
  O   O39       1.0  0.94930  0.85240  0.18780  1.0000
  O   O40       1.0  0.05070  0.14760  0.18780  1.0000
  O   O41       1.0  0.64760  0.55070  0.68780  1.0000
  O   O42       1.0  0.35240  0.44930  0.68780  1.0000
  O   O43       1.0  0.44930  0.64760  0.18780  1.0000
  O   O44       1.0  0.55070  0.35240  0.18780  1.0000
  O   O45       1.0  0.85240  0.05070  0.31220  1.0000
  O   O46       1.0  0.14760  0.94930  0.31220  1.0000
  O   O47       1.0  0.05070  0.14760  0.81220  1.0000
  O   O48       1.0  0.94930  0.85240  0.81220  1.0000
  O   O49       1.0  0.42040  0.57980  0.35580  1.0000
  O   O50       1.0  0.57960  0.42020  0.35580  1.0000
  O   O51       1.0  0.42020  0.42040  0.85580  1.0000
  O   O52       1.0  0.57980  0.57960  0.85580  1.0000
  O   O53       1.0  0.07960  0.07980  0.64420  1.0000
  O   O54       1.0  0.92040  0.92020  0.64420  1.0000
  O   O55       1.0  0.07980  0.92040  0.14420  1.0000
  O   O56       1.0  0.92020  0.07960  0.14420  1.0000
  O   O57       1.0  0.57960  0.42020  0.64420  1.0000
  O   O58       1.0  0.42040  0.57980  0.64420  1.0000
  O   O59       1.0  0.57980  0.57960  0.14420  1.0000
  O   O60       1.0  0.42020  0.42040  0.14420  1.0000
  O   O61       1.0  0.92040  0.92020  0.35580  1.0000
  O   O62       1.0  0.07960  0.07980  0.35580  1.0000
  O   O63       1.0  0.92020  0.07960  0.85580  1.0000
  O   O64       1.0  0.07980  0.92040  0.85580  1.0000
