data_image0
_chemical_formula_structural       Mn4O32N8C12H4C4H4C4H4C20H4C4H4C4H4C8Mn4O32N8C12H4C4H4C4H4C20H4C4H4C4H4C8
_chemical_formula_sum              "Mn8 O64 N16 C112 H48"
_cell_length_a       20.1078
_cell_length_b       19.9095
_cell_length_c       12.9967
_cell_angle_alpha    90
_cell_angle_beta     94.354
_cell_angle_gamma    90

_space_group_name_H-M_alt    "P 1"
_space_group_IT_number       1

loop_
  _space_group_symop_operation_xyz
  'x, y, z'

loop_
  _atom_site_type_symbol
  _atom_site_label
  _atom_site_symmetry_multiplicity
  _atom_site_fract_x
  _atom_site_fract_y
  _atom_site_fract_z
  _atom_site_occupancy
  Mn  Mn1       1.0  0.48714  0.26840  0.24009  1.0000
  Mn  Mn2       1.0  0.51286  0.76840  0.25991  1.0000
  Mn  Mn3       1.0  0.51286  0.73160  0.75991  1.0000
  Mn  Mn4       1.0  0.48714  0.23160  0.74009  1.0000
  O   O1        1.0  0.57398  0.25396  0.34530  1.0000
  O   O2        1.0  0.42602  0.75396  0.15470  1.0000
  O   O3        1.0  0.42602  0.74604  0.65470  1.0000
  O   O4        1.0  0.57398  0.24604  0.84530  1.0000
  O   O5        1.0  0.61535  0.20898  0.49330  1.0000
  O   O6        1.0  0.38465  0.70898  0.00670  1.0000
  O   O7        1.0  0.38465  0.79102  0.50670  1.0000
  O   O8        1.0  0.61535  0.29102  0.99330  1.0000
  O   O9        1.0  0.58854  0.07099  0.59040  1.0000
  O   O10       1.0  0.41146  0.57099  0.90960  1.0000
  O   O11       1.0  0.41146  0.92901  0.40960  1.0000
  O   O12       1.0  0.58854  0.42901  0.09040  1.0000
  O   O13       1.0  0.54886  0.15503  0.67920  1.0000
  O   O14       1.0  0.45114  0.65503  0.82080  1.0000
  O   O15       1.0  0.45114  0.84497  0.32080  1.0000
  O   O16       1.0  0.54886  0.34497  0.17920  1.0000
  O   O17       1.0  0.40009  0.25428  0.13210  1.0000
  O   O18       1.0  0.59991  0.75428  0.36790  1.0000
  O   O19       1.0  0.59991  0.74572  0.86790  1.0000
  O   O20       1.0  0.40009  0.24572  0.63210  1.0000
  O   O21       1.0  0.35999  0.20601  0.98490  1.0000
  O   O22       1.0  0.64001  0.70601  0.51510  1.0000
  O   O23       1.0  0.64001  0.79399  0.01510  1.0000
  O   O24       1.0  0.35999  0.29399  0.48490  1.0000
  O   O25       1.0  0.38709  0.07139  0.89520  1.0000
  O   O26       1.0  0.61291  0.57139  0.60480  1.0000
  O   O27       1.0  0.61291  0.92861  0.10480  1.0000
  O   O28       1.0  0.38709  0.42861  0.39520  1.0000
  O   O29       1.0  0.42691  0.15275  0.80000  1.0000
  O   O30       1.0  0.57309  0.65275  0.70000  1.0000
  O   O31       1.0  0.57309  0.84725  0.20000  1.0000
  O   O32       1.0  0.42691  0.34725  0.30000  1.0000
  N   N1        1.0  0.45835  0.18970  0.35560  1.0000
  N   N2        1.0  0.54165  0.68970  0.14440  1.0000
  N   N3        1.0  0.54165  0.81030  0.64440  1.0000
  N   N4        1.0  0.45835  0.31030  0.85560  1.0000
  N   N5        1.0  0.51660  0.19021  0.12550  1.0000
  N   N6        1.0  0.48340  0.69021  0.37450  1.0000
  N   N7        1.0  0.48340  0.80979  0.87450  1.0000
  N   N8        1.0  0.51660  0.30979  0.62550  1.0000
  C   C1        1.0  0.50630  0.17770  0.43150  1.0000
  C   C2        1.0  0.49370  0.67770  0.06850  1.0000
  C   C3        1.0  0.49370  0.82230  0.56850  1.0000
  C   C4        1.0  0.50630  0.32230  0.93150  1.0000
  C   C5        1.0  0.49755  0.13310  0.51120  1.0000
  C   C6        1.0  0.50245  0.63310  0.98880  1.0000
  C   C7        1.0  0.50245  0.86690  0.48880  1.0000
  C   C8        1.0  0.49755  0.36690  0.01120  1.0000
  C   C9        1.0  0.43740  0.09750  0.50990  1.0000
  C   C10       1.0  0.56260  0.59750  0.99010  1.0000
  C   C11       1.0  0.56260  0.90250  0.49010  1.0000
  C   C12       1.0  0.43740  0.40250  0.00990  1.0000
  H   H1        1.0  0.43030  0.06550  0.56220  1.0000
  H   H2        1.0  0.56970  0.56550  0.93780  1.0000
  H   H3        1.0  0.56970  0.93450  0.43780  1.0000
  H   H4        1.0  0.43030  0.43450  0.06220  1.0000
  C   C13       1.0  0.38880  0.10940  0.43180  1.0000
  C   C14       1.0  0.61120  0.60940  0.06820  1.0000
  C   C15       1.0  0.61120  0.89060  0.56820  1.0000
  C   C16       1.0  0.38880  0.39060  0.93180  1.0000
  H   H5        1.0  0.34740  0.08630  0.43000  1.0000
  H   H6        1.0  0.65260  0.58630  0.07000  1.0000
  H   H7        1.0  0.65260  0.91370  0.57000  1.0000
  H   H8        1.0  0.34740  0.41370  0.93000  1.0000
  C   C17       1.0  0.40091  0.15590  0.35560  1.0000
  C   C18       1.0  0.59909  0.65590  0.14440  1.0000
  C   C19       1.0  0.59909  0.84410  0.64440  1.0000
  C   C20       1.0  0.40091  0.34410  0.85560  1.0000
  H   H9        1.0  0.36720  0.16390  0.30170  1.0000
  H   H10       1.0  0.63280  0.66390  0.19830  1.0000
  H   H11       1.0  0.63280  0.83610  0.69830  1.0000
  H   H12       1.0  0.36720  0.33610  0.80170  1.0000
  C   C21       1.0  0.57023  0.21660  0.42360  1.0000
  C   C22       1.0  0.42977  0.71660  0.07640  1.0000
  C   C23       1.0  0.42977  0.78340  0.57640  1.0000
  C   C24       1.0  0.57023  0.28340  0.92360  1.0000
  C   C25       1.0  0.54995  0.11930  0.59910  1.0000
  C   C26       1.0  0.45005  0.61930  0.90090  1.0000
  C   C27       1.0  0.45005  0.88070  0.40090  1.0000
  C   C28       1.0  0.54995  0.38070  0.09910  1.0000
  C   C29       1.0  0.46965  0.17830  0.04810  1.0000
  C   C30       1.0  0.53035  0.67830  0.45190  1.0000
  C   C31       1.0  0.53035  0.82170  0.95190  1.0000
  C   C32       1.0  0.46965  0.32170  0.54810  1.0000
  C   C33       1.0  0.47920  0.13350  0.96890  1.0000
  C   C34       1.0  0.52080  0.63350  0.53110  1.0000
  C   C35       1.0  0.52080  0.86650  0.03110  1.0000
  C   C36       1.0  0.47920  0.36650  0.46890  1.0000
  C   C37       1.0  0.53960  0.09970  0.97000  1.0000
  C   C38       1.0  0.46040  0.59970  0.53000  1.0000
  C   C39       1.0  0.46040  0.90030  0.03000  1.0000
  C   C40       1.0  0.53960  0.40030  0.47000  1.0000
  H   H13       1.0  0.54770  0.06860  0.91700  1.0000
  H   H14       1.0  0.45230  0.56860  0.58300  1.0000
  H   H15       1.0  0.45230  0.93140  0.08300  1.0000
  H   H16       1.0  0.54770  0.43140  0.41700  1.0000
  C   C41       1.0  0.58750  0.11200  0.04940  1.0000
  C   C42       1.0  0.41250  0.61200  0.45060  1.0000
  C   C43       1.0  0.41250  0.88800  0.95060  1.0000
  C   C44       1.0  0.58750  0.38800  0.54940  1.0000
  H   H17       1.0  0.62930  0.08950  0.05150  1.0000
  H   H18       1.0  0.37070  0.58950  0.44850  1.0000
  H   H19       1.0  0.37070  0.91050  0.94850  1.0000
  H   H20       1.0  0.62930  0.41050  0.55150  1.0000
  C   C45       1.0  0.57450  0.15720  0.12580  1.0000
  C   C46       1.0  0.42550  0.65720  0.37420  1.0000
  C   C47       1.0  0.42550  0.84280  0.87420  1.0000
  C   C48       1.0  0.57450  0.34280  0.62580  1.0000
  H   H21       1.0  0.60770  0.16500  0.18040  1.0000
  H   H22       1.0  0.39230  0.66500  0.31960  1.0000
  H   H23       1.0  0.39230  0.83500  0.81960  1.0000
  H   H24       1.0  0.60770  0.33500  0.68040  1.0000
  C   C49       1.0  0.40450  0.21570  0.05510  1.0000
  C   C50       1.0  0.59550  0.71570  0.44490  1.0000
  C   C51       1.0  0.59550  0.78430  0.94490  1.0000
  C   C52       1.0  0.40450  0.28430  0.55510  1.0000
  C   C53       1.0  0.42620  0.11890  0.88300  1.0000
  C   C54       1.0  0.57380  0.61890  0.61700  1.0000
  C   C55       1.0  0.57380  0.88110  0.11700  1.0000
  C   C56       1.0  0.42620  0.38110  0.38300  1.0000
  Mn  Mn5       1.0  0.00435  0.48289  0.24779  1.0000
  Mn  Mn6       1.0  0.99565  0.98289  0.25221  1.0000
  Mn  Mn7       1.0  0.99565  0.51711  0.75221  1.0000
  Mn  Mn8       1.0  0.00435  0.01711  0.74779  1.0000
  O   O33       1.0  0.09085  0.50074  0.35550  1.0000
  O   O34       1.0  0.90915  0.00074  0.14450  1.0000
  O   O35       1.0  0.90915  0.49926  0.64450  1.0000
  O   O36       1.0  0.09085  0.99926  0.85550  1.0000
  O   O37       1.0  0.12742  0.54506  0.50750  1.0000
  O   O38       1.0  0.87258  0.04506  0.99250  1.0000
  O   O39       1.0  0.87258  0.45494  0.49250  1.0000
  O   O40       1.0  0.12742  0.95494  0.00750  1.0000
  O   O41       1.0  0.09402  0.68077  0.60340  1.0000
  O   O42       1.0  0.90598  0.18077  0.89660  1.0000
  O   O43       1.0  0.90598  0.31923  0.39660  1.0000
  O   O44       1.0  0.09402  0.81923  0.10340  1.0000
  O   O45       1.0  0.05571  0.59605  0.69260  1.0000
  O   O46       1.0  0.94429  0.09605  0.80740  1.0000
  O   O47       1.0  0.94429  0.40395  0.30740  1.0000
  O   O48       1.0  0.05571  0.90395  0.19260  1.0000
  O   O49       1.0  0.91537  0.49541  0.14550  1.0000
  O   O50       1.0  0.08463  0.99541  0.35450  1.0000
  O   O51       1.0  0.08463  0.50459  0.85450  1.0000
  O   O52       1.0  0.91537  0.00459  0.64550  1.0000
  O   O53       1.0  0.86763  0.54611  0.00600  1.0000
  O   O54       1.0  0.13237  0.04611  0.49400  1.0000
  O   O55       1.0  0.13237  0.45389  0.99400  1.0000
  O   O56       1.0  0.86763  0.95389  0.50600  1.0000
  O   O57       1.0  0.89354  0.67793  0.90080  1.0000
  O   O58       1.0  0.10646  0.17793  0.59920  1.0000
  O   O59       1.0  0.10646  0.32207  0.09920  1.0000
  O   O60       1.0  0.89354  0.82207  0.40080  1.0000
  O   O61       1.0  0.93052  0.59236  0.81150  1.0000
  O   O62       1.0  0.06948  0.09236  0.68850  1.0000
  O   O63       1.0  0.06948  0.40764  0.18850  1.0000
  O   O64       1.0  0.93052  0.90764  0.31150  1.0000
  N   N9        1.0  0.97231  0.56037  0.36310  1.0000
  N   N10       1.0  0.02769  0.06037  0.13690  1.0000
  N   N11       1.0  0.02769  0.43963  0.63690  1.0000
  N   N12       1.0  0.97231  0.93963  0.86310  1.0000
  N   N13       1.0  0.03007  0.56068  0.12930  1.0000
  N   N14       1.0  0.96993  0.06068  0.37070  1.0000
  N   N15       1.0  0.96993  0.43932  0.87070  1.0000
  N   N16       1.0  0.03007  0.93932  0.62930  1.0000
  C   C57       1.0  0.01816  0.57250  0.44210  1.0000
  C   C58       1.0  0.98184  0.07250  0.05790  1.0000
  C   C59       1.0  0.98184  0.42750  0.55790  1.0000
  C   C60       1.0  0.01816  0.92750  0.94210  1.0000
  C   C61       1.0  0.00619  0.61550  0.52220  1.0000
  C   C62       1.0  0.99381  0.11550  0.97780  1.0000
  C   C63       1.0  0.99381  0.38450  0.47780  1.0000
  C   C64       1.0  0.00619  0.88450  0.02220  1.0000
  C   C65       1.0  0.94480  0.64900  0.51830  1.0000
  C   C66       1.0  0.05520  0.14900  0.98170  1.0000
  C   C67       1.0  0.05520  0.35100  0.48170  1.0000
  C   C68       1.0  0.94480  0.85100  0.01830  1.0000
  H   H25       1.0  0.93510  0.67940  0.57140  1.0000
  H   H26       1.0  0.06490  0.17940  0.92860  1.0000
  H   H27       1.0  0.06490  0.32060  0.42860  1.0000
  H   H28       1.0  0.93510  0.82060  0.07140  1.0000
  C   C69       1.0  0.89870  0.63710  0.43660  1.0000
  C   C70       1.0  0.10130  0.13710  0.06340  1.0000
  C   C71       1.0  0.10130  0.36290  0.56340  1.0000
  C   C72       1.0  0.89870  0.86290  0.93660  1.0000
  H   H29       1.0  0.85710  0.66000  0.43180  1.0000
  H   H30       1.0  0.14290  0.16000  0.06820  1.0000
  H   H31       1.0  0.14290  0.34000  0.56820  1.0000
  H   H32       1.0  0.85710  0.84000  0.93180  1.0000
  C   C73       1.0  0.91379  0.59170  0.36200  1.0000
  C   C74       1.0  0.08621  0.09170  0.13800  1.0000
  C   C75       1.0  0.08621  0.40830  0.63800  1.0000
  C   C76       1.0  0.91379  0.90830  0.86200  1.0000
  H   H33       1.0  0.88100  0.58240  0.30730  1.0000
  H   H34       1.0  0.11900  0.08240  0.19270  1.0000
  H   H35       1.0  0.11900  0.41760  0.69270  1.0000
  H   H36       1.0  0.88100  0.91760  0.80730  1.0000
  C   C77       1.0  0.08421  0.53650  0.43580  1.0000
  C   C78       1.0  0.91579  0.03650  0.06420  1.0000
  C   C79       1.0  0.91579  0.46350  0.56420  1.0000
  C   C80       1.0  0.08421  0.96350  0.93580  1.0000
  C   C81       1.0  0.05688  0.63130  0.61180  1.0000
  C   C82       1.0  0.94312  0.13130  0.88820  1.0000
  C   C83       1.0  0.94312  0.36870  0.38820  1.0000
  C   C84       1.0  0.05688  0.86870  0.11180  1.0000
  C   C85       1.0  0.98011  0.57280  0.05490  1.0000
  C   C86       1.0  0.01989  0.07280  0.44510  1.0000
  C   C87       1.0  0.01989  0.42720  0.94510  1.0000
  C   C88       1.0  0.98011  0.92720  0.55490  1.0000
  C   C89       1.0  0.98701  0.61680  0.97420  1.0000
  C   C90       1.0  0.01299  0.11680  0.52580  1.0000
  C   C91       1.0  0.01299  0.38320  0.02580  1.0000
  C   C92       1.0  0.98701  0.88320  0.47420  1.0000
  C   C93       1.0  0.04730  0.65020  0.96990  1.0000
  C   C94       1.0  0.95270  0.15020  0.53010  1.0000
  C   C95       1.0  0.95270  0.34980  0.03010  1.0000
  C   C96       1.0  0.04730  0.84980  0.46990  1.0000
  H   H37       1.0  0.05350  0.68110  0.91570  1.0000
  H   H38       1.0  0.94650  0.18110  0.58430  1.0000
  H   H39       1.0  0.94650  0.31890  0.08430  1.0000
  H   H40       1.0  0.05350  0.81890  0.41570  1.0000
  C   C97       1.0  0.09800  0.63830  0.04450  1.0000
  C   C98       1.0  0.90200  0.13830  0.45550  1.0000
  C   C99       1.0  0.90200  0.36170  0.95550  1.0000
  C   C100      1.0  0.09800  0.86170  0.54450  1.0000
  H   H41       1.0  0.13970  0.66050  0.04250  1.0000
  H   H42       1.0  0.86030  0.16050  0.45750  1.0000
  H   H43       1.0  0.86030  0.33950  0.95750  1.0000
  H   H44       1.0  0.13970  0.83950  0.54250  1.0000
  C   C101      1.0  0.08720  0.59330  0.12250  1.0000
  C   C102      1.0  0.91280  0.09330  0.37750  1.0000
  C   C103      1.0  0.91280  0.40670  0.87750  1.0000
  C   C104      1.0  0.08720  0.90670  0.62250  1.0000
  H   H45       1.0  0.12250  0.58530  0.17390  1.0000
  H   H46       1.0  0.87750  0.08530  0.32610  1.0000
  H   H47       1.0  0.87750  0.41470  0.82610  1.0000
  H   H48       1.0  0.12250  0.91470  0.67390  1.0000
  C   C105      1.0  0.91588  0.53480  0.07050  1.0000
  C   C106      1.0  0.08412  0.03480  0.42950  1.0000
  C   C107      1.0  0.08412  0.46520  0.92950  1.0000
  C   C108      1.0  0.91588  0.96520  0.57050  1.0000
  C   C109      1.0  0.93150  0.62960  0.89110  1.0000
  C   C110      1.0  0.06850  0.12960  0.60890  1.0000
  C   C111      1.0  0.06850  0.37040  0.10890  1.0000
  C   C112      1.0  0.93150  0.87040  0.39110  1.0000
