data_image0
_chemical_formula_structural       Zn4S32P16O32Na4C4H8C4H8C4H8C4H8C4H8C4H8C4H8C4H8C4H8C4H8C4H8C4H8C4H8C4H8
_chemical_formula_sum              "Zn4 S32 P16 O32 Na4 C56 H112"
_cell_length_a       10.227
_cell_length_b       19.931
_cell_length_c       19.854
_cell_angle_alpha    90
_cell_angle_beta     91.939
_cell_angle_gamma    90

_space_group_name_H-M_alt    "P 1"
_space_group_IT_number       1

loop_
  _space_group_symop_operation_xyz
  'x, y, z'

loop_
  _atom_site_type_symbol
  _atom_site_label
  _atom_site_symmetry_multiplicity
  _atom_site_fract_x
  _atom_site_fract_y
  _atom_site_fract_z
  _atom_site_occupancy
  Zn  Zn1       1.0  0.90445  0.11491  0.80069  1.0000
  Zn  Zn2       1.0  0.09555  0.61491  0.69931  1.0000
  Zn  Zn3       1.0  0.09555  0.88509  0.19931  1.0000
  Zn  Zn4       1.0  0.90445  0.38509  0.30069  1.0000
  S   S1        1.0  0.83787  0.05538  0.89319  1.0000
  S   S2        1.0  0.16213  0.55538  0.60681  1.0000
  S   S3        1.0  0.16213  0.94462  0.10681  1.0000
  S   S4        1.0  0.83787  0.44462  0.39319  1.0000
  S   S5        1.0  0.88792  0.02666  0.72145  1.0000
  S   S6        1.0  0.11208  0.52666  0.77855  1.0000
  S   S7        1.0  0.11208  0.97334  0.27855  1.0000
  S   S8        1.0  0.88792  0.47334  0.22145  1.0000
  S   S9        1.0  0.74798  0.19806  0.78027  1.0000
  S   S10       1.0  0.25202  0.69806  0.71973  1.0000
  S   S11       1.0  0.25202  0.80194  0.21973  1.0000
  S   S12       1.0  0.74798  0.30194  0.28027  1.0000
  S   S13       1.0  0.11930  0.15261  0.80901  1.0000
  S   S14       1.0  0.88070  0.65261  0.69099  1.0000
  S   S15       1.0  0.88070  0.84739  0.19099  1.0000
  S   S16       1.0  0.11930  0.34739  0.30901  1.0000
  S   S17       1.0  0.35788  0.16854  0.92167  1.0000
  S   S18       1.0  0.64212  0.66854  0.57833  1.0000
  S   S19       1.0  0.64212  0.83146  0.07833  1.0000
  S   S20       1.0  0.35788  0.33146  0.42167  1.0000
  S   S21       1.0  0.87557  0.06030  0.05784  1.0000
  S   S22       1.0  0.12443  0.56030  0.44216  1.0000
  S   S23       1.0  0.12443  0.93970  0.94216  1.0000
  S   S24       1.0  0.87557  0.43970  0.55784  1.0000
  S   S25       1.0  0.73505  0.98544  0.57929  1.0000
  S   S26       1.0  0.26495  0.48544  0.92071  1.0000
  S   S27       1.0  0.26495  0.01456  0.42071  1.0000
  S   S28       1.0  0.73505  0.51456  0.07929  1.0000
  S   S29       1.0  0.58748  0.26999  0.65442  1.0000
  S   S30       1.0  0.41252  0.76999  0.84558  1.0000
  S   S31       1.0  0.41252  0.73001  0.34558  1.0000
  S   S32       1.0  0.58748  0.23001  0.15442  1.0000
  P   P1        1.0  0.16688  0.17176  0.90655  1.0000
  P   P2        1.0  0.83312  0.67176  0.59345  1.0000
  P   P3        1.0  0.83312  0.82824  0.09345  1.0000
  P   P4        1.0  0.16688  0.32824  0.40655  1.0000
  P   P5        1.0  0.91204  0.10572  0.97345  1.0000
  P   P6        1.0  0.08796  0.60572  0.52655  1.0000
  P   P7        1.0  0.08796  0.89428  0.02655  1.0000
  P   P8        1.0  0.91204  0.39428  0.47345  1.0000
  P   P9        1.0  0.73021  0.20807  0.67941  1.0000
  P   P10       1.0  0.26979  0.70807  0.82059  1.0000
  P   P11       1.0  0.26979  0.79193  0.32059  1.0000
  P   P12       1.0  0.73021  0.29193  0.17941  1.0000
  P   P13       1.0  0.81589  0.05874  0.63206  1.0000
  P   P14       1.0  0.18411  0.55874  0.86794  1.0000
  P   P15       1.0  0.18411  0.94126  0.36794  1.0000
  P   P16       1.0  0.81589  0.44126  0.13206  1.0000
  O   O1        1.0  0.10780  0.24359  0.92849  1.0000
  O   O2        1.0  0.89220  0.74359  0.57151  1.0000
  O   O3        1.0  0.89220  0.75641  0.07151  1.0000
  O   O4        1.0  0.10780  0.25641  0.42849  1.0000
  O   O5        1.0  0.95310  0.35697  0.91753  1.0000
  O   O6        1.0  0.04690  0.85697  0.58247  1.0000
  O   O7        1.0  0.04690  0.64303  0.08247  1.0000
  O   O8        1.0  0.95310  0.14303  0.41753  1.0000
  O   O9        1.0  0.74250  0.30973  0.98657  1.0000
  O   O10       1.0  0.25750  0.80973  0.51343  1.0000
  O   O11       1.0  0.25750  0.69027  0.01343  1.0000
  O   O12       1.0  0.74250  0.19027  0.48657  1.0000
  O   O13       1.0  0.85740  0.18228  0.97228  1.0000
  O   O14       1.0  0.14260  0.68228  0.52772  1.0000
  O   O15       1.0  0.14260  0.81772  0.02772  1.0000
  O   O16       1.0  0.85740  0.31772  0.47228  1.0000
  O   O17       1.0  0.92900  0.09465  0.59011  1.0000
  O   O18       1.0  0.07100  0.59465  0.90989  1.0000
  O   O19       1.0  0.07100  0.90535  0.40989  1.0000
  O   O20       1.0  0.92900  0.40535  0.09011  1.0000
  O   O21       1.0  0.17120  0.15131  0.57090  1.0000
  O   O22       1.0  0.82880  0.65131  0.92910  1.0000
  O   O23       1.0  0.82880  0.84869  0.42910  1.0000
  O   O24       1.0  0.17120  0.34869  0.07090  1.0000
  O   O25       1.0  0.10660  0.28021  0.60234  1.0000
  O   O26       1.0  0.89340  0.78021  0.89766  1.0000
  O   O27       1.0  0.89340  0.71979  0.39766  1.0000
  O   O28       1.0  0.10660  0.21979  0.10234  1.0000
  O   O29       1.0  0.86860  0.22957  0.64938  1.0000
  O   O30       1.0  0.13140  0.72957  0.85062  1.0000
  O   O31       1.0  0.13140  0.77043  0.35062  1.0000
  O   O32       1.0  0.86860  0.27043  0.14938  1.0000
  Na  Na1       1.0  0.96771  0.28942  0.02605  1.0000
  Na  Na2       1.0  0.03229  0.78942  0.47395  1.0000
  Na  Na3       1.0  0.03229  0.71058  0.97395  1.0000
  Na  Na4       1.0  0.96771  0.21058  0.52605  1.0000
  C   C1        1.0  0.08700  0.11920  0.96750  1.0000
  C   C2        1.0  0.91300  0.61920  0.53250  1.0000
  C   C3        1.0  0.91300  0.88080  0.03250  1.0000
  C   C4        1.0  0.08700  0.38080  0.46750  1.0000
  H   H1        1.0  0.11740  0.13590  0.01230  1.0000
  H   H2        1.0  0.88260  0.63590  0.48770  1.0000
  H   H3        1.0  0.88260  0.86410  0.98770  1.0000
  H   H4        1.0  0.11740  0.36410  0.51230  1.0000
  H   H5        1.0  0.12580  0.07400  0.96260  1.0000
  H   H6        1.0  0.87420  0.57400  0.53740  1.0000
  H   H7        1.0  0.87420  0.92600  0.03740  1.0000
  H   H8        1.0  0.12580  0.42600  0.46260  1.0000
  C   C5        1.0  0.15460  0.30450  0.89650  1.0000
  C   C6        1.0  0.84540  0.80450  0.60350  1.0000
  C   C7        1.0  0.84540  0.69550  0.10350  1.0000
  C   C8        1.0  0.15460  0.19550  0.39650  1.0000
  H   H9        1.0  0.21780  0.29310  0.86160  1.0000
  H   H10       1.0  0.78220  0.79310  0.63840  1.0000
  H   H11       1.0  0.78220  0.70690  0.13840  1.0000
  H   H12       1.0  0.21780  0.20690  0.36160  1.0000
  H   H13       1.0  0.19910  0.33380  0.93050  1.0000
  H   H14       1.0  0.80090  0.83380  0.56950  1.0000
  H   H15       1.0  0.80090  0.66620  0.06950  1.0000
  H   H16       1.0  0.19910  0.16620  0.43050  1.0000
  C   C9        1.0  0.03980  0.33970  0.86540  1.0000
  C   C10       1.0  0.96020  0.83970  0.63460  1.0000
  C   C11       1.0  0.96020  0.66030  0.13460  1.0000
  C   C12       1.0  0.03980  0.16030  0.36540  1.0000
  H   H17       1.0  0.06850  0.38070  0.84200  1.0000
  H   H18       1.0  0.93150  0.88070  0.65800  1.0000
  H   H19       1.0  0.93150  0.61930  0.15800  1.0000
  H   H20       1.0  0.06850  0.11930  0.34200  1.0000
  H   H21       1.0  0.99470  0.31010  0.83200  1.0000
  H   H22       1.0  0.00530  0.81010  0.66800  1.0000
  H   H23       1.0  0.00530  0.68990  0.16800  1.0000
  H   H24       1.0  0.99470  0.18990  0.33200  1.0000
  C   C13       1.0  0.82420  0.37060  0.89120  1.0000
  C   C14       1.0  0.17580  0.87060  0.60880  1.0000
  C   C15       1.0  0.17580  0.62940  0.10880  1.0000
  C   C16       1.0  0.82420  0.12940  0.39120  1.0000
  H   H25       1.0  0.79740  0.33570  0.85800  1.0000
  H   H26       1.0  0.20260  0.83570  0.64200  1.0000
  H   H27       1.0  0.20260  0.66430  0.14200  1.0000
  H   H28       1.0  0.79740  0.16430  0.35800  1.0000
  H   H29       1.0  0.82210  0.41470  0.86830  1.0000
  H   H30       1.0  0.17790  0.91470  0.63170  1.0000
  H   H31       1.0  0.17790  0.58530  0.13170  1.0000
  H   H32       1.0  0.82210  0.08530  0.36830  1.0000
  C   C17       1.0  0.73320  0.37080  0.94820  1.0000
  C   C18       1.0  0.26680  0.87080  0.55180  1.0000
  C   C19       1.0  0.26680  0.62920  0.05180  1.0000
  C   C20       1.0  0.73320  0.12920  0.44820  1.0000
  H   H33       1.0  0.75400  0.40930  0.97820  1.0000
  H   H34       1.0  0.24600  0.90930  0.52180  1.0000
  H   H35       1.0  0.24600  0.59070  0.02180  1.0000
  H   H36       1.0  0.75400  0.09070  0.47820  1.0000
  H   H37       1.0  0.64230  0.37640  0.93030  1.0000
  H   H38       1.0  0.35770  0.87640  0.56970  1.0000
  H   H39       1.0  0.35770  0.62360  0.06970  1.0000
  H   H40       1.0  0.64230  0.12360  0.43030  1.0000
  C   C21       1.0  0.67230  0.25550  0.95510  1.0000
  C   C22       1.0  0.32770  0.75550  0.54490  1.0000
  C   C23       1.0  0.32770  0.74450  0.04490  1.0000
  C   C24       1.0  0.67230  0.24450  0.45510  1.0000
  H   H41       1.0  0.68670  0.25580  0.90600  1.0000
  H   H42       1.0  0.31330  0.75580  0.59400  1.0000
  H   H43       1.0  0.31330  0.74420  0.09400  1.0000
  H   H44       1.0  0.68670  0.24420  0.40600  1.0000
  H   H45       1.0  0.57750  0.26100  0.96190  1.0000
  H   H46       1.0  0.42250  0.76100  0.53810  1.0000
  H   H47       1.0  0.42250  0.73900  0.03810  1.0000
  H   H48       1.0  0.57750  0.23900  0.46190  1.0000
  C   C25       1.0  0.71800  0.19040  0.98470  1.0000
  C   C26       1.0  0.28200  0.69040  0.51530  1.0000
  C   C27       1.0  0.28200  0.80960  0.01530  1.0000
  C   C28       1.0  0.71800  0.30960  0.48470  1.0000
  H   H49       1.0  0.70380  0.18990  0.03380  1.0000
  H   H50       1.0  0.29620  0.68990  0.46620  1.0000
  H   H51       1.0  0.29620  0.81010  0.96620  1.0000
  H   H52       1.0  0.70380  0.31010  0.53380  1.0000
  H   H53       1.0  0.66780  0.15290  0.96380  1.0000
  H   H54       1.0  0.33220  0.65290  0.53620  1.0000
  H   H55       1.0  0.33220  0.84710  0.03620  1.0000
  H   H56       1.0  0.66780  0.34710  0.46380  1.0000
  C   C29       1.0  0.70170  0.12860  0.63620  1.0000
  C   C30       1.0  0.29830  0.62860  0.86380  1.0000
  C   C31       1.0  0.29830  0.87140  0.36380  1.0000
  C   C32       1.0  0.70170  0.37140  0.13620  1.0000
  H   H57       1.0  0.67870  0.14040  0.58880  1.0000
  H   H58       1.0  0.32130  0.64040  0.91120  1.0000
  H   H59       1.0  0.32130  0.85960  0.41120  1.0000
  H   H60       1.0  0.67870  0.35960  0.08880  1.0000
  H   H61       1.0  0.62130  0.10980  0.65530  1.0000
  H   H62       1.0  0.37870  0.60980  0.84470  1.0000
  H   H63       1.0  0.37870  0.89020  0.34470  1.0000
  H   H64       1.0  0.62130  0.39020  0.15530  1.0000
  C   C33       1.0  0.03930  0.05580  0.56800  1.0000
  C   C34       1.0  0.96070  0.55580  0.93200  1.0000
  C   C35       1.0  0.96070  0.94420  0.43200  1.0000
  C   C36       1.0  0.03930  0.44420  0.06800  1.0000
  H   H65       1.0  0.04120  0.05630  0.51820  1.0000
  H   H66       1.0  0.95880  0.55630  0.98180  1.0000
  H   H67       1.0  0.95880  0.94370  0.48180  1.0000
  H   H68       1.0  0.04120  0.44370  0.01820  1.0000
  H   H69       1.0  0.03090  0.00870  0.58300  1.0000
  H   H70       1.0  0.96910  0.50870  0.91700  1.0000
  H   H71       1.0  0.96910  0.99130  0.41700  1.0000
  H   H72       1.0  0.03090  0.49130  0.08300  1.0000
  C   C37       1.0  0.16070  0.08520  0.59690  1.0000
  C   C38       1.0  0.83930  0.58520  0.90310  1.0000
  C   C39       1.0  0.83930  0.91480  0.40310  1.0000
  C   C40       1.0  0.16070  0.41480  0.09690  1.0000
  H   H73       1.0  0.15790  0.08630  0.64670  1.0000
  H   H74       1.0  0.84210  0.58630  0.85330  1.0000
  H   H75       1.0  0.84210  0.91370  0.35330  1.0000
  H   H76       1.0  0.15790  0.41370  0.14670  1.0000
  H   H77       1.0  0.23710  0.05800  0.58420  1.0000
  H   H78       1.0  0.76290  0.55800  0.91580  1.0000
  H   H79       1.0  0.76290  0.94200  0.41580  1.0000
  H   H80       1.0  0.23710  0.44200  0.08420  1.0000
  C   C41       1.0  0.25930  0.18950  0.61420  1.0000
  C   C42       1.0  0.74070  0.68950  0.88580  1.0000
  C   C43       1.0  0.74070  0.81050  0.38580  1.0000
  C   C44       1.0  0.25930  0.31050  0.11420  1.0000
  H   H81       1.0  0.35090  0.17620  0.60660  1.0000
  H   H82       1.0  0.64910  0.67620  0.89340  1.0000
  H   H83       1.0  0.64910  0.82380  0.39340  1.0000
  H   H84       1.0  0.35090  0.32380  0.10660  1.0000
  H   H85       1.0  0.24060  0.18090  0.66200  1.0000
  H   H86       1.0  0.75940  0.68090  0.83800  1.0000
  H   H87       1.0  0.75940  0.81910  0.33800  1.0000
  H   H88       1.0  0.24060  0.31910  0.16200  1.0000
  C   C45       1.0  0.24090  0.26090  0.59860  1.0000
  C   C46       1.0  0.75910  0.76090  0.90140  1.0000
  C   C47       1.0  0.75910  0.73910  0.40140  1.0000
  C   C48       1.0  0.24090  0.23910  0.09860  1.0000
  H   H89       1.0  0.29450  0.28810  0.63080  1.0000
  H   H90       1.0  0.70550  0.78810  0.86920  1.0000
  H   H91       1.0  0.70550  0.71190  0.36920  1.0000
  H   H92       1.0  0.29450  0.21190  0.13080  1.0000
  H   H93       1.0  0.27140  0.27010  0.55270  1.0000
  H   H94       1.0  0.72860  0.77010  0.94730  1.0000
  H   H95       1.0  0.72860  0.72990  0.44730  1.0000
  H   H96       1.0  0.27140  0.22990  0.05270  1.0000
  C   C49       1.0  0.06580  0.29320  0.66950  1.0000
  C   C50       1.0  0.93420  0.79320  0.83050  1.0000
  C   C51       1.0  0.93420  0.70680  0.33050  1.0000
  C   C52       1.0  0.06580  0.20680  0.16950  1.0000
  H   H97       1.0  0.10250  0.33640  0.68570  1.0000
  H   H98       1.0  0.89750  0.83640  0.81430  1.0000
  H   H99       1.0  0.89750  0.66360  0.31430  1.0000
  H   H100      1.0  0.10250  0.16360  0.18570  1.0000
  H   H101      1.0  0.09820  0.25730  0.70020  1.0000
  H   H102      1.0  0.90180  0.75730  0.79980  1.0000
  H   H103      1.0  0.90180  0.74270  0.29980  1.0000
  H   H104      1.0  0.09820  0.24270  0.20020  1.0000
  C   C53       1.0  0.91890  0.29570  0.66920  1.0000
  C   C54       1.0  0.08110  0.79570  0.83080  1.0000
  C   C55       1.0  0.08110  0.70430  0.33080  1.0000
  C   C56       1.0  0.91890  0.20430  0.16920  1.0000
  H   H105      1.0  0.88910  0.30750  0.71460  1.0000
  H   H106      1.0  0.11090  0.80750  0.78540  1.0000
  H   H107      1.0  0.11090  0.69250  0.28540  1.0000
  H   H108      1.0  0.88910  0.19250  0.21460  1.0000
  H   H109      1.0  0.88610  0.33020  0.63690  1.0000
  H   H110      1.0  0.11390  0.83020  0.86310  1.0000
  H   H111      1.0  0.11390  0.66980  0.36310  1.0000
  H   H112      1.0  0.88610  0.16980  0.13690  1.0000
