data_image0
_chemical_formula_structural       Fe2O12C10H2C2H2C2H4C36H2C2H2C2H4C8H2C2H2C6H4C2H4C2H2C2H4C2H2C2H2C2H2C4H2C2H2C4H4O8C2Fe2C2O4Fe4O8C2O10C2H2O2C4O2C4O2C2H2C2H2C6H2C6H2C4H2C6H2C2H2C2H2C2H2C2H2C6H2C6H2C2H2C2H2C2H2C12H2C6H2C2H2C2H2C2H2C2H2C4H2C2H2
_chemical_formula_sum              "Fe8 O48 C192 H96"
_cell_length_a       16.696
_cell_length_b       21.624
_cell_length_c       16.696
_cell_angle_alpha    90
_cell_angle_beta     120
_cell_angle_gamma    90

_space_group_name_H-M_alt    "P 1"
_space_group_IT_number       1

loop_
  _space_group_symop_operation_xyz
  'x, y, z'

loop_
  _atom_site_type_symbol
  _atom_site_label
  _atom_site_symmetry_multiplicity
  _atom_site_fract_x
  _atom_site_fract_y
  _atom_site_fract_z
  _atom_site_occupancy
  Fe  Fe1       1.0  0.43080  0.37470  0.86010  1.0000
  Fe  Fe2       1.0  0.56920  0.87470  0.13990  1.0000
  O   O1        1.0  0.53430  0.41540  0.83210  1.0000
  O   O2        1.0  0.46570  0.91540  0.16790  1.0000
  O   O3        1.0  0.46140  0.33510  0.76180  1.0000
  O   O4        1.0  0.53860  0.83510  0.23820  1.0000
  O   O5        1.0  0.52650  0.33390  0.98680  1.0000
  O   O6        1.0  0.47350  0.83390  0.01320  1.0000
  O   O7        1.0  0.46300  0.41860  0.98750  1.0000
  O   O8        1.0  0.53700  0.91860  0.01250  1.0000
  O   O9        1.0  0.30170  0.41760  0.76210  1.0000
  O   O10       1.0  0.69830  0.91760  0.23790  1.0000
  O   O11       1.0  0.30090  0.33440  0.83820  1.0000
  O   O12       1.0  0.69910  0.83440  0.16180  1.0000
  C   C1        1.0  0.51330  0.37450  0.02890  1.0000
  C   C2        1.0  0.48670  0.87450  0.97110  1.0000
  C   C3        1.0  0.56840  0.37640  0.13030  1.0000
  C   C4        1.0  0.43160  0.87640  0.86970  1.0000
  C   C5        1.0  0.54930  0.42130  0.17910  1.0000
  C   C6        1.0  0.45070  0.92130  0.82090  1.0000
  C   C7        1.0  0.62220  0.32530  0.17830  1.0000
  C   C8        1.0  0.37780  0.82530  0.82170  1.0000
  C   C9        1.0  0.60550  0.42480  0.27540  1.0000
  C   C10       1.0  0.39450  0.92480  0.72460  1.0000
  H   H1        1.0  0.49994  0.44836  0.14789  1.0000
  H   H2        1.0  0.50006  0.94836  0.85211  1.0000
  C   C11       1.0  0.67940  0.32940  0.27450  1.0000
  C   C12       1.0  0.32060  0.82940  0.72550  1.0000
  H   H3        1.0  0.62021  0.28925  0.14699  1.0000
  H   H4        1.0  0.37979  0.78925  0.85301  1.0000
  C   C13       1.0  0.66120  0.37470  0.32330  1.0000
  C   C14       1.0  0.33880  0.87470  0.67670  1.0000
  H   H5        1.0  0.60557  0.46032  0.30698  1.0000
  H   H6        1.0  0.39443  0.96032  0.69302  1.0000
  H   H7        1.0  0.72882  0.30233  0.30556  1.0000
  H   H8        1.0  0.27118  0.80233  0.69444  1.0000
  C   C15       1.0  0.71400  0.37500  0.42490  1.0000
  C   C16       1.0  0.28600  0.87500  0.57510  1.0000
  C   C17       1.0  0.66500  0.37430  0.47420  1.0000
  C   C18       1.0  0.33500  0.87430  0.52580  1.0000
  C   C19       1.0  0.80890  0.37530  0.47300  1.0000
  C   C20       1.0  0.19110  0.87530  0.52700  1.0000
  C   C21       1.0  0.71160  0.37770  0.56850  1.0000
  C   C22       1.0  0.28840  0.87770  0.43150  1.0000
  C   C23       1.0  0.56100  0.36810  0.42120  1.0000
  C   C24       1.0  0.43900  0.86810  0.57880  1.0000
  C   C25       1.0  0.85960  0.37910  0.42240  1.0000
  C   C26       1.0  0.14040  0.87910  0.57760  1.0000
  C   C27       1.0  0.85950  0.37110  0.56920  1.0000
  C   C28       1.0  0.14050  0.87110  0.43080  1.0000
  C   C29       1.0  0.65840  0.38050  0.62020  1.0000
  C   C30       1.0  0.34160  0.88050  0.37980  1.0000
  C   C31       1.0  0.81130  0.37490  0.61710  1.0000
  C   C32       1.0  0.18870  0.87490  0.38290  1.0000
  C   C33       1.0  0.50900  0.32090  0.36800  1.0000
  C   C34       1.0  0.49100  0.82090  0.63200  1.0000
  C   C35       1.0  0.51100  0.42110  0.42350  1.0000
  C   C36       1.0  0.48900  0.92110  0.57650  1.0000
  C   C37       1.0  0.91670  0.32720  0.42450  1.0000
  C   C38       1.0  0.08330  0.82720  0.57550  1.0000
  C   C39       1.0  0.86200  0.42880  0.37300  1.0000
  C   C40       1.0  0.13800  0.92880  0.62700  1.0000
  C   C41       1.0  0.95940  0.36720  0.62070  1.0000
  C   C42       1.0  0.04060  0.86720  0.37930  1.0000
  C   C43       1.0  0.66540  0.42500  0.67160  1.0000
  C   C44       1.0  0.33460  0.92500  0.32840  1.0000
  C   C45       1.0  0.60380  0.32760  0.61680  1.0000
  C   C46       1.0  0.39620  0.82760  0.38320  1.0000
  C   C47       1.0  0.86160  0.37420  0.71860  1.0000
  C   C48       1.0  0.13840  0.87420  0.28140  1.0000
  C   C49       1.0  0.41800  0.31780  0.32200  1.0000
  C   C50       1.0  0.58200  0.81780  0.67800  1.0000
  H   H9        1.0  0.54083  0.28717  0.36258  1.0000
  H   H10       1.0  0.45917  0.78717  0.63742  1.0000
  C   C51       1.0  0.41300  0.42530  0.36950  1.0000
  C   C52       1.0  0.58700  0.92530  0.63050  1.0000
  H   H11       1.0  0.54376  0.45405  0.46185  1.0000
  H   H12       1.0  0.45624  0.95405  0.53815  1.0000
  C   C53       1.0  0.95800  0.32820  0.37370  1.0000
  C   C54       1.0  0.04200  0.82820  0.62630  1.0000
  H   H13       1.0  0.92448  0.29319  0.46180  1.0000
  H   H14       1.0  0.07552  0.79319  0.53820  1.0000
  H   H15       1.0  0.83165  0.46500  0.37283  1.0000
  H   H16       1.0  0.16835  0.96500  0.62717  1.0000
  C   C55       1.0  0.90800  0.42730  0.32100  1.0000
  C   C56       1.0  0.09200  0.92730  0.67900  1.0000
  C   C57       1.0  0.01080  0.32140  0.67290  1.0000
  C   C58       1.0  0.98920  0.82140  0.32710  1.0000
  C   C59       1.0  0.01000  0.41830  0.61460  1.0000
  C   C60       1.0  0.99000  0.91830  0.38540  1.0000
  C   C61       1.0  0.62000  0.42670  0.72250  1.0000
  C   C62       1.0  0.38000  0.92670  0.27750  1.0000
  H   H17       1.0  0.70248  0.45836  0.67590  1.0000
  H   H18       1.0  0.29752  0.95836  0.32410  1.0000
  C   C63       1.0  0.56300  0.32600  0.67050  1.0000
  C   C64       1.0  0.43700  0.82600  0.32950  1.0000
  H   H19       1.0  0.59633  0.29456  0.57809  1.0000
  H   H20       1.0  0.40367  0.79456  0.42191  1.0000
  C   C65       1.0  0.92030  0.42340  0.76680  1.0000
  C   C66       1.0  0.07970  0.92340  0.23320  1.0000
  C   C67       1.0  0.83880  0.33170  0.76750  1.0000
  C   C68       1.0  0.16120  0.83170  0.23250  1.0000
  C   C69       1.0  0.36820  0.36790  0.31830  1.0000
  C   C70       1.0  0.63180  0.86790  0.68170  1.0000
  H   H21       1.0  0.38775  0.28118  0.29356  1.0000
  H   H22       1.0  0.61225  0.78118  0.70644  1.0000
  H   H23       1.0  0.38074  0.46092  0.36644  1.0000
  H   H24       1.0  0.61926  0.96092  0.63356  1.0000
  C   C71       1.0  0.95520  0.38020  0.32450  1.0000
  C   C72       1.0  0.04480  0.88020  0.67550  1.0000
  H   H25       1.0  0.98850  0.29307  0.37117  1.0000
  H   H26       1.0  0.01150  0.79307  0.62883  1.0000
  H   H27       1.0  0.90442  0.46103  0.28501  1.0000
  H   H28       1.0  0.09558  0.96103  0.71499  1.0000
  C   C73       1.0  0.10500  0.32210  0.72200  1.0000
  C   C74       1.0  0.89500  0.82210  0.27800  1.0000
  H   H29       1.0  0.98082  0.28613  0.67648  1.0000
  H   H30       1.0  0.01918  0.78613  0.32352  1.0000
  C   C75       1.0  0.10690  0.42410  0.66840  1.0000
  C   C76       1.0  0.89310  0.92410  0.33160  1.0000
  H   H31       1.0  0.97655  0.44969  0.57287  1.0000
  H   H32       1.0  0.02345  0.94969  0.42713  1.0000
  H   H33       1.0  0.62449  0.46193  0.75647  1.0000
  H   H34       1.0  0.37551  0.96193  0.24353  1.0000
  C   C77       1.0  0.56840  0.37690  0.72350  1.0000
  C   C78       1.0  0.43160  0.87690  0.27650  1.0000
  H   H35       1.0  0.53147  0.29073  0.67131  1.0000
  H   H36       1.0  0.46853  0.79073  0.32869  1.0000
  C   C79       1.0  0.97780  0.41840  0.86280  1.0000
  C   C80       1.0  0.02220  0.91840  0.13720  1.0000
  H   H37       1.0  0.92127  0.45882  0.73570  1.0000
  H   H38       1.0  0.07873  0.95882  0.26430  1.0000
  C   C81       1.0  0.89560  0.32710  0.86370  1.0000
  C   C82       1.0  0.10440  0.82710  0.13630  1.0000
  H   H39       1.0  0.78659  0.30684  0.73649  1.0000
  H   H40       1.0  0.21341  0.80684  0.26351  1.0000
  C   C83       1.0  0.26650  0.37040  0.27040  1.0000
  C   C84       1.0  0.73350  0.87040  0.72960  1.0000
  C   C85       1.0  0.00700  0.37550  0.26940  1.0000
  C   C86       1.0  0.99300  0.87550  0.73060  1.0000
  H   H41       1.0  0.13598  0.28753  0.75699  1.0000
  H   H42       1.0  0.86402  0.78753  0.24301  1.0000
  C   C87       1.0  0.15350  0.37060  0.72160  1.0000
  C   C88       1.0  0.84650  0.87060  0.27840  1.0000
  H   H43       1.0  0.13801  0.45996  0.66915  1.0000
  H   H44       1.0  0.86199  0.95996  0.33085  1.0000
  C   C89       1.0  0.51740  0.37310  0.77390  1.0000
  C   C90       1.0  0.48260  0.87310  0.22610  1.0000
  C   C91       1.0  0.95410  0.37640  0.91160  1.0000
  C   C92       1.0  0.04590  0.87640  0.08840  1.0000
  H   H45       1.0  0.03081  0.44249  0.89367  1.0000
  H   H46       1.0  0.96919  0.94249  0.10633  1.0000
  H   H47       1.0  0.89431  0.29185  0.89502  1.0000
  H   H48       1.0  0.10569  0.79185  0.10498  1.0000
  O   O13       1.0  0.22170  0.41760  0.27800  1.0000
  O   O14       1.0  0.77830  0.91760  0.72200  1.0000
  O   O15       1.0  0.22110  0.33120  0.20970  1.0000
  O   O16       1.0  0.77890  0.83120  0.79030  1.0000
  O   O17       1.0  0.99700  0.42060  0.21850  1.0000
  O   O18       1.0  0.00300  0.92060  0.78150  1.0000
  O   O19       1.0  0.05870  0.33650  0.27780  1.0000
  O   O20       1.0  0.94130  0.83650  0.72220  1.0000
  C   C93       1.0  0.25690  0.37320  0.77350  1.0000
  C   C94       1.0  0.74310  0.87320  0.22650  1.0000
  Fe  Fe3       1.0  0.09080  0.37470  0.18160  1.0000
  Fe  Fe4       1.0  0.90920  0.87470  0.81840  1.0000
  C   C95       1.0  0.00400  0.37160  0.00900  1.0000
  C   C96       1.0  0.99600  0.87160  0.99100  1.0000
  O   O21       1.0  0.99040  0.33530  0.05480  1.0000
  O   O22       1.0  0.00960  0.83530  0.94520  1.0000
  O   O23       1.0  0.06200  0.41640  0.05080  1.0000
  O   O24       1.0  0.93800  0.91640  0.94920  1.0000
  Fe  Fe5       1.0  0.90520  0.62650  0.33990  1.0000
  Fe  Fe6       1.0  0.09480  0.12650  0.66010  1.0000
  Fe  Fe7       1.0  0.56610  0.62270  0.66090  1.0000
  Fe  Fe8       1.0  0.43390  0.12270  0.33910  1.0000
  O   O25       1.0  0.54000  0.58070  0.53590  1.0000
  O   O26       1.0  0.46000  0.08070  0.46410  1.0000
  O   O27       1.0  0.93860  0.67360  0.24360  1.0000
  O   O28       1.0  0.06140  0.17360  0.75640  1.0000
  O   O29       1.0  0.00220  0.67080  0.46670  1.0000
  O   O30       1.0  0.99780  0.17080  0.53330  1.0000
  O   O31       1.0  0.99610  0.58370  0.30560  1.0000
  O   O32       1.0  0.00390  0.08370  0.69440  1.0000
  C   C97       1.0  0.33270  0.62360  0.19700  1.0000
  C   C98       1.0  0.66730  0.12360  0.80300  1.0000
  O   O33       1.0  0.46700  0.66730  0.53590  1.0000
  O   O34       1.0  0.53300  0.16730  0.46410  1.0000
  O   O35       1.0  0.53300  0.66300  0.75700  1.0000
  O   O36       1.0  0.46700  0.16300  0.24300  1.0000
  O   O37       1.0  0.77430  0.67010  0.31920  1.0000
  O   O38       1.0  0.22570  0.17010  0.68080  1.0000
  O   O39       1.0  0.45170  0.58130  0.67910  1.0000
  O   O40       1.0  0.54830  0.08130  0.32090  1.0000
  O   O41       1.0  0.77540  0.59170  0.23840  1.0000
  O   O42       1.0  0.22460  0.09170  0.76160  1.0000
  C   C99       1.0  0.14700  0.67540  0.75530  1.0000
  C   C100      1.0  0.85300  0.17540  0.24470  1.0000
  H   H49       1.0  0.18283  0.70937  0.78745  1.0000
  H   H50       1.0  0.81717  0.20937  0.21255  1.0000
  O   O43       1.0  0.92920  0.58510  0.46330  1.0000
  O   O44       1.0  0.07080  0.08510  0.53670  1.0000
  C   C101      1.0  0.18790  0.62550  0.90460  1.0000
  C   C102      1.0  0.81210  0.12550  0.09540  1.0000
  C   C103      1.0  0.33040  0.62560  0.04380  1.0000
  C   C104      1.0  0.66960  0.12560  0.95620  1.0000
  O   O45       1.0  0.69700  0.58090  0.75900  1.0000
  O   O46       1.0  0.30300  0.08090  0.24100  1.0000
  C   C105      1.0  0.33310  0.62220  0.90390  1.0000
  C   C106      1.0  0.66690  0.12220  0.09610  1.0000
  C   C107      1.0  0.13990  0.62490  0.95360  1.0000
  C   C108      1.0  0.86010  0.12490  0.04640  1.0000
  O   O47       1.0  0.69360  0.66770  0.69750  1.0000
  O   O48       1.0  0.30640  0.16770  0.30250  1.0000
  C   C109      1.0  0.32350  0.67360  0.24510  1.0000
  C   C110      1.0  0.67650  0.17360  0.75490  1.0000
  H   H51       1.0  0.29305  0.70938  0.21381  1.0000
  H   H52       1.0  0.70695  0.20938  0.78619  1.0000
  C   C111      1.0  0.36070  0.66890  0.34090  1.0000
  C   C112      1.0  0.63930  0.16890  0.65910  1.0000
  H   H53       1.0  0.34030  0.69506  0.37127  1.0000
  H   H54       1.0  0.65970  0.19506  0.62873  1.0000
  C   C113      1.0  0.18680  0.62420  0.04670  1.0000
  C   C114      1.0  0.81320  0.12420  0.95330  1.0000
  C   C115      1.0  0.03940  0.62720  0.61050  1.0000
  C   C116      1.0  0.96060  0.12720  0.38950  1.0000
  C   C117      1.0  0.09000  0.56920  0.19900  1.0000
  C   C118      1.0  0.91000  0.06920  0.80100  1.0000
  H   H55       1.0  0.08786  0.53326  0.22802  1.0000
  H   H56       1.0  0.91214  0.03326  0.77198  1.0000
  C   C119      1.0  0.28670  0.62410  0.95490  1.0000
  C   C120      1.0  0.71330  0.12410  0.04510  1.0000
  C   C121      1.0  0.28380  0.62470  0.09810  1.0000
  C   C122      1.0  0.71620  0.12470  0.90190  1.0000
  C   C123      1.0  0.10370  0.67350  0.65880  1.0000
  C   C124      1.0  0.89630  0.17350  0.34120  1.0000
  H   H57       1.0  0.11780  0.70290  0.62711  1.0000
  H   H58       1.0  0.88220  0.20290  0.37289  1.0000
  C   C125      1.0  0.42850  0.62470  0.39010  1.0000
  C   C126      1.0  0.57150  0.12470  0.60990  1.0000
  C   C127      1.0  0.48100  0.68040  0.14700  1.0000
  C   C128      1.0  0.51900  0.18040  0.85300  1.0000
  H   H59       1.0  0.44832  0.71620  0.14284  1.0000
  H   H60       1.0  0.55168  0.21620  0.85716  1.0000
  C   C129      1.0  0.47600  0.61950  0.48900  1.0000
  C   C130      1.0  0.52400  0.11950  0.51100  1.0000
  C   C131      1.0  0.04130  0.62470  0.19860  1.0000
  C   C132      1.0  0.95870  0.12470  0.80140  1.0000
  C   C133      1.0  0.37600  0.56740  0.79990  1.0000
  C   C134      1.0  0.62400  0.06740  0.20010  1.0000
  H   H61       1.0  0.37224  0.53192  0.76696  1.0000
  H   H62       1.0  0.62776  0.03192  0.23304  1.0000
  C   C135      1.0  0.03700  0.67270  0.14430  1.0000
  C   C136      1.0  0.96300  0.17270  0.85570  1.0000
  H   H63       1.0  0.00275  0.70732  0.14085  1.0000
  H   H64       1.0  0.99725  0.20732  0.85915  1.0000
  C   C137      1.0  0.33600  0.56990  0.85120  1.0000
  C   C138      1.0  0.66400  0.06990  0.14880  1.0000
  H   H65       1.0  0.30622  0.53410  0.85374  1.0000
  H   H66       1.0  0.69378  0.03410  0.14626  1.0000
  C   C139      1.0  0.98300  0.67620  0.84730  1.0000
  C   C140      1.0  0.01700  0.17620  0.15270  1.0000
  H   H67       1.0  0.01563  0.71088  0.84580  1.0000
  H   H68       1.0  0.98437  0.21088  0.15420  1.0000
  C   C141      1.0  0.48900  0.57750  0.09900  1.0000
  C   C142      1.0  0.51100  0.07750  0.90100  1.0000
  H   H69       1.0  0.46178  0.54312  0.06173  1.0000
  H   H70       1.0  0.53822  0.04312  0.93827  1.0000
  C   C143      1.0  0.13620  0.62610  0.80370  1.0000
  C   C144      1.0  0.86380  0.12610  0.19630  1.0000
  C   C145      1.0  0.42470  0.62200  0.79680  1.0000
  C   C146      1.0  0.57530  0.12200  0.20320  1.0000
  C   C147      1.0  0.02820  0.57840  0.65890  1.0000
  C   C148      1.0  0.97180  0.07840  0.34110  1.0000
  H   H71       1.0  0.99606  0.54297  0.62770  1.0000
  H   H72       1.0  0.00394  0.04297  0.37230  1.0000
  C   C149      1.0  0.99300  0.62280  0.25070  1.0000
  C   C150      1.0  0.00700  0.12280  0.74930  1.0000
  C   C151      1.0  0.98120  0.62600  0.50700  1.0000
  C   C152      1.0  0.01880  0.12600  0.49300  1.0000
  C   C153      1.0  0.88980  0.67700  0.79740  1.0000
  C   C154      1.0  0.11020  0.17700  0.20260  1.0000
  H   H73       1.0  0.85780  0.71066  0.76067  1.0000
  H   H74       1.0  0.14220  0.21066  0.23933  1.0000
  C   C155      1.0  0.57700  0.67870  0.20110  1.0000
  C   C156      1.0  0.42300  0.17870  0.79890  1.0000
  H   H75       1.0  0.60822  0.71275  0.23744  1.0000
  H   H76       1.0  0.39178  0.21275  0.76256  1.0000
  C   C157      1.0  0.98600  0.57580  0.90700  1.0000
  C   C158      1.0  0.01400  0.07580  0.09300  1.0000
  H   H77       1.0  0.01613  0.54112  0.94178  1.0000
  H   H78       1.0  0.98387  0.04112  0.05822  1.0000
  C   C159      1.0  0.44270  0.57690  0.34210  1.0000
  C   C160      1.0  0.55730  0.07690  0.65790  1.0000
  H   H79       1.0  0.48038  0.54360  0.37433  1.0000
  H   H80       1.0  0.51962  0.04360  0.62567  1.0000
  C   C161      1.0  0.73760  0.62510  0.74910  1.0000
  C   C162      1.0  0.26240  0.12510  0.25090  1.0000
  C   C163      1.0  0.73200  0.62890  0.25540  1.0000
  C   C164      1.0  0.26800  0.12890  0.74460  1.0000
  C   C165      1.0  0.47420  0.61800  0.74650  1.0000
  C   C166      1.0  0.52580  0.11800  0.25350  1.0000
  C   C167      1.0  0.43260  0.62390  0.09650  1.0000
  C   C168      1.0  0.56740  0.12390  0.90350  1.0000
  C   C169      1.0  0.62800  0.62750  0.20220  1.0000
  C   C170      1.0  0.37200  0.12750  0.79780  1.0000
  C   C171      1.0  0.43700  0.67120  0.85320  1.0000
  C   C172      1.0  0.56300  0.17120  0.14680  1.0000
  H   H81       1.0  0.47656  0.70348  0.86032  1.0000
  H   H82       1.0  0.52344  0.20348  0.13968  1.0000
  C   C173      1.0  0.03430  0.62490  0.90190  1.0000
  C   C174      1.0  0.96570  0.12490  0.09810  1.0000
  C   C175      1.0  0.84180  0.62300  0.80360  1.0000
  C   C176      1.0  0.15820  0.12300  0.19640  1.0000
  C   C177      1.0  0.38600  0.67100  0.90000  1.0000
  C   C178      1.0  0.61400  0.17100  0.10000  1.0000
  H   H83       1.0  0.38788  0.70699  0.93147  1.0000
  H   H84       1.0  0.61212  0.20699  0.06853  1.0000
  C   C179      1.0  0.89100  0.57900  0.85820  1.0000
  C   C180      1.0  0.10900  0.07900  0.14180  1.0000
  H   H85       1.0  0.85885  0.54631  0.86554  1.0000
  H   H86       1.0  0.14115  0.04631  0.13446  1.0000
  C   C181      1.0  0.58300  0.57840  0.15300  1.0000
  C   C182      1.0  0.41700  0.07840  0.84700  1.0000
  H   H87       1.0  0.61648  0.54354  0.15428  1.0000
  H   H88       1.0  0.38352  0.04354  0.84572  1.0000
  C   C183      1.0  0.06580  0.58320  0.75480  1.0000
  C   C184      1.0  0.93420  0.08320  0.24520  1.0000
  H   H89       1.0  0.04417  0.55822  0.78534  1.0000
  H   H90       1.0  0.95583  0.05822  0.21466  1.0000
  C   C185      1.0  0.40030  0.57900  0.24560  1.0000
  C   C186      1.0  0.59970  0.07900  0.75440  1.0000
  H   H91       1.0  0.41704  0.55107  0.21419  1.0000
  H   H92       1.0  0.58296  0.05107  0.78581  1.0000
  C   C187      1.0  0.13400  0.62520  0.09800  1.0000
  C   C188      1.0  0.86600  0.12520  0.90200  1.0000
  C   C189      1.0  0.13900  0.57180  0.15460  1.0000
  C   C190      1.0  0.86100  0.07180  0.84540  1.0000
  H   H93       1.0  0.17662  0.53871  0.16006  1.0000
  H   H94       1.0  0.82338  0.03871  0.83994  1.0000
  C   C191      1.0  0.08100  0.67270  0.09580  1.0000
  C   C192      1.0  0.91900  0.17270  0.90420  1.0000
  H   H95       1.0  0.07414  0.70671  0.05895  1.0000
  H   H96       1.0  0.92586  0.20671  0.94105  1.0000
