data_image0
_chemical_formula_structural       Dy4Mg4O8N4C8O8N8C8H8O8N8C4H4O8C8N8H8O8C8O8C8H8O8H16C8H8C8H8C32H8C8H8C8H8
_chemical_formula_sum              "Dy4 Mg4 O56 N28 C108 H84"
_cell_length_a       17.873
_cell_length_b       11.325
_cell_length_c       19.417
_cell_angle_alpha    90
_cell_angle_beta     109.302
_cell_angle_gamma    90

_space_group_name_H-M_alt    "P 1"
_space_group_IT_number       1

loop_
  _space_group_symop_operation_xyz
  'x, y, z'

loop_
  _atom_site_type_symbol
  _atom_site_label
  _atom_site_symmetry_multiplicity
  _atom_site_fract_x
  _atom_site_fract_y
  _atom_site_fract_z
  _atom_site_occupancy
  Dy  Dy1       1.0  0.50000  0.57388  0.25000  1.0000
  Dy  Dy2       1.0  0.00000  0.07388  0.25000  1.0000
  Dy  Dy3       1.0  0.50000  0.42612  0.75000  1.0000
  Dy  Dy4       1.0  0.00000  0.92612  0.75000  1.0000
  Mg  Mg1       1.0  0.75000  0.75000  0.50000  1.0000
  Mg  Mg2       1.0  0.25000  0.75000  0.00000  1.0000
  Mg  Mg3       1.0  0.25000  0.25000  0.50000  1.0000
  Mg  Mg4       1.0  0.75000  0.25000  0.00000  1.0000
  O   O1        1.0  0.60792  0.66660  0.34195  1.0000
  O   O2        1.0  0.39208  0.66660  0.15805  1.0000
  O   O3        1.0  0.10792  0.16660  0.34195  1.0000
  O   O4        1.0  0.89208  0.16660  0.15805  1.0000
  O   O5        1.0  0.39208  0.33340  0.65805  1.0000
  O   O6        1.0  0.60792  0.33340  0.84195  1.0000
  O   O7        1.0  0.89208  0.83340  0.65805  1.0000
  O   O8        1.0  0.10792  0.83340  0.84195  1.0000
  N   N1        1.0  0.50000  0.79560  0.25000  1.0000
  N   N2        1.0  0.00000  0.29560  0.25000  1.0000
  N   N3        1.0  0.50000  0.20440  0.75000  1.0000
  N   N4        1.0  0.00000  0.70440  0.75000  1.0000
  C   C1        1.0  0.55520  0.85470  0.30170  1.0000
  C   C2        1.0  0.44480  0.85470  0.19830  1.0000
  C   C3        1.0  0.05520  0.35470  0.30170  1.0000
  C   C4        1.0  0.94480  0.35470  0.19830  1.0000
  C   C5        1.0  0.44480  0.14530  0.69830  1.0000
  C   C6        1.0  0.55520  0.14530  0.80170  1.0000
  C   C7        1.0  0.94480  0.64530  0.69830  1.0000
  C   C8        1.0  0.05520  0.64530  0.80170  1.0000
  O   O9        1.0  0.66252  0.82270  0.41069  1.0000
  O   O10       1.0  0.33748  0.82270  0.08931  1.0000
  O   O11       1.0  0.16252  0.32270  0.41069  1.0000
  O   O12       1.0  0.83748  0.32270  0.08931  1.0000
  O   O13       1.0  0.33748  0.17730  0.58931  1.0000
  O   O14       1.0  0.66252  0.17730  0.91069  1.0000
  O   O15       1.0  0.83748  0.67730  0.58931  1.0000
  O   O16       1.0  0.16252  0.67730  0.91069  1.0000
  N   N5        1.0  0.37630  0.47140  0.24480  1.0000
  N   N6        1.0  0.62370  0.47140  0.25520  1.0000
  N   N7        1.0  0.87630  0.97140  0.24480  1.0000
  N   N8        1.0  0.12370  0.97140  0.25520  1.0000
  N   N9        1.0  0.62370  0.52860  0.75520  1.0000
  N   N10       1.0  0.37630  0.52860  0.74480  1.0000
  N   N11       1.0  0.12370  0.02860  0.75520  1.0000
  N   N12       1.0  0.87630  0.02860  0.74480  1.0000
  C   C9        1.0  0.55740  0.97750  0.30360  1.0000
  C   C10       1.0  0.44260  0.97750  0.19640  1.0000
  C   C11       1.0  0.05740  0.47750  0.30360  1.0000
  C   C12       1.0  0.94260  0.47750  0.19640  1.0000
  C   C13       1.0  0.44260  0.02250  0.69640  1.0000
  C   C14       1.0  0.55740  0.02250  0.80360  1.0000
  C   C15       1.0  0.94260  0.52250  0.69640  1.0000
  C   C16       1.0  0.05740  0.52250  0.80360  1.0000
  H   H1        1.0  0.59720  0.01856  0.34061  1.0000
  H   H2        1.0  0.40280  0.01856  0.15939  1.0000
  H   H3        1.0  0.09720  0.51856  0.34061  1.0000
  H   H4        1.0  0.90280  0.51856  0.15939  1.0000
  H   H5        1.0  0.40280  0.98144  0.65939  1.0000
  H   H6        1.0  0.59720  0.98144  0.84061  1.0000
  H   H7        1.0  0.90280  0.48144  0.65939  1.0000
  H   H8        1.0  0.09720  0.48144  0.84061  1.0000
  O   O17       1.0  0.44118  0.63990  0.33685  1.0000
  O   O18       1.0  0.55882  0.63990  0.16315  1.0000
  O   O19       1.0  0.94118  0.13990  0.33685  1.0000
  O   O20       1.0  0.05882  0.13990  0.16315  1.0000
  O   O21       1.0  0.55882  0.36010  0.66315  1.0000
  O   O22       1.0  0.44118  0.36010  0.83685  1.0000
  O   O23       1.0  0.05882  0.86010  0.66315  1.0000
  O   O24       1.0  0.94118  0.86010  0.83685  1.0000
  N   N13       1.0  0.83420  0.75650  0.44000  1.0000
  N   N14       1.0  0.16580  0.75650  0.06000  1.0000
  N   N15       1.0  0.33420  0.25650  0.44000  1.0000
  N   N16       1.0  0.66580  0.25650  0.06000  1.0000
  N   N17       1.0  0.16580  0.24350  0.56000  1.0000
  N   N18       1.0  0.83420  0.24350  0.94000  1.0000
  N   N19       1.0  0.66580  0.74350  0.56000  1.0000
  N   N20       1.0  0.33420  0.74350  0.94000  1.0000
  C   C17       1.0  0.50000  0.03730  0.25000  1.0000
  C   C18       1.0  0.00000  0.53730  0.25000  1.0000
  C   C19       1.0  0.50000  0.96270  0.75000  1.0000
  C   C20       1.0  0.00000  0.46270  0.75000  1.0000
  H   H9        1.0  0.50000  0.12115  0.25000  1.0000
  H   H10       1.0  0.00000  0.62115  0.25000  1.0000
  H   H11       1.0  0.50000  0.87885  0.75000  1.0000
  H   H12       1.0  0.00000  0.37885  0.75000  1.0000
  O   O25       1.0  0.34990  0.62780  0.39079  1.0000
  O   O26       1.0  0.65010  0.62780  0.10921  1.0000
  O   O27       1.0  0.84990  0.12780  0.39079  1.0000
  O   O28       1.0  0.15010  0.12780  0.10921  1.0000
  O   O29       1.0  0.65010  0.37220  0.60921  1.0000
  O   O30       1.0  0.34990  0.37220  0.89079  1.0000
  O   O31       1.0  0.15010  0.87220  0.60921  1.0000
  O   O32       1.0  0.84990  0.87220  0.89079  1.0000
  C   C21       1.0  0.61360  0.77560  0.35620  1.0000
  C   C22       1.0  0.38640  0.77560  0.14380  1.0000
  C   C23       1.0  0.11360  0.27560  0.35620  1.0000
  C   C24       1.0  0.88640  0.27560  0.14380  1.0000
  C   C25       1.0  0.38640  0.22440  0.64380  1.0000
  C   C26       1.0  0.61360  0.22440  0.85620  1.0000
  C   C27       1.0  0.88640  0.72440  0.64380  1.0000
  C   C28       1.0  0.11360  0.72440  0.85620  1.0000
  N   N21       1.0  0.93070  0.80500  0.39920  1.0000
  N   N22       1.0  0.06930  0.80500  0.10080  1.0000
  N   N23       1.0  0.43070  0.30500  0.39920  1.0000
  N   N24       1.0  0.56930  0.30500  0.10080  1.0000
  N   N25       1.0  0.06930  0.19500  0.60080  1.0000
  N   N26       1.0  0.93070  0.19500  0.89920  1.0000
  N   N27       1.0  0.56930  0.69500  0.60080  1.0000
  N   N28       1.0  0.43070  0.69500  0.89920  1.0000
  H   H13       1.0  0.97152  0.84321  0.39429  1.0000
  H   H14       1.0  0.02848  0.84321  0.10571  1.0000
  H   H15       1.0  0.47152  0.34321  0.39429  1.0000
  H   H16       1.0  0.52848  0.34321  0.10571  1.0000
  H   H17       1.0  0.02848  0.15679  0.60571  1.0000
  H   H18       1.0  0.97152  0.15679  0.89429  1.0000
  H   H19       1.0  0.52848  0.65679  0.60571  1.0000
  H   H20       1.0  0.47152  0.65679  0.89429  1.0000
  O   O33       1.0  0.45991  0.41720  0.16145  1.0000
  O   O34       1.0  0.54009  0.41720  0.33855  1.0000
  O   O35       1.0  0.95991  0.91720  0.16145  1.0000
  O   O36       1.0  0.04009  0.91720  0.33855  1.0000
  O   O37       1.0  0.54009  0.58280  0.83855  1.0000
  O   O38       1.0  0.45991  0.58280  0.66145  1.0000
  O   O39       1.0  0.04009  0.08280  0.83855  1.0000
  O   O40       1.0  0.95991  0.08280  0.66145  1.0000
  C   C29       1.0  0.33640  0.50460  0.28890  1.0000
  C   C30       1.0  0.66360  0.50460  0.21110  1.0000
  C   C31       1.0  0.83640  0.00460  0.28890  1.0000
  C   C32       1.0  0.16360  0.00460  0.21110  1.0000
  C   C33       1.0  0.66360  0.49540  0.71110  1.0000
  C   C34       1.0  0.33640  0.49540  0.78890  1.0000
  C   C35       1.0  0.16360  0.99540  0.71110  1.0000
  C   C36       1.0  0.83640  0.99540  0.78890  1.0000
  O   O41       1.0  0.38410  0.26320  0.11320  1.0000
  O   O42       1.0  0.61590  0.26320  0.38680  1.0000
  O   O43       1.0  0.88410  0.76320  0.11320  1.0000
  O   O44       1.0  0.11590  0.76320  0.38680  1.0000
  O   O45       1.0  0.61590  0.73680  0.88680  1.0000
  O   O46       1.0  0.38410  0.73680  0.61320  1.0000
  O   O47       1.0  0.11590  0.23680  0.88680  1.0000
  O   O48       1.0  0.88410  0.23680  0.61320  1.0000
  C   C37       1.0  0.26400  0.45580  0.28420  1.0000
  C   C38       1.0  0.73600  0.45580  0.21580  1.0000
  C   C39       1.0  0.76400  0.95580  0.28420  1.0000
  C   C40       1.0  0.23600  0.95580  0.21580  1.0000
  C   C41       1.0  0.73600  0.54420  0.71580  1.0000
  C   C42       1.0  0.26400  0.54420  0.78420  1.0000
  C   C43       1.0  0.23600  0.04420  0.71580  1.0000
  C   C44       1.0  0.76400  0.04420  0.78420  1.0000
  H   H21       1.0  0.23698  0.47956  0.31662  1.0000
  H   H22       1.0  0.76302  0.47956  0.18338  1.0000
  H   H23       1.0  0.73698  0.97956  0.31662  1.0000
  H   H24       1.0  0.26302  0.97956  0.18338  1.0000
  H   H25       1.0  0.76302  0.52044  0.68338  1.0000
  H   H26       1.0  0.23698  0.52044  0.81662  1.0000
  H   H27       1.0  0.26302  0.02044  0.68338  1.0000
  H   H28       1.0  0.73698  0.02044  0.81662  1.0000
  O   O49       1.0  0.72100  0.58260  0.46234  1.0000
  O   O50       1.0  0.27900  0.58260  0.03766  1.0000
  O   O51       1.0  0.22100  0.08260  0.46234  1.0000
  O   O52       1.0  0.77900  0.08260  0.03766  1.0000
  O   O53       1.0  0.27900  0.41740  0.53766  1.0000
  O   O54       1.0  0.72100  0.41740  0.96234  1.0000
  O   O55       1.0  0.77900  0.91740  0.53766  1.0000
  O   O56       1.0  0.22100  0.91740  0.96234  1.0000
  H   H29       1.0  0.67514  0.58208  0.42997  1.0000
  H   H30       1.0  0.32486  0.58208  0.07003  1.0000
  H   H31       1.0  0.17514  0.08208  0.42997  1.0000
  H   H32       1.0  0.82486  0.08208  0.07003  1.0000
  H   H33       1.0  0.32486  0.41792  0.57003  1.0000
  H   H34       1.0  0.67514  0.41792  0.92997  1.0000
  H   H35       1.0  0.82486  0.91792  0.57003  1.0000
  H   H36       1.0  0.17514  0.91792  0.92997  1.0000
  H   H37       1.0  0.71595  0.53972  0.49663  1.0000
  H   H38       1.0  0.28405  0.53972  0.00337  1.0000
  H   H39       1.0  0.21595  0.03972  0.49663  1.0000
  H   H40       1.0  0.78405  0.03972  0.00337  1.0000
  H   H41       1.0  0.28405  0.46028  0.50337  1.0000
  H   H42       1.0  0.71595  0.46028  0.99663  1.0000
  H   H43       1.0  0.78405  0.96028  0.50337  1.0000
  H   H44       1.0  0.21595  0.96028  0.99663  1.0000
  C   C45       1.0  0.23190  0.37160  0.23120  1.0000
  C   C46       1.0  0.76810  0.37160  0.26880  1.0000
  C   C47       1.0  0.73190  0.87160  0.23120  1.0000
  C   C48       1.0  0.26810  0.87160  0.26880  1.0000
  C   C49       1.0  0.76810  0.62840  0.76880  1.0000
  C   C50       1.0  0.23190  0.62840  0.73120  1.0000
  C   C51       1.0  0.26810  0.12840  0.76880  1.0000
  C   C52       1.0  0.73190  0.12840  0.73120  1.0000
  H   H45       1.0  0.18115  0.33896  0.22512  1.0000
  H   H46       1.0  0.81885  0.33896  0.27488  1.0000
  H   H47       1.0  0.68115  0.83896  0.22512  1.0000
  H   H48       1.0  0.31885  0.83896  0.27488  1.0000
  H   H49       1.0  0.81885  0.66104  0.77488  1.0000
  H   H50       1.0  0.18115  0.66104  0.72512  1.0000
  H   H51       1.0  0.31885  0.16104  0.77488  1.0000
  H   H52       1.0  0.68115  0.16104  0.72512  1.0000
  C   C53       1.0  0.27410  0.33560  0.18730  1.0000
  C   C54       1.0  0.72590  0.33560  0.31270  1.0000
  C   C55       1.0  0.77410  0.83560  0.18730  1.0000
  C   C56       1.0  0.22590  0.83560  0.31270  1.0000
  C   C57       1.0  0.72590  0.66440  0.81270  1.0000
  C   C58       1.0  0.27410  0.66440  0.68730  1.0000
  C   C59       1.0  0.22590  0.16440  0.81270  1.0000
  C   C60       1.0  0.77410  0.16440  0.68730  1.0000
  H   H53       1.0  0.25331  0.27627  0.15145  1.0000
  H   H54       1.0  0.74669  0.27627  0.34855  1.0000
  H   H55       1.0  0.75331  0.77627  0.15145  1.0000
  H   H56       1.0  0.24669  0.77627  0.34855  1.0000
  H   H57       1.0  0.74669  0.72373  0.84855  1.0000
  H   H58       1.0  0.25331  0.72373  0.65145  1.0000
  H   H59       1.0  0.24669  0.22373  0.84855  1.0000
  H   H60       1.0  0.75331  0.22373  0.65145  1.0000
  C   C61       1.0  0.34690  0.38620  0.19550  1.0000
  C   C62       1.0  0.65310  0.38620  0.30450  1.0000
  C   C63       1.0  0.84690  0.88620  0.19550  1.0000
  C   C64       1.0  0.15310  0.88620  0.30450  1.0000
  C   C65       1.0  0.65310  0.61380  0.80450  1.0000
  C   C66       1.0  0.34690  0.61380  0.69550  1.0000
  C   C67       1.0  0.15310  0.11380  0.80450  1.0000
  C   C68       1.0  0.84690  0.11380  0.69550  1.0000
  C   C69       1.0  0.37890  0.59800  0.34380  1.0000
  C   C70       1.0  0.62110  0.59800  0.15620  1.0000
  C   C71       1.0  0.87890  0.09800  0.34380  1.0000
  C   C72       1.0  0.12110  0.09800  0.15620  1.0000
  C   C73       1.0  0.62110  0.40200  0.65620  1.0000
  C   C74       1.0  0.37890  0.40200  0.84380  1.0000
  C   C75       1.0  0.12110  0.90200  0.65620  1.0000
  C   C76       1.0  0.87890  0.90200  0.84380  1.0000
  C   C77       1.0  0.40000  0.35150  0.15200  1.0000
  C   C78       1.0  0.60000  0.35150  0.34800  1.0000
  C   C79       1.0  0.90000  0.85150  0.15200  1.0000
  C   C80       1.0  0.10000  0.85150  0.34800  1.0000
  C   C81       1.0  0.60000  0.64850  0.84800  1.0000
  C   C82       1.0  0.40000  0.64850  0.65200  1.0000
  C   C83       1.0  0.10000  0.14850  0.84800  1.0000
  C   C84       1.0  0.90000  0.14850  0.65200  1.0000
  C   C85       1.0  0.89330  0.83090  0.44640  1.0000
  C   C86       1.0  0.10670  0.83090  0.05360  1.0000
  C   C87       1.0  0.39330  0.33090  0.44640  1.0000
  C   C88       1.0  0.60670  0.33090  0.05360  1.0000
  C   C89       1.0  0.10670  0.16910  0.55360  1.0000
  C   C90       1.0  0.89330  0.16910  0.94640  1.0000
  C   C91       1.0  0.60670  0.66910  0.55360  1.0000
  C   C92       1.0  0.39330  0.66910  0.94640  1.0000
  H   H61       1.0  0.90728  0.89442  0.48027  1.0000
  H   H62       1.0  0.09272  0.89442  0.01973  1.0000
  H   H63       1.0  0.40728  0.39442  0.48027  1.0000
  H   H64       1.0  0.59272  0.39442  0.01973  1.0000
  H   H65       1.0  0.09272  0.10558  0.51973  1.0000
  H   H66       1.0  0.90728  0.10558  0.98027  1.0000
  H   H67       1.0  0.59272  0.60558  0.51973  1.0000
  H   H68       1.0  0.40728  0.60558  0.98027  1.0000
  C   C93       1.0  0.89520  0.71010  0.36060  1.0000
  C   C94       1.0  0.10480  0.71010  0.13940  1.0000
  C   C95       1.0  0.39520  0.21010  0.36060  1.0000
  C   C96       1.0  0.60480  0.21010  0.13940  1.0000
  C   C97       1.0  0.10480  0.28990  0.63940  1.0000
  C   C98       1.0  0.89520  0.28990  0.86060  1.0000
  C   C99       1.0  0.60480  0.78990  0.63940  1.0000
  C   C100      1.0  0.39520  0.78990  0.86060  1.0000
  H   H69       1.0  0.90907  0.67157  0.32304  1.0000
  H   H70       1.0  0.09093  0.67157  0.17696  1.0000
  H   H71       1.0  0.40907  0.17157  0.32304  1.0000
  H   H72       1.0  0.59093  0.17157  0.17696  1.0000
  H   H73       1.0  0.09093  0.32843  0.67696  1.0000
  H   H74       1.0  0.90907  0.32843  0.82304  1.0000
  H   H75       1.0  0.59093  0.82843  0.67696  1.0000
  H   H76       1.0  0.40907  0.82843  0.82304  1.0000
  C   C101      1.0  0.83510  0.68020  0.38600  1.0000
  C   C102      1.0  0.16490  0.68020  0.11400  1.0000
  C   C103      1.0  0.33510  0.18020  0.38600  1.0000
  C   C104      1.0  0.66490  0.18020  0.11400  1.0000
  C   C105      1.0  0.16490  0.31980  0.61400  1.0000
  C   C106      1.0  0.83510  0.31980  0.88600  1.0000
  C   C107      1.0  0.66490  0.81980  0.61400  1.0000
  C   C108      1.0  0.33510  0.81980  0.88600  1.0000
  H   H77       1.0  0.79946  0.61615  0.36874  1.0000
  H   H78       1.0  0.20054  0.61615  0.13126  1.0000
  H   H79       1.0  0.29946  0.11615  0.36874  1.0000
  H   H80       1.0  0.70054  0.11615  0.13126  1.0000
  H   H81       1.0  0.20054  0.38385  0.63126  1.0000
  H   H82       1.0  0.79946  0.38385  0.86874  1.0000
  H   H83       1.0  0.70054  0.88385  0.63126  1.0000
  H   H84       1.0  0.29946  0.88385  0.86874  1.0000
