data_image0
_chemical_formula_structural       C40H8C8H8N16Cu4
_chemical_formula_sum              "C48 H16 N16 Cu4"
_cell_length_a       9.7563
_cell_length_b       11.2413
_cell_length_c       21.5957
_cell_angle_alpha    90
_cell_angle_beta     90
_cell_angle_gamma    90

_space_group_name_H-M_alt    "P 1"
_space_group_IT_number       1

loop_
  _space_group_symop_operation_xyz
  'x, y, z'

loop_
  _atom_site_type_symbol
  _atom_site_label
  _atom_site_symmetry_multiplicity
  _atom_site_fract_x
  _atom_site_fract_y
  _atom_site_fract_z
  _atom_site_occupancy
  C   C1        1.0  0.10570  0.94070  0.33258  1.0000
  C   C2        1.0  0.39430  0.55930  0.33258  1.0000
  C   C3        1.0  0.89430  0.44070  0.16742  1.0000
  C   C4        1.0  0.60570  0.05930  0.16742  1.0000
  C   C5        1.0  0.89430  0.05930  0.66742  1.0000
  C   C6        1.0  0.60570  0.44070  0.66742  1.0000
  C   C7        1.0  0.10570  0.55930  0.83258  1.0000
  C   C8        1.0  0.39430  0.94070  0.83258  1.0000
  C   C9        1.0  0.02560  0.01990  0.36700  1.0000
  C   C10       1.0  0.47440  0.48010  0.36700  1.0000
  C   C11       1.0  0.97440  0.51990  0.13300  1.0000
  C   C12       1.0  0.52560  0.98010  0.13300  1.0000
  C   C13       1.0  0.97440  0.98010  0.63300  1.0000
  C   C14       1.0  0.52560  0.51990  0.63300  1.0000
  C   C15       1.0  0.02560  0.48010  0.86700  1.0000
  C   C16       1.0  0.47440  0.01990  0.86700  1.0000
  C   C17       1.0  0.95240  0.10400  0.33329  1.0000
  C   C18       1.0  0.54760  0.39600  0.33329  1.0000
  C   C19       1.0  0.04760  0.60400  0.16671  1.0000
  C   C20       1.0  0.45240  0.89600  0.16671  1.0000
  C   C21       1.0  0.04760  0.89600  0.66671  1.0000
  C   C22       1.0  0.45240  0.60400  0.66671  1.0000
  C   C23       1.0  0.95240  0.39600  0.83329  1.0000
  C   C24       1.0  0.54760  0.10400  0.83329  1.0000
  C   C25       1.0  0.01200  0.00930  0.43475  1.0000
  C   C26       1.0  0.48800  0.49070  0.43475  1.0000
  C   C27       1.0  0.98800  0.50930  0.06525  1.0000
  C   C28       1.0  0.51200  0.99070  0.06525  1.0000
  C   C29       1.0  0.98800  0.99070  0.56525  1.0000
  C   C30       1.0  0.51200  0.50930  0.56525  1.0000
  C   C31       1.0  0.01200  0.49070  0.93475  1.0000
  C   C32       1.0  0.48800  0.00930  0.93475  1.0000
  C   C33       1.0  0.08410  0.92310  0.46788  1.0000
  C   C34       1.0  0.41590  0.57690  0.46788  1.0000
  C   C35       1.0  0.91590  0.42310  0.03212  1.0000
  C   C36       1.0  0.58410  0.07690  0.03212  1.0000
  C   C37       1.0  0.91590  0.07690  0.53212  1.0000
  C   C38       1.0  0.58410  0.42310  0.53212  1.0000
  C   C39       1.0  0.08410  0.57690  0.96788  1.0000
  C   C40       1.0  0.41590  0.92310  0.96788  1.0000
  H   H1        1.0  0.14110  0.87060  0.44670  1.0000
  H   H2        1.0  0.35890  0.62940  0.44670  1.0000
  H   H3        1.0  0.85890  0.37060  0.05330  1.0000
  H   H4        1.0  0.64110  0.12940  0.05330  1.0000
  H   H5        1.0  0.85890  0.12940  0.55330  1.0000
  H   H6        1.0  0.64110  0.37060  0.55330  1.0000
  H   H7        1.0  0.14110  0.62940  0.94670  1.0000
  H   H8        1.0  0.35890  0.87060  0.94670  1.0000
  C   C41       1.0  0.92750  0.08610  0.46823  1.0000
  C   C42       1.0  0.57250  0.41390  0.46823  1.0000
  C   C43       1.0  0.07250  0.58610  0.03177  1.0000
  C   C44       1.0  0.42750  0.91390  0.03177  1.0000
  C   C45       1.0  0.07250  0.91390  0.53177  1.0000
  C   C46       1.0  0.42750  0.58610  0.53177  1.0000
  C   C47       1.0  0.92750  0.41390  0.96823  1.0000
  C   C48       1.0  0.57250  0.08610  0.96823  1.0000
  H   H9        1.0  0.87810  0.14440  0.44740  1.0000
  H   H10       1.0  0.62190  0.35560  0.44740  1.0000
  H   H11       1.0  0.12190  0.64440  0.05260  1.0000
  H   H12       1.0  0.37810  0.85560  0.05260  1.0000
  H   H13       1.0  0.12190  0.85560  0.55260  1.0000
  H   H14       1.0  0.37810  0.64440  0.55260  1.0000
  H   H15       1.0  0.87810  0.35560  0.94740  1.0000
  H   H16       1.0  0.62190  0.14440  0.94740  1.0000
  N   N1        1.0  0.16930  0.87530  0.30336  1.0000
  N   N2        1.0  0.33070  0.62470  0.30336  1.0000
  N   N3        1.0  0.83070  0.37530  0.19664  1.0000
  N   N4        1.0  0.66930  0.12470  0.19664  1.0000
  N   N5        1.0  0.83070  0.12470  0.69664  1.0000
  N   N6        1.0  0.66930  0.37530  0.69664  1.0000
  N   N7        1.0  0.16930  0.62470  0.80336  1.0000
  N   N8        1.0  0.33070  0.87530  0.80336  1.0000
  N   N9        1.0  0.89100  0.17240  0.30458  1.0000
  N   N10       1.0  0.60900  0.32760  0.30458  1.0000
  N   N11       1.0  0.10900  0.67240  0.19542  1.0000
  N   N12       1.0  0.39100  0.82760  0.19542  1.0000
  N   N13       1.0  0.10900  0.82760  0.69542  1.0000
  N   N14       1.0  0.39100  0.67240  0.69542  1.0000
  N   N15       1.0  0.89100  0.32760  0.80458  1.0000
  N   N16       1.0  0.60900  0.17240  0.80458  1.0000
  Cu  Cu1       1.0  0.25000  0.75000  0.24919  1.0000
  Cu  Cu2       1.0  0.75000  0.25000  0.25081  1.0000
  Cu  Cu3       1.0  0.75000  0.25000  0.75081  1.0000
  Cu  Cu4       1.0  0.25000  0.75000  0.74919  1.0000
