data_image0
_chemical_formula_structural       Br6Zn9N36C54H18C54H18
_chemical_formula_sum              "Br6 Zn9 N36 C108 H36"
_cell_length_a       12.3733
_cell_length_b       12.3733
_cell_length_c       35.7386
_cell_angle_alpha    90
_cell_angle_beta     90
_cell_angle_gamma    120

_space_group_name_H-M_alt    "P 1"
_space_group_IT_number       1

loop_
  _space_group_symop_operation_xyz
  'x, y, z'

loop_
  _atom_site_type_symbol
  _atom_site_label
  _atom_site_symmetry_multiplicity
  _atom_site_fract_x
  _atom_site_fract_y
  _atom_site_fract_z
  _atom_site_occupancy
  Br  Br1       1.0  0.66670  0.33330  0.96965  1.0000
  Br  Br2       1.0  0.33337  0.66663  0.30298  1.0000
  Br  Br3       1.0  0.00003  0.99997  0.63632  1.0000
  Br  Br4       1.0  0.33330  0.66670  0.03035  1.0000
  Br  Br5       1.0  0.66663  0.33337  0.69702  1.0000
  Br  Br6       1.0  0.99997  0.00003  0.36368  1.0000
  Zn  Zn1       1.0  0.33330  0.66670  0.16670  1.0000
  Zn  Zn2       1.0  0.99997  0.00003  0.50003  1.0000
  Zn  Zn3       1.0  0.66663  0.33337  0.83337  1.0000
  Zn  Zn4       1.0  0.66670  0.33330  0.03435  1.0000
  Zn  Zn5       1.0  0.33337  0.66663  0.36768  1.0000
  Zn  Zn6       1.0  0.00003  0.99997  0.70102  1.0000
  Zn  Zn7       1.0  0.33330  0.66670  0.96565  1.0000
  Zn  Zn8       1.0  0.66663  0.33337  0.63232  1.0000
  Zn  Zn9       1.0  0.99997  0.00003  0.29898  1.0000
  N   N1        1.0  0.53790  0.17270  0.05847  1.0000
  N   N2        1.0  0.82730  0.36520  0.05847  1.0000
  N   N3        1.0  0.63480  0.46210  0.05847  1.0000
  N   N4        1.0  0.20457  0.50603  0.39180  1.0000
  N   N5        1.0  0.49397  0.69853  0.39180  1.0000
  N   N6        1.0  0.30147  0.79543  0.39180  1.0000
  N   N7        1.0  0.87123  0.83937  0.72514  1.0000
  N   N8        1.0  0.16063  0.03187  0.72514  1.0000
  N   N9        1.0  0.96813  0.12877  0.72514  1.0000
  N   N10       1.0  0.46210  0.82730  0.94153  1.0000
  N   N11       1.0  0.17270  0.63480  0.94153  1.0000
  N   N12       1.0  0.36520  0.53790  0.94153  1.0000
  N   N13       1.0  0.79543  0.49397  0.60820  1.0000
  N   N14       1.0  0.50603  0.30147  0.60820  1.0000
  N   N15       1.0  0.69853  0.20457  0.60820  1.0000
  N   N16       1.0  0.12877  0.16063  0.27486  1.0000
  N   N17       1.0  0.83937  0.96813  0.27486  1.0000
  N   N18       1.0  0.03187  0.87123  0.27486  1.0000
  N   N19       1.0  0.37830  0.82870  0.13310  1.0000
  N   N20       1.0  0.17130  0.54960  0.13310  1.0000
  N   N21       1.0  0.45040  0.62170  0.13310  1.0000
  N   N22       1.0  0.04497  0.16203  0.46643  1.0000
  N   N23       1.0  0.83797  0.88293  0.46643  1.0000
  N   N24       1.0  0.11707  0.95503  0.46643  1.0000
  N   N25       1.0  0.71163  0.49537  0.79977  1.0000
  N   N26       1.0  0.50463  0.21627  0.79977  1.0000
  N   N27       1.0  0.78373  0.28837  0.79977  1.0000
  N   N28       1.0  0.62170  0.17130  0.86690  1.0000
  N   N29       1.0  0.82870  0.45040  0.86690  1.0000
  N   N30       1.0  0.54960  0.37830  0.86690  1.0000
  N   N31       1.0  0.95503  0.83797  0.53357  1.0000
  N   N32       1.0  0.16203  0.11707  0.53357  1.0000
  N   N33       1.0  0.88293  0.04497  0.53357  1.0000
  N   N34       1.0  0.28837  0.50463  0.20023  1.0000
  N   N35       1.0  0.49537  0.78373  0.20023  1.0000
  N   N36       1.0  0.21627  0.71163  0.20023  1.0000
  C   C1        1.0  0.42000  0.04640  0.11519  1.0000
  C   C2        1.0  0.95360  0.37360  0.11519  1.0000
  C   C3        1.0  0.62640  0.58000  0.11519  1.0000
  C   C4        1.0  0.08667  0.37973  0.44852  1.0000
  C   C5        1.0  0.62027  0.70693  0.44852  1.0000
  C   C6        1.0  0.29307  0.91333  0.44852  1.0000
  C   C7        1.0  0.75333  0.71307  0.78186  1.0000
  C   C8        1.0  0.28693  0.04027  0.78186  1.0000
  C   C9        1.0  0.95973  0.24667  0.78186  1.0000
  C   C10       1.0  0.58000  0.95360  0.88481  1.0000
  C   C11       1.0  0.04640  0.62640  0.88481  1.0000
  C   C12       1.0  0.37360  0.42000  0.88481  1.0000
  C   C13       1.0  0.91333  0.62027  0.55148  1.0000
  C   C14       1.0  0.37973  0.29307  0.55148  1.0000
  C   C15       1.0  0.70693  0.08667  0.55148  1.0000
  C   C16       1.0  0.24667  0.28693  0.21814  1.0000
  C   C17       1.0  0.71307  0.95973  0.21814  1.0000
  C   C18       1.0  0.04027  0.75333  0.21814  1.0000
  C   C19       1.0  0.40050  0.92660  0.12360  1.0000
  C   C20       1.0  0.07340  0.47390  0.12360  1.0000
  C   C21       1.0  0.52610  0.59950  0.12360  1.0000
  C   C22       1.0  0.06717  0.25993  0.45693  1.0000
  C   C23       1.0  0.74007  0.80723  0.45693  1.0000
  C   C24       1.0  0.19277  0.93283  0.45693  1.0000
  C   C25       1.0  0.73383  0.59327  0.79027  1.0000
  C   C26       1.0  0.40673  0.14057  0.79027  1.0000
  C   C27       1.0  0.85943  0.26617  0.79027  1.0000
  C   C28       1.0  0.59950  0.07340  0.87640  1.0000
  C   C29       1.0  0.92660  0.52610  0.87640  1.0000
  C   C30       1.0  0.47390  0.40050  0.87640  1.0000
  C   C31       1.0  0.93283  0.74007  0.54307  1.0000
  C   C32       1.0  0.25993  0.19277  0.54307  1.0000
  C   C33       1.0  0.80723  0.06717  0.54307  1.0000
  C   C34       1.0  0.26617  0.40673  0.20973  1.0000
  C   C35       1.0  0.59327  0.85943  0.20973  1.0000
  C   C36       1.0  0.14057  0.73383  0.20973  1.0000
  C   C37       1.0  0.38850  0.22440  0.13331  1.0000
  C   C38       1.0  0.77560  0.16410  0.13331  1.0000
  C   C39       1.0  0.83590  0.61150  0.13331  1.0000
  C   C40       1.0  0.05517  0.55773  0.46664  1.0000
  C   C41       1.0  0.44227  0.49743  0.46664  1.0000
  C   C42       1.0  0.50257  0.94483  0.46664  1.0000
  C   C43       1.0  0.72183  0.89107  0.79998  1.0000
  C   C44       1.0  0.10893  0.83077  0.79998  1.0000
  C   C45       1.0  0.16923  0.27817  0.79998  1.0000
  C   C46       1.0  0.61150  0.77560  0.86669  1.0000
  C   C47       1.0  0.22440  0.83590  0.86669  1.0000
  C   C48       1.0  0.16410  0.38850  0.86669  1.0000
  C   C49       1.0  0.94483  0.44227  0.53336  1.0000
  C   C50       1.0  0.55773  0.50257  0.53336  1.0000
  C   C51       1.0  0.49743  0.05517  0.53336  1.0000
  C   C52       1.0  0.27817  0.10893  0.20002  1.0000
  C   C53       1.0  0.89107  0.16923  0.20002  1.0000
  C   C54       1.0  0.83077  0.72183  0.20002  1.0000
  H   H1        1.0  0.42640  0.26490  0.11050  1.0000
  H   H2        1.0  0.73510  0.16150  0.11050  1.0000
  H   H3        1.0  0.83850  0.57360  0.11050  1.0000
  H   H4        1.0  0.09307  0.59823  0.44383  1.0000
  H   H5        1.0  0.40177  0.49483  0.44383  1.0000
  H   H6        1.0  0.50517  0.90693  0.44383  1.0000
  H   H7        1.0  0.75973  0.93157  0.77717  1.0000
  H   H8        1.0  0.06843  0.82817  0.77717  1.0000
  H   H9        1.0  0.17183  0.24027  0.77717  1.0000
  H   H10       1.0  0.57360  0.73510  0.88950  1.0000
  H   H11       1.0  0.26490  0.83850  0.88950  1.0000
  H   H12       1.0  0.16150  0.42640  0.88950  1.0000
  H   H13       1.0  0.90693  0.40177  0.55617  1.0000
  H   H14       1.0  0.59823  0.50517  0.55617  1.0000
  H   H15       1.0  0.49483  0.09307  0.55617  1.0000
  H   H16       1.0  0.24027  0.06843  0.22283  1.0000
  H   H17       1.0  0.93157  0.17183  0.22283  1.0000
  H   H18       1.0  0.82817  0.75973  0.22283  1.0000
  C   C55       1.0  0.37570  0.10750  0.14119  1.0000
  C   C56       1.0  0.89250  0.26820  0.14119  1.0000
  C   C57       1.0  0.73180  0.62430  0.14119  1.0000
  C   C58       1.0  0.04237  0.44083  0.47452  1.0000
  C   C59       1.0  0.55917  0.60153  0.47452  1.0000
  C   C60       1.0  0.39847  0.95763  0.47452  1.0000
  C   C61       1.0  0.70903  0.77417  0.80786  1.0000
  C   C62       1.0  0.22583  0.93487  0.80786  1.0000
  C   C63       1.0  0.06513  0.29097  0.80786  1.0000
  C   C64       1.0  0.62430  0.89250  0.85881  1.0000
  C   C65       1.0  0.10750  0.73180  0.85881  1.0000
  C   C66       1.0  0.26820  0.37570  0.85881  1.0000
  C   C67       1.0  0.95763  0.55917  0.52548  1.0000
  C   C68       1.0  0.44083  0.39847  0.52548  1.0000
  C   C69       1.0  0.60153  0.04237  0.52548  1.0000
  C   C70       1.0  0.29097  0.22583  0.19214  1.0000
  C   C71       1.0  0.77417  0.06513  0.19214  1.0000
  C   C72       1.0  0.93487  0.70903  0.19214  1.0000
  C   C73       1.0  0.48570  0.11070  0.08344  1.0000
  C   C74       1.0  0.88930  0.37500  0.08344  1.0000
  C   C75       1.0  0.62500  0.51430  0.08344  1.0000
  C   C76       1.0  0.15237  0.44403  0.41677  1.0000
  C   C77       1.0  0.55597  0.70833  0.41677  1.0000
  C   C78       1.0  0.29167  0.84763  0.41677  1.0000
  C   C79       1.0  0.81903  0.77737  0.75011  1.0000
  C   C80       1.0  0.22263  0.04167  0.75011  1.0000
  C   C81       1.0  0.95833  0.18097  0.75011  1.0000
  C   C82       1.0  0.51430  0.88930  0.91656  1.0000
  C   C83       1.0  0.11070  0.62500  0.91656  1.0000
  C   C84       1.0  0.37500  0.48570  0.91656  1.0000
  C   C85       1.0  0.84763  0.55597  0.58323  1.0000
  C   C86       1.0  0.44403  0.29167  0.58323  1.0000
  C   C87       1.0  0.70833  0.15237  0.58323  1.0000
  C   C88       1.0  0.18097  0.22263  0.24989  1.0000
  C   C89       1.0  0.77737  0.95833  0.24989  1.0000
  C   C90       1.0  0.04167  0.81903  0.24989  1.0000
  C   C91       1.0  0.34750  0.28160  0.15795  1.0000
  C   C92       1.0  0.71840  0.06590  0.15795  1.0000
  C   C93       1.0  0.93410  0.65250  0.15795  1.0000
  C   C94       1.0  0.01417  0.61493  0.49128  1.0000
  C   C95       1.0  0.38507  0.39923  0.49128  1.0000
  C   C96       1.0  0.60077  0.98583  0.49128  1.0000
  C   C97       1.0  0.68083  0.94827  0.82462  1.0000
  C   C98       1.0  0.05173  0.73257  0.82462  1.0000
  C   C99       1.0  0.26743  0.31917  0.82462  1.0000
  C   C100      1.0  0.65250  0.71840  0.84205  1.0000
  C   C101      1.0  0.28160  0.93410  0.84205  1.0000
  C   C102      1.0  0.06590  0.34750  0.84205  1.0000
  C   C103      1.0  0.98583  0.38507  0.50872  1.0000
  C   C104      1.0  0.61493  0.60077  0.50872  1.0000
  C   C105      1.0  0.39923  0.01417  0.50872  1.0000
  C   C106      1.0  0.31917  0.05173  0.17538  1.0000
  C   C107      1.0  0.94827  0.26743  0.17538  1.0000
  C   C108      1.0  0.73257  0.68083  0.17538  1.0000
  H   H19       1.0  0.35760  0.36080  0.15170  1.0000
  H   H20       1.0  0.63920  0.99680  0.15170  1.0000
  H   H21       1.0  0.00320  0.64240  0.15170  1.0000
  H   H22       1.0  0.02427  0.69413  0.48503  1.0000
  H   H23       1.0  0.30587  0.33013  0.48503  1.0000
  H   H24       1.0  0.66987  0.97573  0.48503  1.0000
  H   H25       1.0  0.69093  0.02747  0.81837  1.0000
  H   H26       1.0  0.97253  0.66347  0.81837  1.0000
  H   H27       1.0  0.33653  0.30907  0.81837  1.0000
  H   H28       1.0  0.64240  0.63920  0.84830  1.0000
  H   H29       1.0  0.36080  0.00320  0.84830  1.0000
  H   H30       1.0  0.99680  0.35760  0.84830  1.0000
  H   H31       1.0  0.97573  0.30587  0.51497  1.0000
  H   H32       1.0  0.69413  0.66987  0.51497  1.0000
  H   H33       1.0  0.33013  0.02427  0.51497  1.0000
  H   H34       1.0  0.30907  0.97253  0.18163  1.0000
  H   H35       1.0  0.02747  0.33653  0.18163  1.0000
  H   H36       1.0  0.66347  0.69093  0.18163  1.0000
