data_image0
_chemical_formula_structural       Co12N4O64C12H4C4H4C8H4C4H4C8H4C4H4C8H4C4H4C16H4C4H4C8H4C4H4C8H4C4H4C8H4C4H4C16H4C4H4C8H4C4H4C8H4C4H4C8H4C4H4C8H4C4H8
_chemical_formula_sum              "Co12 N4 O64 C176 H108"
_cell_length_a       15.8983
_cell_length_b       26.422
_cell_length_c       16.3418
_cell_angle_alpha    90
_cell_angle_beta     116.881
_cell_angle_gamma    90

_space_group_name_H-M_alt    "P 1"
_space_group_IT_number       1

loop_
  _space_group_symop_operation_xyz
  'x, y, z'

loop_
  _atom_site_type_symbol
  _atom_site_label
  _atom_site_symmetry_multiplicity
  _atom_site_fract_x
  _atom_site_fract_y
  _atom_site_fract_z
  _atom_site_occupancy
  Co  Co1       1.0  0.23019  0.50347  0.52220  1.0000
  Co  Co2       1.0  0.76981  0.00347  0.97780  1.0000
  Co  Co3       1.0  0.76981  0.49653  0.47780  1.0000
  Co  Co4       1.0  0.23019  0.99653  0.02220  1.0000
  Co  Co5       1.0  0.44686  0.50841  0.67991  1.0000
  Co  Co6       1.0  0.55314  0.00841  0.82009  1.0000
  Co  Co7       1.0  0.55314  0.49159  0.32009  1.0000
  Co  Co8       1.0  0.44686  0.99159  0.17991  1.0000
  Co  Co9       1.0  0.39105  0.52369  0.44082  1.0000
  Co  Co10      1.0  0.60895  0.02369  0.05918  1.0000
  Co  Co11      1.0  0.60895  0.47631  0.55918  1.0000
  Co  Co12      1.0  0.39105  0.97631  0.94082  1.0000
  N   N1        1.0  0.08770  0.50248  0.50150  1.0000
  N   N2        1.0  0.91230  0.00248  0.99850  1.0000
  N   N3        1.0  0.91230  0.49752  0.49850  1.0000
  N   N4        1.0  0.08770  0.99752  0.00150  1.0000
  O   O1        1.0  0.39150  0.44325  0.71120  1.0000
  O   O2        1.0  0.60850  0.94325  0.78880  1.0000
  O   O3        1.0  0.60850  0.55675  0.28880  1.0000
  O   O4        1.0  0.39150  0.05675  0.21120  1.0000
  O   O5        1.0  0.24260  0.43873  0.60150  1.0000
  O   O6        1.0  0.75740  0.93873  0.89850  1.0000
  O   O7        1.0  0.75740  0.56127  0.39850  1.0000
  O   O8        1.0  0.24260  0.06127  0.10150  1.0000
  O   O9        1.0  0.23510  0.25734  0.84870  1.0000
  O   O10       1.0  0.76490  0.75734  0.65130  1.0000
  O   O11       1.0  0.76490  0.74266  0.15130  1.0000
  O   O12       1.0  0.23510  0.24266  0.34870  1.0000
  O   O13       1.0  0.48610  0.07336  0.84000  1.0000
  O   O14       1.0  0.51390  0.57336  0.66000  1.0000
  O   O15       1.0  0.51390  0.92664  0.16000  1.0000
  O   O16       1.0  0.48610  0.42664  0.34000  1.0000
  O   O17       1.0  0.46820  0.05013  0.96270  1.0000
  O   O18       1.0  0.53180  0.55013  0.53730  1.0000
  O   O19       1.0  0.53180  0.94987  0.03730  1.0000
  O   O20       1.0  0.46820  0.44987  0.46270  1.0000
  O   O21       1.0  0.25880  0.54857  0.63940  1.0000
  O   O22       1.0  0.74120  0.04857  0.86060  1.0000
  O   O23       1.0  0.74120  0.45143  0.36060  1.0000
  O   O24       1.0  0.25880  0.95143  0.13940  1.0000
  O   O25       1.0  0.40390  0.55482  0.75290  1.0000
  O   O26       1.0  0.59610  0.05482  0.74710  1.0000
  O   O27       1.0  0.59610  0.44518  0.24710  1.0000
  O   O28       1.0  0.40390  0.94518  0.25290  1.0000
  O   O29       1.0  0.17160  0.68748  0.90680  1.0000
  O   O30       1.0  0.82840  0.18748  0.59320  1.0000
  O   O31       1.0  0.82840  0.31252  0.09320  1.0000
  O   O32       1.0  0.17160  0.81252  0.40680  1.0000
  O   O33       1.0  0.20240  0.92681  0.95560  1.0000
  O   O34       1.0  0.79760  0.42681  0.54440  1.0000
  O   O35       1.0  0.79760  0.07319  0.04440  1.0000
  O   O36       1.0  0.20240  0.57319  0.45560  1.0000
  O   O37       1.0  0.33520  0.90765  0.94640  1.0000
  O   O38       1.0  0.66480  0.40765  0.55360  1.0000
  O   O39       1.0  0.66480  0.09235  0.05360  1.0000
  O   O40       1.0  0.33520  0.59235  0.44640  1.0000
  O   O41       1.0  0.42070  0.54616  0.33500  1.0000
  O   O42       1.0  0.57930  0.04616  0.16500  1.0000
  O   O43       1.0  0.57930  0.45384  0.66500  1.0000
  O   O44       1.0  0.42070  0.95384  0.83500  1.0000
  O   O45       1.0  0.42640  0.51052  0.21560  1.0000
  O   O46       1.0  0.57360  0.01052  0.28440  1.0000
  O   O47       1.0  0.57360  0.48948  0.78440  1.0000
  O   O48       1.0  0.42640  0.98948  0.71560  1.0000
  O   O49       1.0  0.03730  0.62516  0.00390  1.0000
  O   O50       1.0  0.96270  0.12516  0.49610  1.0000
  O   O51       1.0  0.96270  0.37484  0.99610  1.0000
  O   O52       1.0  0.03730  0.87484  0.50390  1.0000
  O   O53       1.0  0.81620  0.53981  0.59660  1.0000
  O   O54       1.0  0.18380  0.03981  0.90340  1.0000
  O   O55       1.0  0.18380  0.46019  0.40340  1.0000
  O   O56       1.0  0.81620  0.96019  0.09660  1.0000
  O   O57       1.0  0.72890  0.50998  0.66160  1.0000
  O   O58       1.0  0.27110  0.00998  0.83840  1.0000
  O   O59       1.0  0.27110  0.49002  0.33840  1.0000
  O   O60       1.0  0.72890  0.99002  0.16160  1.0000
  O   O61       1.0  0.36970  0.49622  0.54620  1.0000
  O   O62       1.0  0.63030  0.99622  0.95380  1.0000
  O   O63       1.0  0.63030  0.50378  0.45380  1.0000
  O   O64       1.0  0.36970  0.00378  0.04620  1.0000
  C   C1        1.0  0.30920  0.42578  0.67620  1.0000
  C   C2        1.0  0.69080  0.92578  0.82380  1.0000
  C   C3        1.0  0.69080  0.57422  0.32380  1.0000
  C   C4        1.0  0.30920  0.07422  0.17620  1.0000
  C   C5        1.0  0.28920  0.38370  0.72620  1.0000
  C   C6        1.0  0.71080  0.88370  0.77380  1.0000
  C   C7        1.0  0.71080  0.61630  0.27380  1.0000
  C   C8        1.0  0.28920  0.11630  0.22620  1.0000
  C   C9        1.0  0.19890  0.36310  0.69380  1.0000
  C   C10       1.0  0.80110  0.86310  0.80620  1.0000
  C   C11       1.0  0.80110  0.63690  0.30620  1.0000
  C   C12       1.0  0.19890  0.13690  0.19380  1.0000
  H   H1        1.0  0.14830  0.37810  0.64210  1.0000
  H   H2        1.0  0.85170  0.87810  0.85790  1.0000
  H   H3        1.0  0.85170  0.62190  0.35790  1.0000
  H   H4        1.0  0.14830  0.12190  0.14210  1.0000
  C   C13       1.0  0.18110  0.32200  0.73460  1.0000
  C   C14       1.0  0.81890  0.82200  0.76540  1.0000
  C   C15       1.0  0.81890  0.67800  0.26540  1.0000
  C   C16       1.0  0.18110  0.17800  0.23460  1.0000
  H   H5        1.0  0.11920  0.30840  0.71080  1.0000
  H   H6        1.0  0.88080  0.80840  0.78920  1.0000
  H   H7        1.0  0.88080  0.69160  0.28920  1.0000
  H   H8        1.0  0.11920  0.19160  0.21080  1.0000
  C   C17       1.0  0.25360  0.30040  0.81020  1.0000
  C   C18       1.0  0.74640  0.80040  0.68980  1.0000
  C   C19       1.0  0.74640  0.69960  0.18980  1.0000
  C   C20       1.0  0.25360  0.19960  0.31020  1.0000
  C   C21       1.0  0.34240  0.31980  0.84670  1.0000
  C   C22       1.0  0.65760  0.81980  0.65330  1.0000
  C   C23       1.0  0.65760  0.68020  0.15330  1.0000
  C   C24       1.0  0.34240  0.18020  0.34670  1.0000
  H   H9        1.0  0.39120  0.30500  0.90010  1.0000
  H   H10       1.0  0.60880  0.80500  0.59990  1.0000
  H   H11       1.0  0.60880  0.69500  0.09990  1.0000
  H   H12       1.0  0.39120  0.19500  0.40010  1.0000
  C   C25       1.0  0.36200  0.36260  0.80400  1.0000
  C   C26       1.0  0.63800  0.86260  0.69600  1.0000
  C   C27       1.0  0.63800  0.63740  0.19600  1.0000
  C   C28       1.0  0.36200  0.13740  0.30400  1.0000
  H   H13       1.0  0.42380  0.37640  0.82850  1.0000
  H   H14       1.0  0.57620  0.87640  0.67150  1.0000
  H   H15       1.0  0.57620  0.62360  0.17150  1.0000
  H   H16       1.0  0.42380  0.12360  0.32850  1.0000
  C   C29       1.0  0.29000  0.21470  0.85820  1.0000
  C   C30       1.0  0.71000  0.71470  0.64180  1.0000
  C   C31       1.0  0.71000  0.78530  0.14180  1.0000
  C   C32       1.0  0.29000  0.28530  0.35820  1.0000
  C   C33       1.0  0.33900  0.20650  0.80980  1.0000
  C   C34       1.0  0.66100  0.70650  0.69020  1.0000
  C   C35       1.0  0.66100  0.79350  0.19020  1.0000
  C   C36       1.0  0.33900  0.29350  0.30980  1.0000
  H   H17       1.0  0.33760  0.23100  0.76660  1.0000
  H   H18       1.0  0.66240  0.73100  0.73340  1.0000
  H   H19       1.0  0.66240  0.76900  0.23340  1.0000
  H   H20       1.0  0.33760  0.26900  0.26660  1.0000
  C   C37       1.0  0.39060  0.16330  0.82280  1.0000
  C   C38       1.0  0.60940  0.66330  0.67720  1.0000
  C   C39       1.0  0.60940  0.83670  0.17720  1.0000
  C   C40       1.0  0.39060  0.33670  0.32280  1.0000
  H   H21       1.0  0.42290  0.15810  0.78680  1.0000
  H   H22       1.0  0.57710  0.65810  0.71320  1.0000
  H   H23       1.0  0.57710  0.84190  0.21320  1.0000
  H   H24       1.0  0.42290  0.34190  0.28680  1.0000
  C   C41       1.0  0.39770  0.12670  0.88570  1.0000
  C   C42       1.0  0.60230  0.62670  0.61430  1.0000
  C   C43       1.0  0.60230  0.87330  0.11430  1.0000
  C   C44       1.0  0.39770  0.37330  0.38570  1.0000
  C   C45       1.0  0.34340  0.13480  0.93170  1.0000
  C   C46       1.0  0.65660  0.63480  0.56830  1.0000
  C   C47       1.0  0.65660  0.86520  0.06830  1.0000
  C   C48       1.0  0.34340  0.36520  0.43170  1.0000
  H   H25       1.0  0.34310  0.10990  0.97350  1.0000
  H   H26       1.0  0.65690  0.60990  0.52650  1.0000
  H   H27       1.0  0.65690  0.89010  0.02650  1.0000
  H   H28       1.0  0.34310  0.39010  0.47350  1.0000
  C   C49       1.0  0.29000  0.17800  0.91820  1.0000
  C   C50       1.0  0.71000  0.67800  0.58180  1.0000
  C   C51       1.0  0.71000  0.82200  0.08180  1.0000
  C   C52       1.0  0.29000  0.32200  0.41820  1.0000
  H   H29       1.0  0.25320  0.18250  0.95010  1.0000
  H   H30       1.0  0.74680  0.68250  0.54990  1.0000
  H   H31       1.0  0.74680  0.81750  0.04990  1.0000
  H   H32       1.0  0.25320  0.31750  0.45010  1.0000
  C   C53       1.0  0.45570  0.08020  0.89640  1.0000
  C   C54       1.0  0.54430  0.58020  0.60360  1.0000
  C   C55       1.0  0.54430  0.91980  0.10360  1.0000
  C   C56       1.0  0.45570  0.41980  0.39640  1.0000
  C   C57       1.0  0.31580  0.56395  0.71650  1.0000
  C   C58       1.0  0.68420  0.06395  0.78350  1.0000
  C   C59       1.0  0.68420  0.43605  0.28350  1.0000
  C   C60       1.0  0.31580  0.93605  0.21650  1.0000
  C   C61       1.0  0.28090  0.59591  0.76960  1.0000
  C   C62       1.0  0.71910  0.09591  0.73040  1.0000
  C   C63       1.0  0.71910  0.40409  0.23040  1.0000
  C   C64       1.0  0.28090  0.90409  0.26960  1.0000
  C   C65       1.0  0.19290  0.62020  0.72290  1.0000
  C   C66       1.0  0.80710  0.12020  0.77710  1.0000
  C   C67       1.0  0.80710  0.37980  0.27710  1.0000
  C   C68       1.0  0.19290  0.87980  0.22290  1.0000
  H   H33       1.0  0.15680  0.61550  0.65860  1.0000
  H   H34       1.0  0.84320  0.11550  0.84140  1.0000
  H   H35       1.0  0.84320  0.38450  0.34140  1.0000
  H   H36       1.0  0.15680  0.88450  0.15860  1.0000
  C   C69       1.0  0.15890  0.65050  0.76930  1.0000
  C   C70       1.0  0.84110  0.15050  0.73070  1.0000
  C   C71       1.0  0.84110  0.34950  0.23070  1.0000
  C   C72       1.0  0.15890  0.84950  0.26930  1.0000
  H   H37       1.0  0.10050  0.66760  0.73670  1.0000
  H   H38       1.0  0.89950  0.16760  0.76330  1.0000
  H   H39       1.0  0.89950  0.33240  0.26330  1.0000
  H   H40       1.0  0.10050  0.83240  0.23670  1.0000
  C   C73       1.0  0.20850  0.65620  0.86190  1.0000
  C   C74       1.0  0.79150  0.15620  0.63810  1.0000
  C   C75       1.0  0.79150  0.34380  0.13810  1.0000
  C   C76       1.0  0.20850  0.84380  0.36190  1.0000
  C   C77       1.0  0.29450  0.63210  0.91070  1.0000
  C   C78       1.0  0.70550  0.13210  0.58930  1.0000
  C   C79       1.0  0.70550  0.36790  0.08930  1.0000
  C   C80       1.0  0.29450  0.86790  0.41070  1.0000
  H   H41       1.0  0.32900  0.63620  0.97530  1.0000
  H   H42       1.0  0.67100  0.13620  0.52470  1.0000
  H   H43       1.0  0.67100  0.36380  0.02470  1.0000
  H   H44       1.0  0.32900  0.86380  0.47530  1.0000
  C   C81       1.0  0.32890  0.60210  0.86340  1.0000
  C   C82       1.0  0.67110  0.10210  0.63660  1.0000
  C   C83       1.0  0.67110  0.39790  0.13660  1.0000
  C   C84       1.0  0.32890  0.89790  0.36340  1.0000
  H   H45       1.0  0.38740  0.58520  0.89650  1.0000
  H   H46       1.0  0.61260  0.08520  0.60350  1.0000
  H   H47       1.0  0.61260  0.41480  0.10350  1.0000
  H   H48       1.0  0.38740  0.91480  0.39650  1.0000
  C   C85       1.0  0.19030  0.73870  0.90980  1.0000
  C   C86       1.0  0.80970  0.23870  0.59020  1.0000
  C   C87       1.0  0.80970  0.26130  0.09020  1.0000
  C   C88       1.0  0.19030  0.76130  0.40980  1.0000
  C   C89       1.0  0.13410  0.77070  0.92980  1.0000
  C   C90       1.0  0.86590  0.27070  0.57020  1.0000
  C   C91       1.0  0.86590  0.22930  0.07020  1.0000
  C   C92       1.0  0.13410  0.72930  0.42980  1.0000
  H   H49       1.0  0.08170  0.75780  0.93640  1.0000
  H   H50       1.0  0.91830  0.25780  0.56360  1.0000
  H   H51       1.0  0.91830  0.24220  0.06360  1.0000
  H   H52       1.0  0.08170  0.74220  0.43640  1.0000
  C   C93       1.0  0.15460  0.82230  0.94030  1.0000
  C   C94       1.0  0.84540  0.32230  0.55970  1.0000
  C   C95       1.0  0.84540  0.17770  0.05970  1.0000
  C   C96       1.0  0.15460  0.67770  0.44030  1.0000
  H   H53       1.0  0.11620  0.84450  0.95460  1.0000
  H   H54       1.0  0.88380  0.34450  0.54540  1.0000
  H   H55       1.0  0.88380  0.15550  0.04540  1.0000
  H   H56       1.0  0.11620  0.65550  0.45460  1.0000
  C   C97       1.0  0.22970  0.84160  0.93020  1.0000
  C   C98       1.0  0.77030  0.34160  0.56980  1.0000
  C   C99       1.0  0.77030  0.15840  0.06980  1.0000
  C   C100      1.0  0.22970  0.65840  0.43020  1.0000
  C   C101      1.0  0.28450  0.80870  0.90950  1.0000
  C   C102      1.0  0.71550  0.30870  0.59050  1.0000
  C   C103      1.0  0.71550  0.19130  0.09050  1.0000
  C   C104      1.0  0.28450  0.69130  0.40950  1.0000
  H   H57       1.0  0.33730  0.82150  0.90370  1.0000
  H   H58       1.0  0.66270  0.32150  0.59630  1.0000
  H   H59       1.0  0.66270  0.17850  0.09630  1.0000
  H   H60       1.0  0.33730  0.67850  0.40370  1.0000
  C   C105      1.0  0.26460  0.75760  0.89700  1.0000
  C   C106      1.0  0.73540  0.25760  0.60300  1.0000
  C   C107      1.0  0.73540  0.24240  0.10300  1.0000
  C   C108      1.0  0.26460  0.74240  0.39700  1.0000
  H   H61       1.0  0.30140  0.73580  0.87970  1.0000
  H   H62       1.0  0.69860  0.23580  0.62030  1.0000
  H   H63       1.0  0.69860  0.26420  0.12030  1.0000
  H   H64       1.0  0.30140  0.76420  0.37970  1.0000
  C   C109      1.0  0.25800  0.89730  0.94540  1.0000
  C   C110      1.0  0.74200  0.39730  0.55460  1.0000
  C   C111      1.0  0.74200  0.10270  0.05460  1.0000
  C   C112      1.0  0.25800  0.60270  0.44540  1.0000
  C   C113      1.0  0.38560  0.53817  0.24930  1.0000
  C   C114      1.0  0.61440  0.03817  0.25070  1.0000
  C   C115      1.0  0.61440  0.46183  0.75070  1.0000
  C   C116      1.0  0.38560  0.96183  0.74930  1.0000
  C   C117      1.0  0.29350  0.56237  0.18360  1.0000
  C   C118      1.0  0.70650  0.06237  0.31640  1.0000
  C   C119      1.0  0.70650  0.43763  0.81640  1.0000
  C   C120      1.0  0.29350  0.93763  0.68360  1.0000
  C   C121      1.0  0.24460  0.59239  0.21450  1.0000
  C   C122      1.0  0.75540  0.09239  0.28550  1.0000
  C   C123      1.0  0.75540  0.40761  0.78550  1.0000
  C   C124      1.0  0.24460  0.90761  0.71450  1.0000
  H   H65       1.0  0.26980  0.59950  0.27820  1.0000
  H   H66       1.0  0.73020  0.09950  0.22180  1.0000
  H   H67       1.0  0.73020  0.40050  0.72180  1.0000
  H   H68       1.0  0.26980  0.90050  0.77820  1.0000
  C   C125      1.0  0.15810  0.61290  0.15370  1.0000
  C   C126      1.0  0.84190  0.11290  0.34630  1.0000
  C   C127      1.0  0.84190  0.38710  0.84630  1.0000
  C   C128      1.0  0.15810  0.88710  0.65370  1.0000
  H   H69       1.0  0.12350  0.63360  0.17540  1.0000
  H   H70       1.0  0.87650  0.13360  0.32460  1.0000
  H   H71       1.0  0.87650  0.36640  0.82460  1.0000
  H   H72       1.0  0.12350  0.86640  0.67540  1.0000
  C   C129      1.0  0.12310  0.60247  0.06030  1.0000
  C   C130      1.0  0.87690  0.10247  0.43970  1.0000
  C   C131      1.0  0.87690  0.39753  0.93970  1.0000
  C   C132      1.0  0.12310  0.89753  0.56030  1.0000
  C   C133      1.0  0.17170  0.57220  0.02880  1.0000
  C   C134      1.0  0.82830  0.07220  0.47120  1.0000
  C   C135      1.0  0.82830  0.42780  0.97120  1.0000
  C   C136      1.0  0.17170  0.92780  0.52880  1.0000
  H   H73       1.0  0.14670  0.56470  0.96520  1.0000
  H   H74       1.0  0.85330  0.06470  0.53480  1.0000
  H   H75       1.0  0.85330  0.43530  0.03480  1.0000
  H   H76       1.0  0.14670  0.93530  0.46520  1.0000
  C   C137      1.0  0.25840  0.55260  0.09080  1.0000
  C   C138      1.0  0.74160  0.05260  0.40920  1.0000
  C   C139      1.0  0.74160  0.44740  0.90920  1.0000
  C   C140      1.0  0.25840  0.94740  0.59080  1.0000
  H   H77       1.0  0.29380  0.53240  0.06930  1.0000
  H   H78       1.0  0.70620  0.03240  0.43070  1.0000
  H   H79       1.0  0.70620  0.46760  0.93070  1.0000
  H   H80       1.0  0.29380  0.96760  0.56930  1.0000
  C   C141      1.0  0.98140  0.60170  0.91830  1.0000
  C   C142      1.0  0.01860  0.10170  0.58170  1.0000
  C   C143      1.0  0.01860  0.39830  0.08170  1.0000
  C   C144      1.0  0.98140  0.89830  0.41830  1.0000
  C   C145      1.0  0.94040  0.55550  0.91870  1.0000
  C   C146      1.0  0.05960  0.05550  0.58130  1.0000
  C   C147      1.0  0.05960  0.44450  0.08130  1.0000
  C   C148      1.0  0.94040  0.94450  0.41870  1.0000
  H   H81       1.0  0.95310  0.53890  0.97470  1.0000
  H   H82       1.0  0.04690  0.03890  0.52530  1.0000
  H   H83       1.0  0.04690  0.46110  0.02530  1.0000
  H   H84       1.0  0.95310  0.96110  0.47470  1.0000
  C   C149      1.0  0.87980  0.53430  0.83430  1.0000
  C   C150      1.0  0.12020  0.03430  0.66570  1.0000
  C   C151      1.0  0.12020  0.46570  0.16570  1.0000
  C   C152      1.0  0.87980  0.96570  0.33430  1.0000
  H   H85       1.0  0.84860  0.50330  0.83270  1.0000
  H   H86       1.0  0.15140  0.00330  0.66730  1.0000
  H   H87       1.0  0.15140  0.49670  0.16730  1.0000
  H   H88       1.0  0.84860  0.99670  0.33270  1.0000
  C   C153      1.0  0.86440  0.55740  0.75340  1.0000
  C   C154      1.0  0.13560  0.05740  0.74660  1.0000
  C   C155      1.0  0.13560  0.44260  0.24660  1.0000
  C   C156      1.0  0.86440  0.94260  0.25340  1.0000
  C   C157      1.0  0.90980  0.60270  0.75610  1.0000
  C   C158      1.0  0.09020  0.10270  0.74390  1.0000
  C   C159      1.0  0.09020  0.39730  0.24390  1.0000
  C   C160      1.0  0.90980  0.89730  0.25610  1.0000
  H   H89       1.0  0.90120  0.61840  0.70060  1.0000
  H   H90       1.0  0.09880  0.11840  0.79940  1.0000
  H   H91       1.0  0.09880  0.38160  0.29940  1.0000
  H   H92       1.0  0.90120  0.88160  0.20060  1.0000
  C   C161      1.0  0.96700  0.62500  0.83900  1.0000
  C   C162      1.0  0.03300  0.12500  0.66100  1.0000
  C   C163      1.0  0.03300  0.37500  0.16100  1.0000
  C   C164      1.0  0.96700  0.87500  0.33900  1.0000
  H   H93       1.0  0.99640  0.65660  0.84070  1.0000
  H   H94       1.0  0.00360  0.15660  0.65930  1.0000
  H   H95       1.0  0.00360  0.34340  0.15930  1.0000
  H   H96       1.0  0.99640  0.84340  0.34070  1.0000
  C   C165      1.0  0.79840  0.53370  0.66260  1.0000
  C   C166      1.0  0.20160  0.03370  0.83740  1.0000
  C   C167      1.0  0.20160  0.46630  0.33740  1.0000
  C   C168      1.0  0.79840  0.96630  0.16260  1.0000
  C   C169      1.0  0.04070  0.45910  0.48720  1.0000
  C   C170      1.0  0.95930  0.95910  0.01280  1.0000
  C   C171      1.0  0.95930  0.54090  0.51280  1.0000
  C   C172      1.0  0.04070  0.04090  0.98720  1.0000
  H   H97       1.0  0.05600  0.43300  0.47500  1.0000
  H   H98       1.0  0.94400  0.93300  0.02500  1.0000
  H   H99       1.0  0.94400  0.56700  0.52500  1.0000
  H   H100      1.0  0.05600  0.06700  0.97500  1.0000
  C   C173      1.0  0.04510  0.54380  0.51340  1.0000
  C   C174      1.0  0.95490  0.04380  0.98660  1.0000
  C   C175      1.0  0.95490  0.45620  0.48660  1.0000
  C   C176      1.0  0.04510  0.95620  0.01340  1.0000
  H   H101      1.0  0.07900  0.57410  0.52100  1.0000
  H   H102      1.0  0.92100  0.07410  0.97900  1.0000
  H   H103      1.0  0.92100  0.42590  0.47900  1.0000
  H   H104      1.0  0.07900  0.92590  0.02100  1.0000
  H   H105      1.0  0.38700  0.46900  0.55100  1.0000
  H   H106      1.0  0.61300  0.96900  0.94900  1.0000
  H   H107      1.0  0.61300  0.53100  0.44900  1.0000
  H   H108      1.0  0.38700  0.03100  0.05100  1.0000
