data_image0
_chemical_formula_structural       Mg4C8H8C8H8C8H8C16O8C8N16C8H16C8H24C8H16C8H24O16C16N8O8C8O8
_chemical_formula_sum              "Mg4 C104 H104 O40 N24"
_cell_length_a       10.7621
_cell_length_b       21.2484
_cell_length_c       15.5667
_cell_angle_alpha    90
_cell_angle_beta     102.881
_cell_angle_gamma    90

_space_group_name_H-M_alt    "P 1"
_space_group_IT_number       1

loop_
  _space_group_symop_operation_xyz
  'x, y, z'

loop_
  _atom_site_type_symbol
  _atom_site_label
  _atom_site_symmetry_multiplicity
  _atom_site_fract_x
  _atom_site_fract_y
  _atom_site_fract_z
  _atom_site_occupancy
  Mg  Mg1       1.0  0.00000  0.14860  0.25000  1.0000
  Mg  Mg2       1.0  0.50000  0.64860  0.25000  1.0000
  Mg  Mg3       1.0  0.00000  0.85140  0.75000  1.0000
  Mg  Mg4       1.0  0.50000  0.35140  0.75000  1.0000
  C   C1        1.0  0.91827  0.29299  0.01598  1.0000
  C   C2        1.0  0.08173  0.29299  0.48402  1.0000
  C   C3        1.0  0.41827  0.79299  0.01598  1.0000
  C   C4        1.0  0.58173  0.79299  0.48402  1.0000
  C   C5        1.0  0.08173  0.70701  0.98402  1.0000
  C   C6        1.0  0.91827  0.70701  0.51598  1.0000
  C   C7        1.0  0.58173  0.20701  0.98402  1.0000
  C   C8        1.0  0.41827  0.20701  0.51598  1.0000
  H   H1        1.0  0.89790  0.25040  0.01300  1.0000
  H   H2        1.0  0.10210  0.25040  0.48700  1.0000
  H   H3        1.0  0.39790  0.75040  0.01300  1.0000
  H   H4        1.0  0.60210  0.75040  0.48700  1.0000
  H   H5        1.0  0.10210  0.74960  0.98700  1.0000
  H   H6        1.0  0.89790  0.74960  0.51300  1.0000
  H   H7        1.0  0.60210  0.24960  0.98700  1.0000
  H   H8        1.0  0.39790  0.24960  0.51300  1.0000
  C   C9        1.0  0.03900  0.37928  0.09123  1.0000
  C   C10       1.0  0.96100  0.37928  0.40877  1.0000
  C   C11       1.0  0.53900  0.87928  0.09123  1.0000
  C   C12       1.0  0.46100  0.87928  0.40877  1.0000
  C   C13       1.0  0.96100  0.62072  0.90877  1.0000
  C   C14       1.0  0.03900  0.62072  0.59123  1.0000
  C   C15       1.0  0.46100  0.12072  0.90877  1.0000
  C   C16       1.0  0.53900  0.12072  0.59123  1.0000
  H   H9        1.0  0.09870  0.39490  0.13910  1.0000
  H   H10       1.0  0.90130  0.39490  0.36090  1.0000
  H   H11       1.0  0.59870  0.89490  0.13910  1.0000
  H   H12       1.0  0.40130  0.89490  0.36090  1.0000
  H   H13       1.0  0.90130  0.60510  0.86090  1.0000
  H   H14       1.0  0.09870  0.60510  0.63910  1.0000
  H   H15       1.0  0.40130  0.10510  0.86090  1.0000
  H   H16       1.0  0.59870  0.10510  0.63910  1.0000
  C   C17       1.0  0.89230  0.39635  0.95176  1.0000
  C   C18       1.0  0.10770  0.39635  0.54824  1.0000
  C   C19       1.0  0.39230  0.89635  0.95176  1.0000
  C   C20       1.0  0.60770  0.89635  0.54824  1.0000
  C   C21       1.0  0.10770  0.60365  0.04824  1.0000
  C   C22       1.0  0.89230  0.60365  0.45176  1.0000
  C   C23       1.0  0.60770  0.10365  0.04824  1.0000
  C   C24       1.0  0.39230  0.10365  0.45176  1.0000
  H   H17       1.0  0.85370  0.42350  0.90680  1.0000
  H   H18       1.0  0.14630  0.42350  0.59320  1.0000
  H   H19       1.0  0.35370  0.92350  0.90680  1.0000
  H   H20       1.0  0.64630  0.92350  0.59320  1.0000
  H   H21       1.0  0.14630  0.57650  0.09320  1.0000
  H   H22       1.0  0.85370  0.57650  0.40680  1.0000
  H   H23       1.0  0.64630  0.07650  0.09320  1.0000
  H   H24       1.0  0.35370  0.07650  0.40680  1.0000
  C   C25       1.0  0.85999  0.33323  0.94797  1.0000
  C   C26       1.0  0.14001  0.33323  0.55203  1.0000
  C   C27       1.0  0.35999  0.83323  0.94797  1.0000
  C   C28       1.0  0.64001  0.83323  0.55203  1.0000
  C   C29       1.0  0.14001  0.66677  0.05203  1.0000
  C   C30       1.0  0.85999  0.66677  0.44797  1.0000
  C   C31       1.0  0.64001  0.16677  0.05203  1.0000
  C   C32       1.0  0.35999  0.16677  0.44797  1.0000
  C   C33       1.0  0.98280  0.41902  0.02306  1.0000
  C   C34       1.0  0.01720  0.41902  0.47694  1.0000
  C   C35       1.0  0.48280  0.91902  0.02306  1.0000
  C   C36       1.0  0.51720  0.91902  0.47694  1.0000
  C   C37       1.0  0.01720  0.58098  0.97694  1.0000
  C   C38       1.0  0.98280  0.58098  0.52306  1.0000
  C   C39       1.0  0.51720  0.08098  0.97694  1.0000
  C   C40       1.0  0.48280  0.08098  0.52306  1.0000
  O   O1        1.0  0.05753  0.07958  0.17395  1.0000
  O   O2        1.0  0.94247  0.07958  0.32605  1.0000
  O   O3        1.0  0.55753  0.57958  0.17395  1.0000
  O   O4        1.0  0.44247  0.57958  0.32605  1.0000
  O   O5        1.0  0.94247  0.92042  0.82605  1.0000
  O   O6        1.0  0.05753  0.92042  0.67395  1.0000
  O   O7        1.0  0.44247  0.42042  0.82605  1.0000
  O   O8        1.0  0.55753  0.42042  0.67395  1.0000
  C   C41       1.0  0.08730  0.02524  0.15803  1.0000
  C   C42       1.0  0.91270  0.02524  0.34197  1.0000
  C   C43       1.0  0.58730  0.52524  0.15803  1.0000
  C   C44       1.0  0.41270  0.52524  0.34197  1.0000
  C   C45       1.0  0.91270  0.97476  0.84197  1.0000
  C   C46       1.0  0.08730  0.97476  0.65803  1.0000
  C   C47       1.0  0.41270  0.47476  0.84197  1.0000
  C   C48       1.0  0.58730  0.47476  0.65803  1.0000
  N   N1        1.0  0.20480  0.00202  0.17060  1.0000
  N   N2        1.0  0.79520  0.00202  0.32940  1.0000
  N   N3        1.0  0.70480  0.50202  0.17060  1.0000
  N   N4        1.0  0.29520  0.50202  0.32940  1.0000
  N   N5        1.0  0.79520  0.99798  0.82940  1.0000
  N   N6        1.0  0.20480  0.99798  0.67060  1.0000
  N   N7        1.0  0.29520  0.49798  0.82940  1.0000
  N   N8        1.0  0.70480  0.49798  0.67060  1.0000
  N   N9        1.0  0.00440  0.97989  0.12320  1.0000
  N   N10       1.0  0.99560  0.97989  0.37680  1.0000
  N   N11       1.0  0.50440  0.47989  0.12320  1.0000
  N   N12       1.0  0.49560  0.47989  0.37680  1.0000
  N   N13       1.0  0.99560  0.02011  0.87680  1.0000
  N   N14       1.0  0.00440  0.02011  0.62320  1.0000
  N   N15       1.0  0.49560  0.52011  0.87680  1.0000
  N   N16       1.0  0.50440  0.52011  0.62320  1.0000
  C   C49       1.0  0.20690  0.93664  0.14400  1.0000
  C   C50       1.0  0.79310  0.93664  0.35600  1.0000
  C   C51       1.0  0.70690  0.43664  0.14400  1.0000
  C   C52       1.0  0.29310  0.43664  0.35600  1.0000
  C   C53       1.0  0.79310  0.06336  0.85600  1.0000
  C   C54       1.0  0.20690  0.06336  0.64400  1.0000
  C   C55       1.0  0.29310  0.56336  0.85600  1.0000
  C   C56       1.0  0.70690  0.56336  0.64400  1.0000
  H   H25       1.0  0.24550  0.91010  0.19340  1.0000
  H   H26       1.0  0.75450  0.91010  0.30660  1.0000
  H   H27       1.0  0.74550  0.41010  0.19340  1.0000
  H   H28       1.0  0.25450  0.41010  0.30660  1.0000
  H   H29       1.0  0.75450  0.08990  0.80660  1.0000
  H   H30       1.0  0.24550  0.08990  0.69340  1.0000
  H   H31       1.0  0.25450  0.58990  0.80660  1.0000
  H   H32       1.0  0.74550  0.58990  0.69340  1.0000
  H   H33       1.0  0.25310  0.93160  0.09760  1.0000
  H   H34       1.0  0.74690  0.93160  0.40240  1.0000
  H   H35       1.0  0.75310  0.43160  0.09760  1.0000
  H   H36       1.0  0.24690  0.43160  0.40240  1.0000
  H   H37       1.0  0.74690  0.06840  0.90240  1.0000
  H   H38       1.0  0.25310  0.06840  0.59760  1.0000
  H   H39       1.0  0.24690  0.56840  0.90240  1.0000
  H   H40       1.0  0.75310  0.56840  0.59760  1.0000
  C   C57       1.0  0.31920  0.03640  0.20680  1.0000
  C   C58       1.0  0.68080  0.03640  0.29320  1.0000
  C   C59       1.0  0.81920  0.53640  0.20680  1.0000
  C   C60       1.0  0.18080  0.53640  0.29320  1.0000
  C   C61       1.0  0.68080  0.96360  0.79320  1.0000
  C   C62       1.0  0.31920  0.96360  0.70680  1.0000
  C   C63       1.0  0.18080  0.46360  0.79320  1.0000
  C   C64       1.0  0.81920  0.46360  0.70680  1.0000
  H   H41       1.0  0.37340  0.03640  0.16550  1.0000
  H   H42       1.0  0.62660  0.03640  0.33450  1.0000
  H   H43       1.0  0.87340  0.53640  0.16550  1.0000
  H   H44       1.0  0.12660  0.53640  0.33450  1.0000
  H   H45       1.0  0.62660  0.96360  0.83450  1.0000
  H   H46       1.0  0.37340  0.96360  0.66550  1.0000
  H   H47       1.0  0.12660  0.46360  0.83450  1.0000
  H   H48       1.0  0.87340  0.46360  0.66550  1.0000
  H   H49       1.0  0.36280  0.01690  0.26070  1.0000
  H   H50       1.0  0.63720  0.01690  0.23930  1.0000
  H   H51       1.0  0.86280  0.51690  0.26070  1.0000
  H   H52       1.0  0.13720  0.51690  0.23930  1.0000
  H   H53       1.0  0.63720  0.98310  0.73930  1.0000
  H   H54       1.0  0.36280  0.98310  0.76070  1.0000
  H   H55       1.0  0.13720  0.48310  0.73930  1.0000
  H   H56       1.0  0.86280  0.48310  0.76070  1.0000
  H   H57       1.0  0.29780  0.07900  0.21840  1.0000
  H   H58       1.0  0.70220  0.07900  0.28160  1.0000
  H   H59       1.0  0.79780  0.57900  0.21840  1.0000
  H   H60       1.0  0.20220  0.57900  0.28160  1.0000
  H   H61       1.0  0.70220  0.92100  0.78160  1.0000
  H   H62       1.0  0.29780  0.92100  0.71840  1.0000
  H   H63       1.0  0.20220  0.42100  0.78160  1.0000
  H   H64       1.0  0.79780  0.42100  0.71840  1.0000
  C   C65       1.0  0.06700  0.92131  0.11120  1.0000
  C   C66       1.0  0.93300  0.92131  0.38880  1.0000
  C   C67       1.0  0.56700  0.42131  0.11120  1.0000
  C   C68       1.0  0.43300  0.42131  0.38880  1.0000
  C   C69       1.0  0.93300  0.07869  0.88880  1.0000
  C   C70       1.0  0.06700  0.07869  0.61120  1.0000
  C   C71       1.0  0.43300  0.57869  0.88880  1.0000
  C   C72       1.0  0.56700  0.57869  0.61120  1.0000
  H   H65       1.0  0.04850  0.90900  0.04960  1.0000
  H   H66       1.0  0.95150  0.90900  0.45040  1.0000
  H   H67       1.0  0.54850  0.40900  0.04960  1.0000
  H   H68       1.0  0.45150  0.40900  0.45040  1.0000
  H   H69       1.0  0.95150  0.09100  0.95040  1.0000
  H   H70       1.0  0.04850  0.09100  0.54960  1.0000
  H   H71       1.0  0.45150  0.59100  0.95040  1.0000
  H   H72       1.0  0.54850  0.59100  0.54960  1.0000
  H   H73       1.0  0.04090  0.88770  0.14550  1.0000
  H   H74       1.0  0.95910  0.88770  0.35450  1.0000
  H   H75       1.0  0.54090  0.38770  0.14550  1.0000
  H   H76       1.0  0.45910  0.38770  0.35450  1.0000
  H   H77       1.0  0.95910  0.11230  0.85450  1.0000
  H   H78       1.0  0.04090  0.11230  0.64550  1.0000
  H   H79       1.0  0.45910  0.61230  0.85450  1.0000
  H   H80       1.0  0.54090  0.61230  0.64550  1.0000
  C   C73       1.0  0.86820  0.98750  0.10120  1.0000
  C   C74       1.0  0.13180  0.98750  0.39880  1.0000
  C   C75       1.0  0.36820  0.48750  0.10120  1.0000
  C   C76       1.0  0.63180  0.48750  0.39880  1.0000
  C   C77       1.0  0.13180  0.01250  0.89880  1.0000
  C   C78       1.0  0.86820  0.01250  0.60120  1.0000
  C   C79       1.0  0.63180  0.51250  0.89880  1.0000
  C   C80       1.0  0.36820  0.51250  0.60120  1.0000
  H   H81       1.0  0.83120  0.96300  0.14100  1.0000
  H   H82       1.0  0.16880  0.96300  0.35900  1.0000
  H   H83       1.0  0.33120  0.46300  0.14100  1.0000
  H   H84       1.0  0.66880  0.46300  0.35900  1.0000
  H   H85       1.0  0.16880  0.03700  0.85900  1.0000
  H   H86       1.0  0.83120  0.03700  0.64100  1.0000
  H   H87       1.0  0.66880  0.53700  0.85900  1.0000
  H   H88       1.0  0.33120  0.53700  0.64100  1.0000
  H   H89       1.0  0.83520  0.97340  0.04190  1.0000
  H   H90       1.0  0.16480  0.97340  0.45810  1.0000
  H   H91       1.0  0.33520  0.47340  0.04190  1.0000
  H   H92       1.0  0.66480  0.47340  0.45810  1.0000
  H   H93       1.0  0.16480  0.02660  0.95810  1.0000
  H   H94       1.0  0.83520  0.02660  0.54190  1.0000
  H   H95       1.0  0.66480  0.52660  0.95810  1.0000
  H   H96       1.0  0.33520  0.52660  0.54190  1.0000
  H   H97       1.0  0.84730  0.03110  0.10610  1.0000
  H   H98       1.0  0.15270  0.03110  0.39390  1.0000
  H   H99       1.0  0.34730  0.53110  0.10610  1.0000
  H   H100      1.0  0.65270  0.53110  0.39390  1.0000
  H   H101      1.0  0.15270  0.96890  0.89390  1.0000
  H   H102      1.0  0.84730  0.96890  0.60610  1.0000
  H   H103      1.0  0.65270  0.46890  0.89390  1.0000
  H   H104      1.0  0.34730  0.46890  0.60610  1.0000
  O   O9        1.0  0.03280  0.21790  0.16309  1.0000
  O   O10       1.0  0.96720  0.21790  0.33691  1.0000
  O   O11       1.0  0.53280  0.71790  0.16309  1.0000
  O   O12       1.0  0.46720  0.71790  0.33691  1.0000
  O   O13       1.0  0.96720  0.78210  0.83691  1.0000
  O   O14       1.0  0.03280  0.78210  0.66309  1.0000
  O   O15       1.0  0.46720  0.28210  0.83691  1.0000
  O   O16       1.0  0.53280  0.28210  0.66309  1.0000
  O   O17       1.0  0.14232  0.30138  0.22665  1.0000
  O   O18       1.0  0.85768  0.30138  0.27335  1.0000
  O   O19       1.0  0.64232  0.80138  0.22665  1.0000
  O   O20       1.0  0.35768  0.80138  0.27335  1.0000
  O   O21       1.0  0.85768  0.69862  0.77335  1.0000
  O   O22       1.0  0.14232  0.69862  0.72665  1.0000
  O   O23       1.0  0.35768  0.19862  0.77335  1.0000
  O   O24       1.0  0.64232  0.19862  0.72665  1.0000
  C   C81       1.0  0.00601  0.31602  0.08771  1.0000
  C   C82       1.0  0.99399  0.31602  0.41229  1.0000
  C   C83       1.0  0.50601  0.81602  0.08771  1.0000
  C   C84       1.0  0.49399  0.81602  0.41229  1.0000
  C   C85       1.0  0.99399  0.68398  0.91229  1.0000
  C   C86       1.0  0.00601  0.68398  0.58771  1.0000
  C   C87       1.0  0.49399  0.18398  0.91229  1.0000
  C   C88       1.0  0.50601  0.18398  0.58771  1.0000
  C   C89       1.0  0.06390  0.27351  0.16419  1.0000
  C   C90       1.0  0.93610  0.27351  0.33581  1.0000
  C   C91       1.0  0.56390  0.77351  0.16419  1.0000
  C   C92       1.0  0.43610  0.77351  0.33581  1.0000
  C   C93       1.0  0.93610  0.72649  0.83581  1.0000
  C   C94       1.0  0.06390  0.72649  0.66419  1.0000
  C   C95       1.0  0.43610  0.22649  0.83581  1.0000
  C   C96       1.0  0.56390  0.22649  0.66419  1.0000
  N   N17       1.0  0.02326  0.48334  0.03240  1.0000
  N   N18       1.0  0.97674  0.48334  0.46760  1.0000
  N   N19       1.0  0.52326  0.98334  0.03240  1.0000
  N   N20       1.0  0.47674  0.98334  0.46760  1.0000
  N   N21       1.0  0.97674  0.51666  0.96760  1.0000
  N   N22       1.0  0.02326  0.51666  0.53240  1.0000
  N   N23       1.0  0.47674  0.01666  0.96760  1.0000
  N   N24       1.0  0.52326  0.01666  0.53240  1.0000
  O   O25       1.0  0.76566  0.25101  0.85599  1.0000
  O   O26       1.0  0.23434  0.25101  0.64401  1.0000
  O   O27       1.0  0.26566  0.75101  0.85599  1.0000
  O   O28       1.0  0.73434  0.75101  0.64401  1.0000
  O   O29       1.0  0.23434  0.74899  0.14401  1.0000
  O   O30       1.0  0.76566  0.74899  0.35599  1.0000
  O   O31       1.0  0.73434  0.24899  0.14401  1.0000
  O   O32       1.0  0.26566  0.24899  0.35599  1.0000
  C   C97       1.0  0.76230  0.30985  0.87001  1.0000
  C   C98       1.0  0.23770  0.30985  0.62999  1.0000
  C   C99       1.0  0.26230  0.80985  0.87001  1.0000
  C   C100      1.0  0.73770  0.80985  0.62999  1.0000
  C   C101      1.0  0.23770  0.69015  0.12999  1.0000
  C   C102      1.0  0.76230  0.69015  0.37001  1.0000
  C   C103      1.0  0.73770  0.19015  0.12999  1.0000
  C   C104      1.0  0.26230  0.19015  0.37001  1.0000
  O   O33       1.0  0.68839  0.34842  0.82552  1.0000
  O   O34       1.0  0.31161  0.34842  0.67448  1.0000
  O   O35       1.0  0.18839  0.84842  0.82552  1.0000
  O   O36       1.0  0.81161  0.84842  0.67448  1.0000
  O   O37       1.0  0.31161  0.65158  0.17448  1.0000
  O   O38       1.0  0.68839  0.65158  0.32552  1.0000
  O   O39       1.0  0.81161  0.15158  0.17448  1.0000
  O   O40       1.0  0.18839  0.15158  0.32552  1.0000
