data_image0
_chemical_formula_structural       Mn4O8C4H4O8C4H4O8C4H4
_chemical_formula_sum              "Mn4 O24 C12 H12"
_cell_length_a       14.315
_cell_length_b       8.311
_cell_length_c       8.914
_cell_angle_alpha    90
_cell_angle_beta     120.651
_cell_angle_gamma    90

_space_group_name_H-M_alt    "P 1"
_space_group_IT_number       1

loop_
  _space_group_symop_operation_xyz
  'x, y, z'

loop_
  _atom_site_type_symbol
  _atom_site_label
  _atom_site_symmetry_multiplicity
  _atom_site_fract_x
  _atom_site_fract_y
  _atom_site_fract_z
  _atom_site_occupancy
  Mn  Mn1       1.0  0.70250  0.25840  0.78900  1.0000
  Mn  Mn2       1.0  0.70250  0.74160  0.28900  1.0000
  Mn  Mn3       1.0  0.20250  0.75840  0.78900  1.0000
  Mn  Mn4       1.0  0.20250  0.24160  0.28900  1.0000
  O   O1        1.0  0.54700  0.14650  0.60800  1.0000
  O   O2        1.0  0.54700  0.85350  0.10800  1.0000
  O   O3        1.0  0.04700  0.64650  0.60800  1.0000
  O   O4        1.0  0.04700  0.35350  0.10800  1.0000
  O   O5        1.0  0.36480  0.14470  0.44200  1.0000
  O   O6        1.0  0.36480  0.85530  0.94200  1.0000
  O   O7        1.0  0.86480  0.64470  0.44200  1.0000
  O   O8        1.0  0.86480  0.35530  0.94200  1.0000
  C   C1        1.0  0.45470  0.20880  0.54200  1.0000
  C   C2        1.0  0.45470  0.79120  0.04200  1.0000
  C   C3        1.0  0.95470  0.70880  0.54200  1.0000
  C   C4        1.0  0.95470  0.29120  0.04200  1.0000
  H   H1        1.0  0.45700  0.34100  0.52300  1.0000
  H   H2        1.0  0.45700  0.65900  0.02300  1.0000
  H   H3        1.0  0.95700  0.84100  0.52300  1.0000
  H   H4        1.0  0.95700  0.15900  0.02300  1.0000
  O   O9        1.0  0.75030  0.03810  0.92800  1.0000
  O   O10       1.0  0.75030  0.96190  0.42800  1.0000
  O   O11       1.0  0.25030  0.53810  0.92800  1.0000
  O   O12       1.0  0.25030  0.46190  0.42800  1.0000
  O   O13       1.0  0.74200  0.84580  0.10000  1.0000
  O   O14       1.0  0.74200  0.15420  0.60000  1.0000
  O   O15       1.0  0.24200  0.34580  0.10000  1.0000
  O   O16       1.0  0.24200  0.65420  0.60000  1.0000
  C   C5        1.0  0.71200  0.97320  0.01700  1.0000
  C   C6        1.0  0.71200  0.02680  0.51700  1.0000
  C   C7        1.0  0.21200  0.47320  0.01700  1.0000
  C   C8        1.0  0.21200  0.52680  0.51700  1.0000
  H   H5        1.0  0.62900  0.00700  0.98800  1.0000
  H   H6        1.0  0.62900  0.99300  0.48800  1.0000
  H   H7        1.0  0.12900  0.50700  0.98800  1.0000
  H   H8        1.0  0.12900  0.49300  0.48800  1.0000
  O   O17       1.0  0.63700  0.33820  0.94800  1.0000
  O   O18       1.0  0.63700  0.66180  0.44800  1.0000
  O   O19       1.0  0.13700  0.83820  0.94800  1.0000
  O   O20       1.0  0.13700  0.16180  0.44800  1.0000
  O   O21       1.0  0.64880  0.53380  0.14000  1.0000
  O   O22       1.0  0.64880  0.46620  0.64000  1.0000
  O   O23       1.0  0.14880  0.03380  0.14000  1.0000
  O   O24       1.0  0.14880  0.96620  0.64000  1.0000
  C   C9        1.0  0.65700  0.47700  0.01500  1.0000
  C   C10       1.0  0.65700  0.52300  0.51500  1.0000
  C   C11       1.0  0.15700  0.97700  0.01500  1.0000
  C   C12       1.0  0.15700  0.02300  0.51500  1.0000
  H   H9        1.0  0.65100  0.57600  0.92400  1.0000
  H   H10       1.0  0.65100  0.42400  0.42400  1.0000
  H   H11       1.0  0.15100  0.07600  0.92400  1.0000
  H   H12       1.0  0.15100  0.92400  0.42400  1.0000
