data_image0
_chemical_formula_structural       O4C4H4C4H4C4H4O12Mn4O8
_chemical_formula_sum              "O24 C12 H12 Mn4"
_cell_length_a       14.345
_cell_length_b       8.3232
_cell_length_c       8.8793
_cell_angle_alpha    90
_cell_angle_beta     120.694
_cell_angle_gamma    90

_space_group_name_H-M_alt    "P 1"
_space_group_IT_number       1

loop_
  _space_group_symop_operation_xyz
  'x, y, z'

loop_
  _atom_site_type_symbol
  _atom_site_label
  _atom_site_symmetry_multiplicity
  _atom_site_fract_x
  _atom_site_fract_y
  _atom_site_fract_z
  _atom_site_occupancy
  O   O1        1.0  0.23400  0.35650  0.06180  1.0000
  O   O2        1.0  0.23400  0.64350  0.56180  1.0000
  O   O3        1.0  0.73400  0.85650  0.06180  1.0000
  O   O4        1.0  0.73400  0.14350  0.56180  1.0000
  C   C1        1.0  0.32420  0.28810  0.14710  1.0000
  C   C2        1.0  0.32420  0.71190  0.64710  1.0000
  C   C3        1.0  0.82420  0.78810  0.14710  1.0000
  C   C4        1.0  0.82420  0.21190  0.64710  1.0000
  H   H1        1.0  0.32480  0.17640  0.14800  1.0000
  H   H2        1.0  0.32480  0.82360  0.64800  1.0000
  H   H3        1.0  0.82480  0.67640  0.14800  1.0000
  H   H4        1.0  0.82480  0.32360  0.64800  1.0000
  C   C5        1.0  0.05020  0.52810  0.65090  1.0000
  C   C6        1.0  0.05020  0.47190  0.15090  1.0000
  C   C7        1.0  0.55020  0.02810  0.65090  1.0000
  C   C8        1.0  0.55020  0.97190  0.15090  1.0000
  H   H5        1.0  0.09750  0.46550  0.63320  1.0000
  H   H6        1.0  0.09750  0.53450  0.13320  1.0000
  H   H7        1.0  0.59750  0.96550  0.63320  1.0000
  H   H8        1.0  0.59750  0.03450  0.13320  1.0000
  C   C9        1.0  0.11170  0.02460  0.65660  1.0000
  C   C10       1.0  0.11170  0.97540  0.15660  1.0000
  C   C11       1.0  0.61170  0.52460  0.65660  1.0000
  C   C12       1.0  0.61170  0.47540  0.15660  1.0000
  H   H9        1.0  0.09410  0.94630  0.71280  1.0000
  H   H10       1.0  0.09410  0.05370  0.21280  1.0000
  H   H11       1.0  0.59410  0.44630  0.71280  1.0000
  H   H12       1.0  0.59410  0.55370  0.21280  1.0000
  O   O5        1.0  0.02220  0.66150  0.57530  1.0000
  O   O6        1.0  0.02220  0.33850  0.07530  1.0000
  O   O7        1.0  0.52220  0.16150  0.57530  1.0000
  O   O8        1.0  0.52220  0.83850  0.07530  1.0000
  O   O9        1.0  0.41320  0.35820  0.23050  1.0000
  O   O10       1.0  0.41320  0.64180  0.73050  1.0000
  O   O11       1.0  0.91320  0.85820  0.23050  1.0000
  O   O12       1.0  0.91320  0.14180  0.73050  1.0000
  O   O13       1.0  0.12120  0.97830  0.53090  1.0000
  O   O14       1.0  0.12120  0.02170  0.03090  1.0000
  O   O15       1.0  0.62120  0.47830  0.53090  1.0000
  O   O16       1.0  0.62120  0.52170  0.03090  1.0000
  Mn  Mn1       1.0  0.07462  0.24816  0.89620  1.0000
  Mn  Mn2       1.0  0.07462  0.75184  0.39620  1.0000
  Mn  Mn3       1.0  0.57462  0.74816  0.89620  1.0000
  Mn  Mn4       1.0  0.57462  0.25184  0.39620  1.0000
  O   O17       1.0  0.12320  0.16550  0.71550  1.0000
  O   O18       1.0  0.12320  0.83450  0.21550  1.0000
  O   O19       1.0  0.62320  0.66550  0.71550  1.0000
  O   O20       1.0  0.62320  0.33450  0.21550  1.0000
  O   O21       1.0  0.01870  0.47370  0.74880  1.0000
  O   O22       1.0  0.01870  0.52630  0.24880  1.0000
  O   O23       1.0  0.51870  0.97370  0.74880  1.0000
  O   O24       1.0  0.51870  0.02630  0.24880  1.0000
