data_image0
_chemical_formula_structural       Co6O36C18H18
_chemical_formula_sum              "Co6 O36 C18 H18"
_cell_length_a       8.1989
_cell_length_b       8.1989
_cell_length_c       22.224
_cell_angle_alpha    90
_cell_angle_beta     90
_cell_angle_gamma    120

_space_group_name_H-M_alt    "P 1"
_space_group_IT_number       1

loop_
  _space_group_symop_operation_xyz
  'x, y, z'

loop_
  _atom_site_type_symbol
  _atom_site_label
  _atom_site_symmetry_multiplicity
  _atom_site_fract_x
  _atom_site_fract_y
  _atom_site_fract_z
  _atom_site_occupancy
  Co  Co1       1.0  0.33330  0.66670  0.16670  1.0000
  Co  Co2       1.0  0.66670  0.33330  0.33330  1.0000
  Co  Co3       1.0  0.99997  0.00003  0.50003  1.0000
  Co  Co4       1.0  0.33337  0.66663  0.66663  1.0000
  Co  Co5       1.0  0.66663  0.33337  0.83337  1.0000
  Co  Co6       1.0  0.00003  0.99997  0.99997  1.0000
  O   O1        1.0  0.34145  0.45821  0.11327  1.0000
  O   O2        1.0  0.54179  0.88324  0.11327  1.0000
  O   O3        1.0  0.11676  0.65855  0.11327  1.0000
  O   O4        1.0  0.45821  0.34145  0.38673  1.0000
  O   O5        1.0  0.00812  0.79154  0.44660  1.0000
  O   O6        1.0  0.20846  0.21657  0.44660  1.0000
  O   O7        1.0  0.78343  0.99188  0.44660  1.0000
  O   O8        1.0  0.12488  0.67478  0.72006  1.0000
  O   O9        1.0  0.67478  0.12488  0.77994  1.0000
  O   O10       1.0  0.79154  0.00812  0.05340  1.0000
  O   O11       1.0  0.88324  0.54179  0.38673  1.0000
  O   O12       1.0  0.65855  0.11676  0.38673  1.0000
  O   O13       1.0  0.87512  0.54991  0.77994  1.0000
  O   O14       1.0  0.45009  0.32522  0.77994  1.0000
  O   O15       1.0  0.21657  0.20846  0.05340  1.0000
  O   O16       1.0  0.99188  0.78343  0.05340  1.0000
  O   O17       1.0  0.54991  0.87512  0.72006  1.0000
  O   O18       1.0  0.32522  0.45009  0.72006  1.0000
  O   O19       1.0  0.65855  0.54179  0.88673  1.0000
  O   O20       1.0  0.45821  0.11676  0.88673  1.0000
  O   O21       1.0  0.88324  0.34145  0.88673  1.0000
  O   O22       1.0  0.54179  0.65855  0.61327  1.0000
  O   O23       1.0  0.99188  0.20846  0.55340  1.0000
  O   O24       1.0  0.79154  0.78343  0.55340  1.0000
  O   O25       1.0  0.21657  0.00812  0.55340  1.0000
  O   O26       1.0  0.87512  0.32522  0.27994  1.0000
  O   O27       1.0  0.32522  0.87512  0.22006  1.0000
  O   O28       1.0  0.20846  0.99188  0.94660  1.0000
  O   O29       1.0  0.11676  0.45821  0.61327  1.0000
  O   O30       1.0  0.34145  0.88324  0.61327  1.0000
  O   O31       1.0  0.12488  0.45009  0.22006  1.0000
  O   O32       1.0  0.54991  0.67478  0.22006  1.0000
  O   O33       1.0  0.78343  0.79154  0.94660  1.0000
  O   O34       1.0  0.00812  0.21657  0.94660  1.0000
  O   O35       1.0  0.45009  0.12488  0.27994  1.0000
  O   O36       1.0  0.67478  0.54991  0.27994  1.0000
  C   C1        1.0  0.20900  0.33330  0.08330  1.0000
  C   C2        1.0  0.66670  0.87570  0.08330  1.0000
  C   C3        1.0  0.12430  0.79100  0.08330  1.0000
  C   C4        1.0  0.33330  0.20900  0.41670  1.0000
  C   C5        1.0  0.87567  0.66663  0.41663  1.0000
  C   C6        1.0  0.79097  0.12433  0.41663  1.0000
  C   C7        1.0  0.99997  0.54233  0.75003  1.0000
  C   C8        1.0  0.54233  0.99997  0.74997  1.0000
  C   C9        1.0  0.45763  0.45767  0.74997  1.0000
  C   C10       1.0  0.79100  0.66670  0.91670  1.0000
  C   C11       1.0  0.33330  0.12430  0.91670  1.0000
  C   C12       1.0  0.87570  0.20900  0.91670  1.0000
  C   C13       1.0  0.66670  0.79100  0.58330  1.0000
  C   C14       1.0  0.12433  0.33337  0.58337  1.0000
  C   C15       1.0  0.20903  0.87567  0.58337  1.0000
  C   C16       1.0  0.00003  0.45767  0.24997  1.0000
  C   C17       1.0  0.45767  0.00003  0.25003  1.0000
  C   C18       1.0  0.54237  0.54233  0.25003  1.0000
  H   H1        1.0  0.09560  0.33330  0.08330  1.0000
  H   H2        1.0  0.66670  0.76230  0.08330  1.0000
  H   H3        1.0  0.23770  0.90440  0.08330  1.0000
  H   H4        1.0  0.33330  0.09560  0.41670  1.0000
  H   H5        1.0  0.76227  0.66663  0.41663  1.0000
  H   H6        1.0  0.90437  0.23773  0.41663  1.0000
  H   H7        1.0  0.99997  0.42893  0.75003  1.0000
  H   H8        1.0  0.42893  0.99997  0.74997  1.0000
  H   H9        1.0  0.57103  0.57107  0.74997  1.0000
  H   H10       1.0  0.90440  0.66670  0.91670  1.0000
  H   H11       1.0  0.33330  0.23770  0.91670  1.0000
  H   H12       1.0  0.76230  0.09560  0.91670  1.0000
  H   H13       1.0  0.66670  0.90440  0.58330  1.0000
  H   H14       1.0  0.23773  0.33337  0.58337  1.0000
  H   H15       1.0  0.09563  0.76227  0.58337  1.0000
  H   H16       1.0  0.00003  0.57107  0.24997  1.0000
  H   H17       1.0  0.57107  0.00003  0.25003  1.0000
  H   H18       1.0  0.42897  0.42893  0.25003  1.0000
