data_image0
_chemical_formula_structural       Ni6O36C18H18
_chemical_formula_sum              "Ni6 O36 C18 H18"
_cell_length_a       8.1989
_cell_length_b       8.1989
_cell_length_c       22.224
_cell_angle_alpha    90
_cell_angle_beta     90
_cell_angle_gamma    120

_space_group_name_H-M_alt    "P 1"
_space_group_IT_number       1

loop_
  _space_group_symop_operation_xyz
  'x, y, z'

loop_
  _atom_site_type_symbol
  _atom_site_label
  _atom_site_symmetry_multiplicity
  _atom_site_fract_x
  _atom_site_fract_y
  _atom_site_fract_z
  _atom_site_occupancy
  Ni  Ni1       1.0  0.33330  0.66670  0.16670  1.0000
  Ni  Ni2       1.0  0.66670  0.33330  0.33330  1.0000
  Ni  Ni3       1.0  0.99997  0.00003  0.50003  1.0000
  Ni  Ni4       1.0  0.33337  0.66663  0.66663  1.0000
  Ni  Ni5       1.0  0.66663  0.33337  0.83337  1.0000
  Ni  Ni6       1.0  0.00003  0.99997  0.99997  1.0000
  O   O1        1.0  0.33975  0.45908  0.11342  1.0000
  O   O2        1.0  0.54092  0.88067  0.11342  1.0000
  O   O3        1.0  0.11933  0.66025  0.11342  1.0000
  O   O4        1.0  0.45908  0.33975  0.38658  1.0000
  O   O5        1.0  0.00642  0.79241  0.44675  1.0000
  O   O6        1.0  0.20759  0.21400  0.44675  1.0000
  O   O7        1.0  0.78600  0.99358  0.44675  1.0000
  O   O8        1.0  0.12575  0.67308  0.71991  1.0000
  O   O9        1.0  0.67308  0.12575  0.78009  1.0000
  O   O10       1.0  0.79241  0.00642  0.05325  1.0000
  O   O11       1.0  0.88067  0.54092  0.38658  1.0000
  O   O12       1.0  0.66025  0.11933  0.38658  1.0000
  O   O13       1.0  0.87425  0.54734  0.78009  1.0000
  O   O14       1.0  0.45266  0.32692  0.78009  1.0000
  O   O15       1.0  0.21400  0.20759  0.05325  1.0000
  O   O16       1.0  0.99358  0.78600  0.05325  1.0000
  O   O17       1.0  0.54734  0.87425  0.71991  1.0000
  O   O18       1.0  0.32692  0.45266  0.71991  1.0000
  O   O19       1.0  0.66025  0.54092  0.88658  1.0000
  O   O20       1.0  0.45908  0.11933  0.88658  1.0000
  O   O21       1.0  0.88067  0.33975  0.88658  1.0000
  O   O22       1.0  0.54092  0.66025  0.61342  1.0000
  O   O23       1.0  0.99358  0.20759  0.55325  1.0000
  O   O24       1.0  0.79241  0.78600  0.55325  1.0000
  O   O25       1.0  0.21400  0.00642  0.55325  1.0000
  O   O26       1.0  0.87425  0.32692  0.28009  1.0000
  O   O27       1.0  0.32692  0.87425  0.21991  1.0000
  O   O28       1.0  0.20759  0.99358  0.94675  1.0000
  O   O29       1.0  0.11933  0.45908  0.61342  1.0000
  O   O30       1.0  0.33975  0.88067  0.61342  1.0000
  O   O31       1.0  0.12575  0.45266  0.21991  1.0000
  O   O32       1.0  0.54734  0.67308  0.21991  1.0000
  O   O33       1.0  0.78600  0.79241  0.94675  1.0000
  O   O34       1.0  0.00642  0.21400  0.94675  1.0000
  O   O35       1.0  0.45266  0.12575  0.28009  1.0000
  O   O36       1.0  0.67308  0.54734  0.28009  1.0000
  C   C1        1.0  0.20660  0.33330  0.08330  1.0000
  C   C2        1.0  0.66670  0.87330  0.08330  1.0000
  C   C3        1.0  0.12670  0.79340  0.08330  1.0000
  C   C4        1.0  0.33330  0.20660  0.41670  1.0000
  C   C5        1.0  0.87327  0.66663  0.41663  1.0000
  C   C6        1.0  0.79337  0.12673  0.41663  1.0000
  C   C7        1.0  0.99997  0.53993  0.75003  1.0000
  C   C8        1.0  0.53993  0.99997  0.74997  1.0000
  C   C9        1.0  0.46003  0.46007  0.74997  1.0000
  C   C10       1.0  0.79340  0.66670  0.91670  1.0000
  C   C11       1.0  0.33330  0.12670  0.91670  1.0000
  C   C12       1.0  0.87330  0.20660  0.91670  1.0000
  C   C13       1.0  0.66670  0.79340  0.58330  1.0000
  C   C14       1.0  0.12673  0.33337  0.58337  1.0000
  C   C15       1.0  0.20663  0.87327  0.58337  1.0000
  C   C16       1.0  0.00003  0.46007  0.24997  1.0000
  C   C17       1.0  0.46007  0.00003  0.25003  1.0000
  C   C18       1.0  0.53997  0.53993  0.25003  1.0000
  H   H1        1.0  0.09310  0.33330  0.08330  1.0000
  H   H2        1.0  0.66670  0.75980  0.08330  1.0000
  H   H3        1.0  0.24020  0.90690  0.08330  1.0000
  H   H4        1.0  0.33330  0.09310  0.41670  1.0000
  H   H5        1.0  0.75977  0.66663  0.41663  1.0000
  H   H6        1.0  0.90687  0.24023  0.41663  1.0000
  H   H7        1.0  0.99997  0.42643  0.75003  1.0000
  H   H8        1.0  0.42643  0.99997  0.74997  1.0000
  H   H9        1.0  0.57353  0.57357  0.74997  1.0000
  H   H10       1.0  0.90690  0.66670  0.91670  1.0000
  H   H11       1.0  0.33330  0.24020  0.91670  1.0000
  H   H12       1.0  0.75980  0.09310  0.91670  1.0000
  H   H13       1.0  0.66670  0.90690  0.58330  1.0000
  H   H14       1.0  0.24023  0.33337  0.58337  1.0000
  H   H15       1.0  0.09313  0.75977  0.58337  1.0000
  H   H16       1.0  0.00003  0.57357  0.24997  1.0000
  H   H17       1.0  0.57357  0.00003  0.25003  1.0000
  H   H18       1.0  0.42647  0.42643  0.25003  1.0000
