data_image0
_chemical_formula_structural       Ni12O64C16H8C16H8C8H8C8H8C32H8C16H8C8H8C8H8C16
_chemical_formula_sum              "Ni12 O64 C128 H64"
_cell_length_a       15.4912
_cell_length_b       11.6687
_cell_length_c       23.7502
_cell_angle_alpha    90
_cell_angle_beta     90
_cell_angle_gamma    90

_space_group_name_H-M_alt    "P 1"
_space_group_IT_number       1

loop_
  _space_group_symop_operation_xyz
  'x, y, z'

loop_
  _atom_site_type_symbol
  _atom_site_label
  _atom_site_symmetry_multiplicity
  _atom_site_fract_x
  _atom_site_fract_y
  _atom_site_fract_z
  _atom_site_occupancy
  Ni  Ni1       1.0  0.00000  0.50000  0.00000  1.0000
  Ni  Ni2       1.0  0.50000  0.50000  0.50000  1.0000
  Ni  Ni3       1.0  0.00000  0.00000  0.50000  1.0000
  Ni  Ni4       1.0  0.50000  0.00000  0.00000  1.0000
  Ni  Ni5       1.0  0.04698  0.35733  0.12311  1.0000
  Ni  Ni6       1.0  0.45302  0.64267  0.62311  1.0000
  Ni  Ni7       1.0  0.95302  0.85733  0.37689  1.0000
  Ni  Ni8       1.0  0.54698  0.14267  0.87689  1.0000
  Ni  Ni9       1.0  0.95302  0.64267  0.87689  1.0000
  Ni  Ni10      1.0  0.54698  0.35733  0.37689  1.0000
  Ni  Ni11      1.0  0.04698  0.14267  0.62311  1.0000
  Ni  Ni12      1.0  0.45302  0.85733  0.12311  1.0000
  O   O1        1.0  0.15795  0.28741  0.08386  1.0000
  O   O2        1.0  0.34205  0.71259  0.58386  1.0000
  O   O3        1.0  0.84205  0.78741  0.41614  1.0000
  O   O4        1.0  0.65795  0.21259  0.91614  1.0000
  O   O5        1.0  0.84205  0.71259  0.91614  1.0000
  O   O6        1.0  0.65795  0.28741  0.41614  1.0000
  O   O7        1.0  0.15795  0.21259  0.58386  1.0000
  O   O8        1.0  0.34205  0.78741  0.08386  1.0000
  O   O9        1.0  0.09892  0.44945  0.05684  1.0000
  O   O10       1.0  0.40108  0.55055  0.55684  1.0000
  O   O11       1.0  0.90108  0.94945  0.44316  1.0000
  O   O12       1.0  0.59892  0.05055  0.94316  1.0000
  O   O13       1.0  0.90108  0.55055  0.94316  1.0000
  O   O14       1.0  0.59892  0.44945  0.44316  1.0000
  O   O15       1.0  0.09892  0.05055  0.55684  1.0000
  O   O16       1.0  0.40108  0.94945  0.05684  1.0000
  O   O17       1.0  0.44279  0.15831  0.00153  1.0000
  O   O18       1.0  0.05721  0.84169  0.50153  1.0000
  O   O19       1.0  0.55721  0.65831  0.49847  1.0000
  O   O20       1.0  0.94279  0.34169  0.99847  1.0000
  O   O21       1.0  0.55721  0.84169  0.99847  1.0000
  O   O22       1.0  0.94279  0.15831  0.49847  1.0000
  O   O23       1.0  0.44279  0.34169  0.50153  1.0000
  O   O24       1.0  0.05721  0.65831  0.00153  1.0000
  O   O25       1.0  0.46705  0.24271  0.91802  1.0000
  O   O26       1.0  0.03295  0.75729  0.41802  1.0000
  O   O27       1.0  0.53295  0.74271  0.58198  1.0000
  O   O28       1.0  0.96705  0.25729  0.08198  1.0000
  O   O29       1.0  0.53295  0.75729  0.08198  1.0000
  O   O30       1.0  0.96705  0.24271  0.58198  1.0000
  O   O31       1.0  0.46705  0.25729  0.41802  1.0000
  O   O32       1.0  0.03295  0.74271  0.91802  1.0000
  O   O33       1.0  0.86427  0.90019  0.30551  1.0000
  O   O34       1.0  0.63573  0.09981  0.80551  1.0000
  O   O35       1.0  0.13573  0.40019  0.19449  1.0000
  O   O36       1.0  0.36427  0.59981  0.69449  1.0000
  O   O37       1.0  0.13573  0.09981  0.69449  1.0000
  O   O38       1.0  0.36427  0.90019  0.19449  1.0000
  O   O39       1.0  0.86427  0.59981  0.80551  1.0000
  O   O40       1.0  0.63573  0.40019  0.30551  1.0000
  O   O41       1.0  0.95286  0.75446  0.30710  1.0000
  O   O42       1.0  0.54714  0.24554  0.80710  1.0000
  O   O43       1.0  0.04714  0.25446  0.19290  1.0000
  O   O44       1.0  0.45286  0.74554  0.69290  1.0000
  O   O45       1.0  0.04714  0.24554  0.69290  1.0000
  O   O46       1.0  0.45286  0.75446  0.19290  1.0000
  O   O47       1.0  0.95286  0.74554  0.80710  1.0000
  O   O48       1.0  0.54714  0.25446  0.30710  1.0000
  O   O49       1.0  0.92689  0.55096  0.06680  1.0000
  O   O50       1.0  0.57311  0.44904  0.56680  1.0000
  O   O51       1.0  0.07311  0.05096  0.43320  1.0000
  O   O52       1.0  0.42689  0.94904  0.93320  1.0000
  O   O53       1.0  0.07311  0.44904  0.93320  1.0000
  O   O54       1.0  0.42689  0.55096  0.43320  1.0000
  O   O55       1.0  0.92689  0.94904  0.56680  1.0000
  O   O56       1.0  0.57311  0.05096  0.06680  1.0000
  O   O57       1.0  0.96081  0.47185  0.15059  1.0000
  O   O58       1.0  0.53919  0.52815  0.65059  1.0000
  O   O59       1.0  0.03919  0.97185  0.34941  1.0000
  O   O60       1.0  0.46081  0.02815  0.84941  1.0000
  O   O61       1.0  0.03919  0.52815  0.84941  1.0000
  O   O62       1.0  0.46081  0.47185  0.34941  1.0000
  O   O63       1.0  0.96081  0.02815  0.65059  1.0000
  O   O64       1.0  0.53919  0.97185  0.15059  1.0000
  C   C1        1.0  0.23919  0.39990  0.01992  1.0000
  C   C2        1.0  0.26081  0.60010  0.51992  1.0000
  C   C3        1.0  0.76081  0.89990  0.48008  1.0000
  C   C4        1.0  0.73919  0.10010  0.98008  1.0000
  C   C5        1.0  0.76081  0.60010  0.98008  1.0000
  C   C6        1.0  0.73919  0.39990  0.48008  1.0000
  C   C7        1.0  0.23919  0.10010  0.51992  1.0000
  C   C8        1.0  0.26081  0.89990  0.01992  1.0000
  C   C9        1.0  0.30005  0.31420  0.01263  1.0000
  C   C10       1.0  0.19995  0.68580  0.51263  1.0000
  C   C11       1.0  0.69995  0.81420  0.48737  1.0000
  C   C12       1.0  0.80005  0.18580  0.98737  1.0000
  C   C13       1.0  0.69995  0.68580  0.98737  1.0000
  C   C14       1.0  0.80005  0.31420  0.48737  1.0000
  C   C15       1.0  0.30005  0.18580  0.51263  1.0000
  C   C16       1.0  0.19995  0.81420  0.01263  1.0000
  H   H1        1.0  0.29180  0.24350  0.02990  1.0000
  H   H2        1.0  0.20820  0.75650  0.52990  1.0000
  H   H3        1.0  0.70820  0.74350  0.47010  1.0000
  H   H4        1.0  0.79180  0.25650  0.97010  1.0000
  H   H5        1.0  0.70820  0.75650  0.97010  1.0000
  H   H6        1.0  0.79180  0.24350  0.47010  1.0000
  H   H7        1.0  0.29180  0.25650  0.52990  1.0000
  H   H8        1.0  0.20820  0.74350  0.02990  1.0000
  C   C17       1.0  0.37295  0.33200  0.98002  1.0000
  C   C18       1.0  0.12705  0.66800  0.48002  1.0000
  C   C19       1.0  0.62705  0.83200  0.51998  1.0000
  C   C20       1.0  0.87295  0.16800  0.01998  1.0000
  C   C21       1.0  0.62705  0.66800  0.01998  1.0000
  C   C22       1.0  0.87295  0.33200  0.51998  1.0000
  C   C23       1.0  0.37295  0.16800  0.48002  1.0000
  C   C24       1.0  0.12705  0.83200  0.98002  1.0000
  C   C25       1.0  0.38650  0.44140  0.95776  1.0000
  C   C26       1.0  0.11350  0.55860  0.45776  1.0000
  C   C27       1.0  0.61350  0.94140  0.54224  1.0000
  C   C28       1.0  0.88650  0.05860  0.04224  1.0000
  C   C29       1.0  0.61350  0.55860  0.04224  1.0000
  C   C30       1.0  0.88650  0.44140  0.54224  1.0000
  C   C31       1.0  0.38650  0.05860  0.45776  1.0000
  C   C32       1.0  0.11350  0.94140  0.95776  1.0000
  H   H9        1.0  0.43550  0.45580  0.93630  1.0000
  H   H10       1.0  0.06450  0.54420  0.43630  1.0000
  H   H11       1.0  0.56450  0.95580  0.56370  1.0000
  H   H12       1.0  0.93550  0.04420  0.06370  1.0000
  H   H13       1.0  0.56450  0.54420  0.06370  1.0000
  H   H14       1.0  0.93550  0.45580  0.56370  1.0000
  H   H15       1.0  0.43550  0.04420  0.43630  1.0000
  H   H16       1.0  0.06450  0.95580  0.93630  1.0000
  C   C33       1.0  0.32794  0.52810  0.96732  1.0000
  C   C34       1.0  0.17206  0.47190  0.46732  1.0000
  C   C35       1.0  0.67206  0.02810  0.53268  1.0000
  C   C36       1.0  0.82794  0.97190  0.03268  1.0000
  C   C37       1.0  0.67206  0.47190  0.03268  1.0000
  C   C38       1.0  0.82794  0.52810  0.53268  1.0000
  C   C39       1.0  0.32794  0.97190  0.46732  1.0000
  C   C40       1.0  0.17206  0.02810  0.96732  1.0000
  H   H17       1.0  0.33910  0.60130  0.95380  1.0000
  H   H18       1.0  0.16090  0.39870  0.45380  1.0000
  H   H19       1.0  0.66090  0.10130  0.54620  1.0000
  H   H20       1.0  0.83910  0.89870  0.04620  1.0000
  H   H21       1.0  0.66090  0.39870  0.04620  1.0000
  H   H22       1.0  0.83910  0.60130  0.54620  1.0000
  H   H23       1.0  0.33910  0.89870  0.45380  1.0000
  H   H24       1.0  0.16090  0.10130  0.95380  1.0000
  C   C41       1.0  0.25214  0.50690  0.99714  1.0000
  C   C42       1.0  0.24786  0.49310  0.49714  1.0000
  C   C43       1.0  0.74786  0.00690  0.50286  1.0000
  C   C44       1.0  0.75214  0.99310  0.00286  1.0000
  C   C45       1.0  0.74786  0.49310  0.00286  1.0000
  C   C46       1.0  0.75214  0.50690  0.50286  1.0000
  C   C47       1.0  0.25214  0.99310  0.49714  1.0000
  C   C48       1.0  0.24786  0.00690  0.99714  1.0000
  H   H25       1.0  0.21100  0.56420  0.00160  1.0000
  H   H26       1.0  0.28900  0.43580  0.50160  1.0000
  H   H27       1.0  0.78900  0.06420  0.49840  1.0000
  H   H28       1.0  0.71100  0.93580  0.99840  1.0000
  H   H29       1.0  0.78900  0.43580  0.99840  1.0000
  H   H30       1.0  0.71100  0.56420  0.49840  1.0000
  H   H31       1.0  0.21100  0.93580  0.50160  1.0000
  H   H32       1.0  0.28900  0.06420  0.00160  1.0000
  C   C49       1.0  0.16141  0.37620  0.05426  1.0000
  C   C50       1.0  0.33859  0.62380  0.55426  1.0000
  C   C51       1.0  0.83859  0.87620  0.44574  1.0000
  C   C52       1.0  0.66141  0.12380  0.94574  1.0000
  C   C53       1.0  0.83859  0.62380  0.94574  1.0000
  C   C54       1.0  0.66141  0.37620  0.44574  1.0000
  C   C55       1.0  0.16141  0.12380  0.55426  1.0000
  C   C56       1.0  0.33859  0.87620  0.05426  1.0000
  C   C57       1.0  0.43357  0.23510  0.96601  1.0000
  C   C58       1.0  0.06643  0.76490  0.46601  1.0000
  C   C59       1.0  0.56643  0.73510  0.53399  1.0000
  C   C60       1.0  0.93357  0.26490  0.03399  1.0000
  C   C61       1.0  0.56643  0.76490  0.03399  1.0000
  C   C62       1.0  0.93357  0.23510  0.53399  1.0000
  C   C63       1.0  0.43357  0.26490  0.46601  1.0000
  C   C64       1.0  0.06643  0.73510  0.96601  1.0000
  C   C65       1.0  0.86343  0.77270  0.22684  1.0000
  C   C66       1.0  0.63657  0.22730  0.72684  1.0000
  C   C67       1.0  0.13657  0.27270  0.27316  1.0000
  C   C68       1.0  0.36343  0.72730  0.77316  1.0000
  C   C69       1.0  0.13657  0.22730  0.77316  1.0000
  C   C70       1.0  0.36343  0.77270  0.27316  1.0000
  C   C71       1.0  0.86343  0.72730  0.72684  1.0000
  C   C72       1.0  0.63657  0.27270  0.22684  1.0000
  C   C73       1.0  0.90081  0.67680  0.20173  1.0000
  C   C74       1.0  0.59919  0.32320  0.70173  1.0000
  C   C75       1.0  0.09919  0.17680  0.29827  1.0000
  C   C76       1.0  0.40081  0.82320  0.79827  1.0000
  C   C77       1.0  0.09919  0.32320  0.79827  1.0000
  C   C78       1.0  0.40081  0.67680  0.29827  1.0000
  C   C79       1.0  0.90081  0.82320  0.70173  1.0000
  C   C80       1.0  0.59919  0.17680  0.20173  1.0000
  H   H33       1.0  0.94250  0.63540  0.22120  1.0000
  H   H34       1.0  0.55750  0.36460  0.72120  1.0000
  H   H35       1.0  0.05750  0.13540  0.27880  1.0000
  H   H36       1.0  0.44250  0.86460  0.77880  1.0000
  H   H37       1.0  0.05750  0.36460  0.77880  1.0000
  H   H38       1.0  0.44250  0.63540  0.27880  1.0000
  H   H39       1.0  0.94250  0.86460  0.72120  1.0000
  H   H40       1.0  0.55750  0.13540  0.22120  1.0000
  C   C81       1.0  0.87685  0.64230  0.14821  1.0000
  C   C82       1.0  0.62315  0.35770  0.64821  1.0000
  C   C83       1.0  0.12315  0.14230  0.35179  1.0000
  C   C84       1.0  0.37685  0.85770  0.85179  1.0000
  C   C85       1.0  0.12315  0.35770  0.85179  1.0000
  C   C86       1.0  0.37685  0.64230  0.35179  1.0000
  C   C87       1.0  0.87685  0.85770  0.64821  1.0000
  C   C88       1.0  0.62315  0.14230  0.14821  1.0000
  C   C89       1.0  0.81298  0.70180  0.12097  1.0000
  C   C90       1.0  0.68702  0.29820  0.62097  1.0000
  C   C91       1.0  0.18702  0.20180  0.37903  1.0000
  C   C92       1.0  0.31298  0.79820  0.87903  1.0000
  C   C93       1.0  0.18702  0.29820  0.87903  1.0000
  C   C94       1.0  0.31298  0.70180  0.37903  1.0000
  C   C95       1.0  0.81298  0.79820  0.62097  1.0000
  C   C96       1.0  0.68702  0.20180  0.12097  1.0000
  H   H41       1.0  0.79630  0.67900  0.08510  1.0000
  H   H42       1.0  0.70370  0.32100  0.58510  1.0000
  H   H43       1.0  0.20370  0.17900  0.41490  1.0000
  H   H44       1.0  0.29630  0.82100  0.91490  1.0000
  H   H45       1.0  0.20370  0.32100  0.91490  1.0000
  H   H46       1.0  0.29630  0.67900  0.41490  1.0000
  H   H47       1.0  0.79630  0.82100  0.58510  1.0000
  H   H48       1.0  0.70370  0.17900  0.08510  1.0000
  C   C97       1.0  0.77283  0.79510  0.14569  1.0000
  C   C98       1.0  0.72717  0.20490  0.64569  1.0000
  C   C99       1.0  0.22717  0.29510  0.35431  1.0000
  C   C100      1.0  0.27283  0.70490  0.85431  1.0000
  C   C101      1.0  0.22717  0.20490  0.85431  1.0000
  C   C102      1.0  0.27283  0.79510  0.35431  1.0000
  C   C103      1.0  0.77283  0.70490  0.64569  1.0000
  C   C104      1.0  0.72717  0.29510  0.14569  1.0000
  H   H49       1.0  0.72890  0.83350  0.12690  1.0000
  H   H50       1.0  0.77110  0.16650  0.62690  1.0000
  H   H51       1.0  0.27110  0.33350  0.37310  1.0000
  H   H52       1.0  0.22890  0.66650  0.87310  1.0000
  H   H53       1.0  0.27110  0.16650  0.87310  1.0000
  H   H54       1.0  0.22890  0.83350  0.37310  1.0000
  H   H55       1.0  0.72890  0.66650  0.62690  1.0000
  H   H56       1.0  0.77110  0.33350  0.12690  1.0000
  C   C105      1.0  0.79869  0.83060  0.19877  1.0000
  C   C106      1.0  0.70131  0.16940  0.69877  1.0000
  C   C107      1.0  0.20131  0.33060  0.30123  1.0000
  C   C108      1.0  0.29869  0.66940  0.80123  1.0000
  C   C109      1.0  0.20131  0.16940  0.80123  1.0000
  C   C110      1.0  0.29869  0.83060  0.30123  1.0000
  C   C111      1.0  0.79869  0.66940  0.69877  1.0000
  C   C112      1.0  0.70131  0.33060  0.19877  1.0000
  H   H57       1.0  0.77240  0.89360  0.21550  1.0000
  H   H58       1.0  0.72760  0.10640  0.71550  1.0000
  H   H59       1.0  0.22760  0.39360  0.28450  1.0000
  H   H60       1.0  0.27240  0.60640  0.78450  1.0000
  H   H61       1.0  0.22760  0.10640  0.78450  1.0000
  H   H62       1.0  0.27240  0.89360  0.28450  1.0000
  H   H63       1.0  0.77240  0.60640  0.71550  1.0000
  H   H64       1.0  0.72760  0.39360  0.21550  1.0000
  C   C113      1.0  0.89356  0.81210  0.28359  1.0000
  C   C114      1.0  0.60644  0.18790  0.78359  1.0000
  C   C115      1.0  0.10644  0.31210  0.21641  1.0000
  C   C116      1.0  0.39356  0.68790  0.71641  1.0000
  C   C117      1.0  0.10644  0.18790  0.71641  1.0000
  C   C118      1.0  0.39356  0.81210  0.21641  1.0000
  C   C119      1.0  0.89356  0.68790  0.78359  1.0000
  C   C120      1.0  0.60644  0.31210  0.28359  1.0000
  C   C121      1.0  0.92502  0.54630  0.11937  1.0000
  C   C122      1.0  0.57498  0.45370  0.61937  1.0000
  C   C123      1.0  0.07498  0.04630  0.38063  1.0000
  C   C124      1.0  0.42502  0.95370  0.88063  1.0000
  C   C125      1.0  0.07498  0.45370  0.88063  1.0000
  C   C126      1.0  0.42502  0.54630  0.38063  1.0000
  C   C127      1.0  0.92502  0.95370  0.61937  1.0000
  C   C128      1.0  0.57498  0.04630  0.11937  1.0000
