data_image0
_chemical_formula_structural       Mn6O32C8H4C8H4C4H4C4H4C16H4C8H4C4H4C4H4C8
_chemical_formula_sum              "Mn6 O32 C64 H32"
_cell_length_a       13.092
_cell_length_b       14.49
_cell_length_c       12.64
_cell_angle_alpha    90
_cell_angle_beta     116.85
_cell_angle_gamma    90

_space_group_name_H-M_alt    "P 1"
_space_group_IT_number       1

loop_
  _space_group_symop_operation_xyz
  'x, y, z'

loop_
  _atom_site_type_symbol
  _atom_site_label
  _atom_site_symmetry_multiplicity
  _atom_site_fract_x
  _atom_site_fract_y
  _atom_site_fract_z
  _atom_site_occupancy
  Mn  Mn1       1.0  0.00000  0.50000  0.00000  1.0000
  Mn  Mn2       1.0  0.00000  0.00000  0.50000  1.0000
  Mn  Mn3       1.0  0.27135  0.44289  0.24477  1.0000
  Mn  Mn4       1.0  0.72865  0.94289  0.25523  1.0000
  Mn  Mn5       1.0  0.72865  0.55711  0.75523  1.0000
  Mn  Mn6       1.0  0.27135  0.05711  0.74477  1.0000
  O   O1        1.0  0.97150  0.05690  0.32830  1.0000
  O   O2        1.0  0.02850  0.55690  0.17170  1.0000
  O   O3        1.0  0.02850  0.94310  0.67170  1.0000
  O   O4        1.0  0.97150  0.44310  0.82830  1.0000
  O   O5        1.0  0.81840  0.00100  0.17170  1.0000
  O   O6        1.0  0.18160  0.50100  0.32830  1.0000
  O   O7        1.0  0.18160  0.99900  0.82830  1.0000
  O   O8        1.0  0.81840  0.49900  0.67170  1.0000
  O   O9        1.0  0.19280  0.30470  0.25480  1.0000
  O   O10       1.0  0.80720  0.80470  0.24520  1.0000
  O   O11       1.0  0.80720  0.69530  0.74520  1.0000
  O   O12       1.0  0.19280  0.19530  0.75480  1.0000
  O   O13       1.0  0.11640  0.38170  0.08690  1.0000
  O   O14       1.0  0.88360  0.88170  0.41310  1.0000
  O   O15       1.0  0.88360  0.61830  0.91310  1.0000
  O   O16       1.0  0.11640  0.11830  0.58690  1.0000
  O   O17       1.0  0.14420  0.57350  0.00550  1.0000
  O   O18       1.0  0.85580  0.07350  0.49450  1.0000
  O   O19       1.0  0.85580  0.42650  0.99450  1.0000
  O   O20       1.0  0.14420  0.92650  0.50550  1.0000
  O   O21       1.0  0.30790  0.56090  0.17220  1.0000
  O   O22       1.0  0.69210  0.06090  0.32780  1.0000
  O   O23       1.0  0.69210  0.43910  0.82780  1.0000
  O   O24       1.0  0.30790  0.93910  0.67220  1.0000
  O   O25       1.0  0.58390  0.83510  0.25540  1.0000
  O   O26       1.0  0.41610  0.33510  0.24460  1.0000
  O   O27       1.0  0.41610  0.16490  0.74460  1.0000
  O   O28       1.0  0.58390  0.66490  0.75540  1.0000
  O   O29       1.0  0.57400  0.91090  0.09930  1.0000
  O   O30       1.0  0.42600  0.41090  0.40070  1.0000
  O   O31       1.0  0.42600  0.08910  0.90070  1.0000
  O   O32       1.0  0.57400  0.58910  0.59930  1.0000
  C   C1        1.0  0.93580  0.10590  0.13500  1.0000
  C   C2        1.0  0.06420  0.60590  0.36500  1.0000
  C   C3        1.0  0.06420  0.89410  0.86500  1.0000
  C   C4        1.0  0.93580  0.39410  0.63500  1.0000
  C   C5        1.0  0.01400  0.17760  0.17790  1.0000
  C   C6        1.0  0.98600  0.67760  0.32210  1.0000
  C   C7        1.0  0.98600  0.82240  0.82210  1.0000
  C   C8        1.0  0.01400  0.32240  0.67790  1.0000
  H   H1        1.0  0.05540  0.18650  0.25920  1.0000
  H   H2        1.0  0.94460  0.68650  0.24080  1.0000
  H   H3        1.0  0.94460  0.81350  0.74080  1.0000
  H   H4        1.0  0.05540  0.31350  0.75920  1.0000
  C   C9        1.0  0.03140  0.23670  0.09980  1.0000
  C   C10       1.0  0.96860  0.73670  0.40020  1.0000
  C   C11       1.0  0.96860  0.76330  0.90020  1.0000
  C   C12       1.0  0.03140  0.26330  0.59980  1.0000
  C   C13       1.0  0.97180  0.22300  0.97800  1.0000
  C   C14       1.0  0.02820  0.72300  0.52200  1.0000
  C   C15       1.0  0.02820  0.77700  0.02200  1.0000
  C   C16       1.0  0.97180  0.27700  0.47800  1.0000
  H   H5        1.0  0.98260  0.26240  0.92570  1.0000
  H   H6        1.0  0.01740  0.76240  0.57430  1.0000
  H   H7        1.0  0.01740  0.73760  0.07430  1.0000
  H   H8        1.0  0.98260  0.23760  0.42570  1.0000
  C   C17       1.0  0.89520  0.14860  0.93560  1.0000
  C   C18       1.0  0.10480  0.64860  0.56440  1.0000
  C   C19       1.0  0.10480  0.85140  0.06440  1.0000
  C   C20       1.0  0.89520  0.35140  0.43560  1.0000
  H   H9        1.0  0.85560  0.13760  0.85450  1.0000
  H   H10       1.0  0.14440  0.63760  0.64550  1.0000
  H   H11       1.0  0.14440  0.86240  0.14550  1.0000
  H   H12       1.0  0.85560  0.36240  0.35450  1.0000
  C   C21       1.0  0.87830  0.09170  0.01360  1.0000
  C   C22       1.0  0.12170  0.59170  0.48640  1.0000
  C   C23       1.0  0.12170  0.90830  0.98640  1.0000
  C   C24       1.0  0.87830  0.40830  0.51360  1.0000
  H   H13       1.0  0.82720  0.04260  0.98410  1.0000
  H   H14       1.0  0.17280  0.54260  0.51590  1.0000
  H   H15       1.0  0.17280  0.95740  0.01590  1.0000
  H   H16       1.0  0.82720  0.45740  0.48410  1.0000
  C   C25       1.0  0.90880  0.04900  0.21920  1.0000
  C   C26       1.0  0.09120  0.54900  0.28080  1.0000
  C   C27       1.0  0.09120  0.95100  0.78080  1.0000
  C   C28       1.0  0.90880  0.45100  0.71920  1.0000
  C   C29       1.0  0.11800  0.31260  0.15040  1.0000
  C   C30       1.0  0.88200  0.81260  0.34960  1.0000
  C   C31       1.0  0.88200  0.68740  0.84960  1.0000
  C   C32       1.0  0.11800  0.18740  0.65040  1.0000
  C   C33       1.0  0.29340  0.67470  0.03030  1.0000
  C   C34       1.0  0.70660  0.17470  0.46970  1.0000
  C   C35       1.0  0.70660  0.32530  0.96970  1.0000
  C   C36       1.0  0.29340  0.82530  0.53030  1.0000
  C   C37       1.0  0.39190  0.72290  0.10760  1.0000
  C   C38       1.0  0.60810  0.22290  0.39240  1.0000
  C   C39       1.0  0.60810  0.27710  0.89240  1.0000
  C   C40       1.0  0.39190  0.77710  0.60760  1.0000
  H   H17       1.0  0.42900  0.70700  0.18750  1.0000
  H   H18       1.0  0.57100  0.20700  0.31250  1.0000
  H   H19       1.0  0.57100  0.29300  0.81250  1.0000
  H   H20       1.0  0.42900  0.79300  0.68750  1.0000
  C   C41       1.0  0.43450  0.79450  0.06530  1.0000
  C   C42       1.0  0.56550  0.29450  0.43470  1.0000
  C   C43       1.0  0.56550  0.20550  0.93470  1.0000
  C   C44       1.0  0.43450  0.70550  0.56530  1.0000
  C   C45       1.0  0.37990  0.81610  0.94400  1.0000
  C   C46       1.0  0.62010  0.31610  0.55600  1.0000
  C   C47       1.0  0.62010  0.18390  0.05600  1.0000
  C   C48       1.0  0.37990  0.68390  0.44400  1.0000
  H   H21       1.0  0.40890  0.86290  0.91500  1.0000
  H   H22       1.0  0.59110  0.36290  0.58500  1.0000
  H   H23       1.0  0.59110  0.13710  0.08500  1.0000
  H   H24       1.0  0.40890  0.63710  0.41500  1.0000
  C   C49       1.0  0.28340  0.76820  0.86750  1.0000
  C   C50       1.0  0.71660  0.26820  0.63250  1.0000
  C   C51       1.0  0.71660  0.23180  0.13250  1.0000
  C   C52       1.0  0.28340  0.73180  0.36750  1.0000
  H   H25       1.0  0.24800  0.78210  0.78700  1.0000
  H   H26       1.0  0.75200  0.28210  0.71300  1.0000
  H   H27       1.0  0.75200  0.21790  0.21300  1.0000
  H   H28       1.0  0.24800  0.71790  0.28700  1.0000
  C   C53       1.0  0.23950  0.69890  0.91160  1.0000
  C   C54       1.0  0.76050  0.19890  0.58840  1.0000
  C   C55       1.0  0.76050  0.30110  0.08840  1.0000
  C   C56       1.0  0.23950  0.80110  0.41160  1.0000
  H   H29       1.0  0.17280  0.66850  0.86050  1.0000
  H   H30       1.0  0.82720  0.16850  0.63950  1.0000
  H   H31       1.0  0.82720  0.33150  0.13950  1.0000
  H   H32       1.0  0.17280  0.83150  0.36050  1.0000
  C   C57       1.0  0.24370  0.59770  0.07190  1.0000
  C   C58       1.0  0.75630  0.09770  0.42810  1.0000
  C   C59       1.0  0.75630  0.40230  0.92810  1.0000
  C   C60       1.0  0.24370  0.90230  0.57190  1.0000
  C   C61       1.0  0.53770  0.84910  0.14690  1.0000
  C   C62       1.0  0.46230  0.34910  0.35310  1.0000
  C   C63       1.0  0.46230  0.15090  0.85310  1.0000
  C   C64       1.0  0.53770  0.65090  0.64690  1.0000
