data_image0
_chemical_formula_structural       Cd12Na4O48N36C36H12C12H12C24H12C12H12C36H12C12H12C24H12C12H12C24H12C12H12C12H12C12H12C12
_chemical_formula_sum              "Cd12 Na4 O48 N36 C240 H144"
_cell_length_a       18.643
_cell_length_b       18.643
_cell_length_c       24.945
_cell_angle_alpha    90
_cell_angle_beta     90
_cell_angle_gamma    120

_space_group_name_H-M_alt    "P 1"
_space_group_IT_number       1

loop_
  _space_group_symop_operation_xyz
  'x, y, z'

loop_
  _atom_site_type_symbol
  _atom_site_label
  _atom_site_symmetry_multiplicity
  _atom_site_fract_x
  _atom_site_fract_y
  _atom_site_fract_z
  _atom_site_occupancy
  Cd  Cd1       1.0  0.80800  0.54846  0.43774  1.0000
  Cd  Cd2       1.0  0.25954  0.80800  0.93774  1.0000
  Cd  Cd3       1.0  0.45154  0.25954  0.43774  1.0000
  Cd  Cd4       1.0  0.19200  0.45154  0.93774  1.0000
  Cd  Cd5       1.0  0.74046  0.19200  0.43774  1.0000
  Cd  Cd6       1.0  0.54846  0.74046  0.93774  1.0000
  Cd  Cd7       1.0  0.45154  0.19200  0.06226  1.0000
  Cd  Cd8       1.0  0.25954  0.45154  0.56226  1.0000
  Cd  Cd9       1.0  0.80800  0.25954  0.06226  1.0000
  Cd  Cd10      1.0  0.54846  0.80800  0.56226  1.0000
  Cd  Cd11      1.0  0.74046  0.54846  0.06226  1.0000
  Cd  Cd12      1.0  0.19200  0.74046  0.56226  1.0000
  Na  Na1       1.0  0.66670  0.33330  0.48631  1.0000
  Na  Na2       1.0  0.33340  0.66670  0.98631  1.0000
  Na  Na3       1.0  0.66670  0.33330  0.01369  1.0000
  Na  Na4       1.0  0.33340  0.66670  0.51369  1.0000
  O   O1        1.0  0.74930  0.46670  0.52326  1.0000
  O   O2        1.0  0.28260  0.74930  0.02326  1.0000
  O   O3        1.0  0.53330  0.28260  0.52326  1.0000
  O   O4        1.0  0.25070  0.53330  0.02326  1.0000
  O   O5        1.0  0.71740  0.25070  0.52326  1.0000
  O   O6        1.0  0.46670  0.71740  0.02326  1.0000
  O   O7        1.0  0.53330  0.25070  0.97674  1.0000
  O   O8        1.0  0.28260  0.53330  0.47674  1.0000
  O   O9        1.0  0.74930  0.28260  0.97674  1.0000
  O   O10       1.0  0.46670  0.74930  0.47674  1.0000
  O   O11       1.0  0.71740  0.46670  0.97674  1.0000
  O   O12       1.0  0.25070  0.71740  0.47674  1.0000
  O   O13       1.0  0.83340  0.59940  0.52319  1.0000
  O   O14       1.0  0.23400  0.83340  0.02319  1.0000
  O   O15       1.0  0.40060  0.23400  0.52319  1.0000
  O   O16       1.0  0.16660  0.40060  0.02319  1.0000
  O   O17       1.0  0.76600  0.16660  0.52319  1.0000
  O   O18       1.0  0.59940  0.76600  0.02319  1.0000
  O   O19       1.0  0.40060  0.16660  0.97681  1.0000
  O   O20       1.0  0.23400  0.40060  0.47681  1.0000
  O   O21       1.0  0.83340  0.23400  0.97681  1.0000
  O   O22       1.0  0.59940  0.83340  0.47681  1.0000
  O   O23       1.0  0.76600  0.59940  0.97681  1.0000
  O   O24       1.0  0.16660  0.76600  0.47681  1.0000
  O   O25       1.0  0.92210  0.68280  0.41910  1.0000
  O   O26       1.0  0.23930  0.92210  0.91910  1.0000
  O   O27       1.0  0.31720  0.23930  0.41910  1.0000
  O   O28       1.0  0.07790  0.31720  0.91910  1.0000
  O   O29       1.0  0.76070  0.07790  0.41910  1.0000
  O   O30       1.0  0.68280  0.76070  0.91910  1.0000
  O   O31       1.0  0.31720  0.07790  0.08090  1.0000
  O   O32       1.0  0.23930  0.31720  0.58090  1.0000
  O   O33       1.0  0.92210  0.23930  0.08090  1.0000
  O   O34       1.0  0.68280  0.92210  0.58090  1.0000
  O   O35       1.0  0.76070  0.68280  0.08090  1.0000
  O   O36       1.0  0.07790  0.76070  0.58090  1.0000
  O   O37       1.0  0.84110  0.61800  0.35360  1.0000
  O   O38       1.0  0.22310  0.84110  0.85360  1.0000
  O   O39       1.0  0.38200  0.22310  0.35360  1.0000
  O   O40       1.0  0.15890  0.38200  0.85360  1.0000
  O   O41       1.0  0.77690  0.15890  0.35360  1.0000
  O   O42       1.0  0.61800  0.77690  0.85360  1.0000
  O   O43       1.0  0.38200  0.15890  0.14640  1.0000
  O   O44       1.0  0.22310  0.38200  0.64640  1.0000
  O   O45       1.0  0.84110  0.22310  0.14640  1.0000
  O   O46       1.0  0.61800  0.84110  0.64640  1.0000
  O   O47       1.0  0.77690  0.61800  0.14640  1.0000
  O   O48       1.0  0.15890  0.77690  0.64640  1.0000
  N   N1        1.0  0.61260  0.15930  0.41090  1.0000
  N   N2        1.0  0.45330  0.61260  0.91090  1.0000
  N   N3        1.0  0.84070  0.45330  0.41090  1.0000
  N   N4        1.0  0.38740  0.84070  0.91090  1.0000
  N   N5        1.0  0.54670  0.38740  0.41090  1.0000
  N   N6        1.0  0.15930  0.54670  0.91090  1.0000
  N   N7        1.0  0.84070  0.38740  0.08910  1.0000
  N   N8        1.0  0.45330  0.84070  0.58910  1.0000
  N   N9        1.0  0.61260  0.45330  0.08910  1.0000
  N   N10       1.0  0.15930  0.61260  0.58910  1.0000
  N   N11       1.0  0.54670  0.15930  0.08910  1.0000
  N   N12       1.0  0.38740  0.54670  0.58910  1.0000
  N   N13       1.0  0.58570  0.20890  0.42920  1.0000
  N   N14       1.0  0.37680  0.58570  0.92920  1.0000
  N   N15       1.0  0.79110  0.37680  0.42920  1.0000
  N   N16       1.0  0.41430  0.79110  0.92920  1.0000
  N   N17       1.0  0.62320  0.41430  0.42920  1.0000
  N   N18       1.0  0.20890  0.62320  0.92920  1.0000
  N   N19       1.0  0.79110  0.41430  0.07080  1.0000
  N   N20       1.0  0.37680  0.79110  0.57080  1.0000
  N   N21       1.0  0.58570  0.37680  0.07080  1.0000
  N   N22       1.0  0.20890  0.58570  0.57080  1.0000
  N   N23       1.0  0.62320  0.20890  0.07080  1.0000
  N   N24       1.0  0.41430  0.62320  0.57080  1.0000
  N   N25       1.0  0.50890  0.18370  0.41060  1.0000
  N   N26       1.0  0.32520  0.50890  0.91060  1.0000
  N   N27       1.0  0.81630  0.32520  0.41060  1.0000
  N   N28       1.0  0.49110  0.81630  0.91060  1.0000
  N   N29       1.0  0.67480  0.49110  0.41060  1.0000
  N   N30       1.0  0.18370  0.67480  0.91060  1.0000
  N   N31       1.0  0.81630  0.49110  0.08940  1.0000
  N   N32       1.0  0.32520  0.81630  0.58940  1.0000
  N   N33       1.0  0.50890  0.32520  0.08940  1.0000
  N   N34       1.0  0.18370  0.50890  0.58940  1.0000
  N   N35       1.0  0.67480  0.18370  0.08940  1.0000
  N   N36       1.0  0.49110  0.67480  0.58940  1.0000
  C   C1        1.0  0.78800  0.53330  0.54750  1.0000
  C   C2        1.0  0.25470  0.78800  0.04750  1.0000
  C   C3        1.0  0.46670  0.25470  0.54750  1.0000
  C   C4        1.0  0.21200  0.46670  0.04750  1.0000
  C   C5        1.0  0.74530  0.21200  0.54750  1.0000
  C   C6        1.0  0.53330  0.74530  0.04750  1.0000
  C   C7        1.0  0.46670  0.21200  0.95250  1.0000
  C   C8        1.0  0.25470  0.46670  0.45250  1.0000
  C   C9        1.0  0.78800  0.25470  0.95250  1.0000
  C   C10       1.0  0.53330  0.78800  0.45250  1.0000
  C   C11       1.0  0.74530  0.53330  0.95250  1.0000
  C   C12       1.0  0.21200  0.74530  0.45250  1.0000
  C   C13       1.0  0.78140  0.53450  0.60740  1.0000
  C   C14       1.0  0.24690  0.78140  0.10740  1.0000
  C   C15       1.0  0.46550  0.24690  0.60740  1.0000
  C   C16       1.0  0.21860  0.46550  0.10740  1.0000
  C   C17       1.0  0.75310  0.21860  0.60740  1.0000
  C   C18       1.0  0.53450  0.75310  0.10740  1.0000
  C   C19       1.0  0.46550  0.21860  0.89260  1.0000
  C   C20       1.0  0.24690  0.46550  0.39260  1.0000
  C   C21       1.0  0.78140  0.24690  0.89260  1.0000
  C   C22       1.0  0.53450  0.78140  0.39260  1.0000
  C   C23       1.0  0.75310  0.53450  0.89260  1.0000
  C   C24       1.0  0.21860  0.75310  0.39260  1.0000
  C   C25       1.0  0.83660  0.60290  0.63650  1.0000
  C   C26       1.0  0.23370  0.83660  0.13650  1.0000
  C   C27       1.0  0.39710  0.23370  0.63650  1.0000
  C   C28       1.0  0.16340  0.39710  0.13650  1.0000
  C   C29       1.0  0.76630  0.16340  0.63650  1.0000
  C   C30       1.0  0.60290  0.76630  0.13650  1.0000
  C   C31       1.0  0.39710  0.16340  0.86350  1.0000
  C   C32       1.0  0.23370  0.39710  0.36350  1.0000
  C   C33       1.0  0.83660  0.23370  0.86350  1.0000
  C   C34       1.0  0.60290  0.83660  0.36350  1.0000
  C   C35       1.0  0.76630  0.60290  0.86350  1.0000
  C   C36       1.0  0.16340  0.76630  0.36350  1.0000
  H   H1        1.0  0.87910  0.65000  0.61860  1.0000
  H   H2        1.0  0.22910  0.87910  0.11860  1.0000
  H   H3        1.0  0.35000  0.22910  0.61860  1.0000
  H   H4        1.0  0.12090  0.35000  0.11860  1.0000
  H   H5        1.0  0.77090  0.12090  0.61860  1.0000
  H   H6        1.0  0.65000  0.77090  0.11860  1.0000
  H   H7        1.0  0.35000  0.12090  0.88140  1.0000
  H   H8        1.0  0.22910  0.35000  0.38140  1.0000
  H   H9        1.0  0.87910  0.22910  0.88140  1.0000
  H   H10       1.0  0.65000  0.87910  0.38140  1.0000
  H   H11       1.0  0.77090  0.65000  0.88140  1.0000
  H   H12       1.0  0.12090  0.77090  0.38140  1.0000
  C   C37       1.0  0.83000  0.60280  0.69250  1.0000
  C   C38       1.0  0.22720  0.83000  0.19250  1.0000
  C   C39       1.0  0.39720  0.22720  0.69250  1.0000
  C   C40       1.0  0.17000  0.39720  0.19250  1.0000
  C   C41       1.0  0.77280  0.17000  0.69250  1.0000
  C   C42       1.0  0.60280  0.77280  0.19250  1.0000
  C   C43       1.0  0.39720  0.17000  0.80750  1.0000
  C   C44       1.0  0.22720  0.39720  0.30750  1.0000
  C   C45       1.0  0.83000  0.22720  0.80750  1.0000
  C   C46       1.0  0.60280  0.83000  0.30750  1.0000
  C   C47       1.0  0.77280  0.60280  0.80750  1.0000
  C   C48       1.0  0.17000  0.77280  0.30750  1.0000
  H   H13       1.0  0.86810  0.65070  0.71200  1.0000
  H   H14       1.0  0.21740  0.86810  0.21200  1.0000
  H   H15       1.0  0.34930  0.21740  0.71200  1.0000
  H   H16       1.0  0.13190  0.34930  0.21200  1.0000
  H   H17       1.0  0.78260  0.13190  0.71200  1.0000
  H   H18       1.0  0.65070  0.78260  0.21200  1.0000
  H   H19       1.0  0.34930  0.13190  0.78800  1.0000
  H   H20       1.0  0.21740  0.34930  0.28800  1.0000
  H   H21       1.0  0.86810  0.21740  0.78800  1.0000
  H   H22       1.0  0.65070  0.86810  0.28800  1.0000
  H   H23       1.0  0.78260  0.65070  0.78800  1.0000
  H   H24       1.0  0.13190  0.78260  0.28800  1.0000
  C   C49       1.0  0.77050  0.53590  0.72020  1.0000
  C   C50       1.0  0.23460  0.77050  0.22020  1.0000
  C   C51       1.0  0.46410  0.23460  0.72020  1.0000
  C   C52       1.0  0.22950  0.46410  0.22020  1.0000
  C   C53       1.0  0.76540  0.22950  0.72020  1.0000
  C   C54       1.0  0.53590  0.76540  0.22020  1.0000
  C   C55       1.0  0.46410  0.22950  0.77980  1.0000
  C   C56       1.0  0.23460  0.46410  0.27980  1.0000
  C   C57       1.0  0.77050  0.23460  0.77980  1.0000
  C   C58       1.0  0.53590  0.77050  0.27980  1.0000
  C   C59       1.0  0.76540  0.53590  0.77980  1.0000
  C   C60       1.0  0.22950  0.76540  0.27980  1.0000
  C   C61       1.0  0.71470  0.46870  0.68970  1.0000
  C   C62       1.0  0.24600  0.71470  0.18970  1.0000
  C   C63       1.0  0.53130  0.24600  0.68970  1.0000
  C   C64       1.0  0.28530  0.53130  0.18970  1.0000
  C   C65       1.0  0.75400  0.28530  0.68970  1.0000
  C   C66       1.0  0.46870  0.75400  0.18970  1.0000
  C   C67       1.0  0.53130  0.28530  0.81030  1.0000
  C   C68       1.0  0.24600  0.53130  0.31030  1.0000
  C   C69       1.0  0.71470  0.24600  0.81030  1.0000
  C   C70       1.0  0.46870  0.71470  0.31030  1.0000
  C   C71       1.0  0.75400  0.46870  0.81030  1.0000
  C   C72       1.0  0.28530  0.75400  0.31030  1.0000
  H   H25       1.0  0.67140  0.42170  0.70720  1.0000
  H   H26       1.0  0.24970  0.67140  0.20720  1.0000
  H   H27       1.0  0.57830  0.24970  0.70720  1.0000
  H   H28       1.0  0.32860  0.57830  0.20720  1.0000
  H   H29       1.0  0.75030  0.32860  0.70720  1.0000
  H   H30       1.0  0.42170  0.75030  0.20720  1.0000
  H   H31       1.0  0.57830  0.32860  0.79280  1.0000
  H   H32       1.0  0.24970  0.57830  0.29280  1.0000
  H   H33       1.0  0.67140  0.24970  0.79280  1.0000
  H   H34       1.0  0.42170  0.67140  0.29280  1.0000
  H   H35       1.0  0.75030  0.42170  0.79280  1.0000
  H   H36       1.0  0.32860  0.75030  0.29280  1.0000
  C   C73       1.0  0.72080  0.46870  0.63390  1.0000
  C   C74       1.0  0.25210  0.72080  0.13390  1.0000
  C   C75       1.0  0.53130  0.25210  0.63390  1.0000
  C   C76       1.0  0.27920  0.53130  0.13390  1.0000
  C   C77       1.0  0.74790  0.27920  0.63390  1.0000
  C   C78       1.0  0.46870  0.74790  0.13390  1.0000
  C   C79       1.0  0.53130  0.27920  0.86610  1.0000
  C   C80       1.0  0.25210  0.53130  0.36610  1.0000
  C   C81       1.0  0.72080  0.25210  0.86610  1.0000
  C   C82       1.0  0.46870  0.72080  0.36610  1.0000
  C   C83       1.0  0.74790  0.46870  0.86610  1.0000
  C   C84       1.0  0.27920  0.74790  0.36610  1.0000
  H   H37       1.0  0.68180  0.42170  0.61420  1.0000
  H   H38       1.0  0.26010  0.68180  0.11420  1.0000
  H   H39       1.0  0.57830  0.26010  0.61420  1.0000
  H   H40       1.0  0.31820  0.57830  0.11420  1.0000
  H   H41       1.0  0.73990  0.31820  0.61420  1.0000
  H   H42       1.0  0.42170  0.73990  0.11420  1.0000
  H   H43       1.0  0.57830  0.31820  0.88580  1.0000
  H   H44       1.0  0.26010  0.57830  0.38580  1.0000
  H   H45       1.0  0.68180  0.26010  0.88580  1.0000
  H   H46       1.0  0.42170  0.68180  0.38580  1.0000
  H   H47       1.0  0.73990  0.42170  0.88580  1.0000
  H   H48       1.0  0.31820  0.73990  0.38580  1.0000
  C   C85       1.0  0.90120  0.68110  0.37360  1.0000
  C   C86       1.0  0.22010  0.90120  0.87360  1.0000
  C   C87       1.0  0.31890  0.22010  0.37360  1.0000
  C   C88       1.0  0.09880  0.31890  0.87360  1.0000
  C   C89       1.0  0.77990  0.09880  0.37360  1.0000
  C   C90       1.0  0.68110  0.77990  0.87360  1.0000
  C   C91       1.0  0.31890  0.09880  0.12640  1.0000
  C   C92       1.0  0.22010  0.31890  0.62640  1.0000
  C   C93       1.0  0.90120  0.22010  0.12640  1.0000
  C   C94       1.0  0.68110  0.90120  0.62640  1.0000
  C   C95       1.0  0.77990  0.68110  0.12640  1.0000
  C   C96       1.0  0.09880  0.77990  0.62640  1.0000
  C   C97       1.0  0.95160  0.75290  0.33590  1.0000
  C   C98       1.0  0.19870  0.95160  0.83590  1.0000
  C   C99       1.0  0.24710  0.19870  0.33590  1.0000
  C   C100      1.0  0.04840  0.24710  0.83590  1.0000
  C   C101      1.0  0.80130  0.04840  0.33590  1.0000
  C   C102      1.0  0.75290  0.80130  0.83590  1.0000
  C   C103      1.0  0.24710  0.04840  0.16410  1.0000
  C   C104      1.0  0.19870  0.24710  0.66410  1.0000
  C   C105      1.0  0.95160  0.19870  0.16410  1.0000
  C   C106      1.0  0.75290  0.95160  0.66410  1.0000
  C   C107      1.0  0.80130  0.75290  0.16410  1.0000
  C   C108      1.0  0.04840  0.80130  0.66410  1.0000
  C   C109      1.0  0.00050  0.83300  0.35670  1.0000
  C   C110      1.0  0.16750  0.00050  0.85670  1.0000
  C   C111      1.0  0.16700  0.16750  0.35670  1.0000
  C   C112      1.0  0.99950  0.16700  0.85670  1.0000
  C   C113      1.0  0.83250  0.99950  0.35670  1.0000
  C   C114      1.0  0.83300  0.83250  0.85670  1.0000
  C   C115      1.0  0.16700  0.99950  0.14330  1.0000
  C   C116      1.0  0.16750  0.16700  0.64330  1.0000
  C   C117      1.0  0.00050  0.16750  0.14330  1.0000
  C   C118      1.0  0.83300  0.00050  0.64330  1.0000
  C   C119      1.0  0.83250  0.83300  0.14330  1.0000
  C   C120      1.0  0.99950  0.83250  0.64330  1.0000
  H   H49       1.0  0.99970  0.84350  0.39390  1.0000
  H   H50       1.0  0.15620  0.99970  0.89390  1.0000
  H   H51       1.0  0.15650  0.15620  0.39390  1.0000
  H   H52       1.0  0.00030  0.15650  0.89390  1.0000
  H   H53       1.0  0.84380  0.00030  0.39390  1.0000
  H   H54       1.0  0.84350  0.84380  0.89390  1.0000
  H   H55       1.0  0.15650  0.00030  0.10610  1.0000
  H   H56       1.0  0.15620  0.15650  0.60610  1.0000
  H   H57       1.0  0.99970  0.15620  0.10610  1.0000
  H   H58       1.0  0.84350  0.99970  0.60610  1.0000
  H   H59       1.0  0.84380  0.84350  0.10610  1.0000
  H   H60       1.0  0.00030  0.84380  0.60610  1.0000
  C   C121      1.0  0.04960  0.89590  0.32210  1.0000
  C   C122      1.0  0.15370  0.04960  0.82210  1.0000
  C   C123      1.0  0.10410  0.15370  0.32210  1.0000
  C   C124      1.0  0.95040  0.10410  0.82210  1.0000
  C   C125      1.0  0.84630  0.95040  0.32210  1.0000
  C   C126      1.0  0.89590  0.84630  0.82210  1.0000
  C   C127      1.0  0.10410  0.95040  0.17790  1.0000
  C   C128      1.0  0.15370  0.10410  0.67790  1.0000
  C   C129      1.0  0.04960  0.15370  0.17790  1.0000
  C   C130      1.0  0.89590  0.04960  0.67790  1.0000
  C   C131      1.0  0.84630  0.89590  0.17790  1.0000
  C   C132      1.0  0.95040  0.84630  0.67790  1.0000
  H   H61       1.0  0.08230  0.95050  0.33570  1.0000
  H   H62       1.0  0.13180  0.08230  0.83570  1.0000
  H   H63       1.0  0.04950  0.13180  0.33570  1.0000
  H   H64       1.0  0.91770  0.04950  0.83570  1.0000
  H   H65       1.0  0.86820  0.91770  0.33570  1.0000
  H   H66       1.0  0.95050  0.86820  0.83570  1.0000
  H   H67       1.0  0.04950  0.91770  0.16430  1.0000
  H   H68       1.0  0.13180  0.04950  0.66430  1.0000
  H   H69       1.0  0.08230  0.13180  0.16430  1.0000
  H   H70       1.0  0.95050  0.08230  0.66430  1.0000
  H   H71       1.0  0.86820  0.95050  0.16430  1.0000
  H   H72       1.0  0.91770  0.86820  0.66430  1.0000
  C   C133      1.0  0.05270  0.88160  0.26750  1.0000
  C   C134      1.0  0.17110  0.05270  0.76750  1.0000
  C   C135      1.0  0.11840  0.17110  0.26750  1.0000
  C   C136      1.0  0.94730  0.11840  0.76750  1.0000
  C   C137      1.0  0.82890  0.94730  0.26750  1.0000
  C   C138      1.0  0.88160  0.82890  0.76750  1.0000
  C   C139      1.0  0.11840  0.94730  0.23250  1.0000
  C   C140      1.0  0.17110  0.11840  0.73250  1.0000
  C   C141      1.0  0.05270  0.17110  0.23250  1.0000
  C   C142      1.0  0.88160  0.05270  0.73250  1.0000
  C   C143      1.0  0.82890  0.88160  0.23250  1.0000
  C   C144      1.0  0.94730  0.82890  0.73250  1.0000
  C   C145      1.0  0.00100  0.80410  0.24800  1.0000
  C   C146      1.0  0.19690  0.00100  0.74800  1.0000
  C   C147      1.0  0.19590  0.19690  0.24800  1.0000
  C   C148      1.0  0.99900  0.19590  0.74800  1.0000
  C   C149      1.0  0.80310  0.99900  0.24800  1.0000
  C   C150      1.0  0.80410  0.80310  0.74800  1.0000
  C   C151      1.0  0.19590  0.99900  0.25200  1.0000
  C   C152      1.0  0.19690  0.19590  0.75200  1.0000
  C   C153      1.0  0.00100  0.19690  0.25200  1.0000
  C   C154      1.0  0.80410  0.00100  0.75200  1.0000
  C   C155      1.0  0.80310  0.80410  0.25200  1.0000
  C   C156      1.0  0.99900  0.80310  0.75200  1.0000
  H   H73       1.0  0.00050  0.79470  0.21050  1.0000
  H   H74       1.0  0.20580  0.00050  0.71050  1.0000
  H   H75       1.0  0.20530  0.20580  0.21050  1.0000
  H   H76       1.0  0.99950  0.20530  0.71050  1.0000
  H   H77       1.0  0.79420  0.99950  0.21050  1.0000
  H   H78       1.0  0.79470  0.79420  0.71050  1.0000
  H   H79       1.0  0.20530  0.99950  0.28950  1.0000
  H   H80       1.0  0.20580  0.20530  0.78950  1.0000
  H   H81       1.0  0.00050  0.20580  0.28950  1.0000
  H   H82       1.0  0.79470  0.00050  0.78950  1.0000
  H   H83       1.0  0.79420  0.79470  0.28950  1.0000
  H   H84       1.0  0.99950  0.79420  0.78950  1.0000
  C   C157      1.0  0.94900  0.73860  0.28100  1.0000
  C   C158      1.0  0.21040  0.94900  0.78100  1.0000
  C   C159      1.0  0.26140  0.21040  0.28100  1.0000
  C   C160      1.0  0.05100  0.26140  0.78100  1.0000
  C   C161      1.0  0.78960  0.05100  0.28100  1.0000
  C   C162      1.0  0.73860  0.78960  0.78100  1.0000
  C   C163      1.0  0.26140  0.05100  0.21900  1.0000
  C   C164      1.0  0.21040  0.26140  0.71900  1.0000
  C   C165      1.0  0.94900  0.21040  0.21900  1.0000
  C   C166      1.0  0.73860  0.94900  0.71900  1.0000
  C   C167      1.0  0.78960  0.73860  0.21900  1.0000
  C   C168      1.0  0.05100  0.78960  0.71900  1.0000
  H   H85       1.0  0.91260  0.68540  0.26650  1.0000
  H   H86       1.0  0.22720  0.91260  0.76650  1.0000
  H   H87       1.0  0.31460  0.22720  0.26650  1.0000
  H   H88       1.0  0.08740  0.31460  0.76650  1.0000
  H   H89       1.0  0.77280  0.08740  0.26650  1.0000
  H   H90       1.0  0.68540  0.77280  0.76650  1.0000
  H   H91       1.0  0.31460  0.08740  0.23350  1.0000
  H   H92       1.0  0.22720  0.31460  0.73350  1.0000
  H   H93       1.0  0.91260  0.22720  0.23350  1.0000
  H   H94       1.0  0.68540  0.91260  0.73350  1.0000
  H   H95       1.0  0.77280  0.68540  0.23350  1.0000
  H   H96       1.0  0.08740  0.77280  0.73350  1.0000
  C   C169      1.0  0.55270  0.09870  0.38040  1.0000
  C   C170      1.0  0.45400  0.55270  0.88040  1.0000
  C   C171      1.0  0.90130  0.45400  0.38040  1.0000
  C   C172      1.0  0.44730  0.90130  0.88040  1.0000
  C   C173      1.0  0.54600  0.44730  0.38040  1.0000
  C   C174      1.0  0.09870  0.54600  0.88040  1.0000
  C   C175      1.0  0.90130  0.44730  0.11960  1.0000
  C   C176      1.0  0.45400  0.90130  0.61960  1.0000
  C   C177      1.0  0.55270  0.45400  0.11960  1.0000
  C   C178      1.0  0.09870  0.55270  0.61960  1.0000
  C   C179      1.0  0.54600  0.09870  0.11960  1.0000
  C   C180      1.0  0.44730  0.54600  0.61960  1.0000
  C   C181      1.0  0.54970  0.03180  0.35340  1.0000
  C   C182      1.0  0.51790  0.54970  0.85340  1.0000
  C   C183      1.0  0.96820  0.51790  0.35340  1.0000
  C   C184      1.0  0.45030  0.96820  0.85340  1.0000
  C   C185      1.0  0.48210  0.45030  0.35340  1.0000
  C   C186      1.0  0.03180  0.48210  0.85340  1.0000
  C   C187      1.0  0.96820  0.45030  0.14660  1.0000
  C   C188      1.0  0.51790  0.96820  0.64660  1.0000
  C   C189      1.0  0.54970  0.51790  0.14660  1.0000
  C   C190      1.0  0.03180  0.54970  0.64660  1.0000
  C   C191      1.0  0.48210  0.03180  0.14660  1.0000
  C   C192      1.0  0.45030  0.48210  0.64660  1.0000
  H   H97       1.0  0.59530  0.02240  0.35320  1.0000
  H   H98       1.0  0.57290  0.59530  0.85320  1.0000
  H   H99       1.0  0.97760  0.57290  0.35320  1.0000
  H   H100      1.0  0.40470  0.97760  0.85320  1.0000
  H   H101      1.0  0.42710  0.40470  0.35320  1.0000
  H   H102      1.0  0.02240  0.42710  0.85320  1.0000
  H   H103      1.0  0.97760  0.40470  0.14680  1.0000
  H   H104      1.0  0.57290  0.97760  0.64680  1.0000
  H   H105      1.0  0.59530  0.57290  0.14680  1.0000
  H   H106      1.0  0.02240  0.59530  0.64680  1.0000
  H   H107      1.0  0.42710  0.02240  0.14680  1.0000
  H   H108      1.0  0.40470  0.42710  0.64680  1.0000
  C   C193      1.0  0.47670  0.97980  0.32680  1.0000
  C   C194      1.0  0.49690  0.47670  0.82680  1.0000
  C   C195      1.0  0.02020  0.49690  0.32680  1.0000
  C   C196      1.0  0.52330  0.02020  0.82680  1.0000
  C   C197      1.0  0.50310  0.52330  0.32680  1.0000
  C   C198      1.0  0.97980  0.50310  0.82680  1.0000
  C   C199      1.0  0.02020  0.52330  0.17320  1.0000
  C   C200      1.0  0.49690  0.02020  0.67320  1.0000
  C   C201      1.0  0.47670  0.49690  0.17320  1.0000
  C   C202      1.0  0.97980  0.47670  0.67320  1.0000
  C   C203      1.0  0.50310  0.97980  0.17320  1.0000
  C   C204      1.0  0.52330  0.50310  0.67320  1.0000
  H   H109      1.0  0.47090  0.93220  0.30890  1.0000
  H   H110      1.0  0.53870  0.47090  0.80890  1.0000
  H   H111      1.0  0.06780  0.53870  0.30890  1.0000
  H   H112      1.0  0.52910  0.06780  0.80890  1.0000
  H   H113      1.0  0.46130  0.52910  0.30890  1.0000
  H   H114      1.0  0.93220  0.46130  0.80890  1.0000
  H   H115      1.0  0.06780  0.52910  0.19110  1.0000
  H   H116      1.0  0.53870  0.06780  0.69110  1.0000
  H   H117      1.0  0.47090  0.53870  0.19110  1.0000
  H   H118      1.0  0.93220  0.47090  0.69110  1.0000
  H   H119      1.0  0.46130  0.93220  0.19110  1.0000
  H   H120      1.0  0.52910  0.46130  0.69110  1.0000
  C   C205      1.0  0.41100  0.99620  0.32570  1.0000
  C   C206      1.0  0.41480  0.41100  0.82570  1.0000
  C   C207      1.0  0.00380  0.41480  0.32570  1.0000
  C   C208      1.0  0.58900  0.00380  0.82570  1.0000
  C   C209      1.0  0.58520  0.58900  0.32570  1.0000
  C   C210      1.0  0.99620  0.58520  0.82570  1.0000
  C   C211      1.0  0.00380  0.58900  0.17430  1.0000
  C   C212      1.0  0.41480  0.00380  0.67430  1.0000
  C   C213      1.0  0.41100  0.41480  0.17430  1.0000
  C   C214      1.0  0.99620  0.41100  0.67430  1.0000
  C   C215      1.0  0.58520  0.99620  0.17430  1.0000
  C   C216      1.0  0.58900  0.58520  0.67430  1.0000
  H   H121      1.0  0.36280  0.96080  0.30560  1.0000
  H   H122      1.0  0.40200  0.36280  0.80560  1.0000
  H   H123      1.0  0.03920  0.40200  0.30560  1.0000
  H   H124      1.0  0.63720  0.03920  0.80560  1.0000
  H   H125      1.0  0.59800  0.63720  0.30560  1.0000
  H   H126      1.0  0.96080  0.59800  0.80560  1.0000
  H   H127      1.0  0.03920  0.63720  0.19440  1.0000
  H   H128      1.0  0.40200  0.03920  0.69440  1.0000
  H   H129      1.0  0.36280  0.40200  0.19440  1.0000
  H   H130      1.0  0.96080  0.36280  0.69440  1.0000
  H   H131      1.0  0.59800  0.96080  0.19440  1.0000
  H   H132      1.0  0.63720  0.59800  0.69440  1.0000
  C   C217      1.0  0.41410  0.06040  0.35230  1.0000
  C   C218      1.0  0.35370  0.41410  0.85230  1.0000
  C   C219      1.0  0.93960  0.35370  0.35230  1.0000
  C   C220      1.0  0.58590  0.93960  0.85230  1.0000
  C   C221      1.0  0.64630  0.58590  0.35230  1.0000
  C   C222      1.0  0.06040  0.64630  0.85230  1.0000
  C   C223      1.0  0.93960  0.58590  0.14770  1.0000
  C   C224      1.0  0.35370  0.93960  0.64770  1.0000
  C   C225      1.0  0.41410  0.35370  0.14770  1.0000
  C   C226      1.0  0.06040  0.41410  0.64770  1.0000
  C   C227      1.0  0.64630  0.06040  0.14770  1.0000
  C   C228      1.0  0.58590  0.64630  0.64770  1.0000
  H   H133      1.0  0.36800  0.06910  0.35220  1.0000
  H   H134      1.0  0.29890  0.36800  0.85220  1.0000
  H   H135      1.0  0.93090  0.29890  0.35220  1.0000
  H   H136      1.0  0.63200  0.93090  0.85220  1.0000
  H   H137      1.0  0.70110  0.63200  0.35220  1.0000
  H   H138      1.0  0.06910  0.70110  0.85220  1.0000
  H   H139      1.0  0.93090  0.63200  0.14780  1.0000
  H   H140      1.0  0.29890  0.93090  0.64780  1.0000
  H   H141      1.0  0.36800  0.29890  0.14780  1.0000
  H   H142      1.0  0.06910  0.36800  0.64780  1.0000
  H   H143      1.0  0.70110  0.06910  0.14780  1.0000
  H   H144      1.0  0.63200  0.70110  0.64780  1.0000
  C   C229      1.0  0.48700  0.11420  0.38020  1.0000
  C   C230      1.0  0.37280  0.48700  0.88020  1.0000
  C   C231      1.0  0.88580  0.37280  0.38020  1.0000
  C   C232      1.0  0.51300  0.88580  0.88020  1.0000
  C   C233      1.0  0.62720  0.51300  0.38020  1.0000
  C   C234      1.0  0.11420  0.62720  0.88020  1.0000
  C   C235      1.0  0.88580  0.51300  0.11980  1.0000
  C   C236      1.0  0.37280  0.88580  0.61980  1.0000
  C   C237      1.0  0.48700  0.37280  0.11980  1.0000
  C   C238      1.0  0.11420  0.48700  0.61980  1.0000
  C   C239      1.0  0.62720  0.11420  0.11980  1.0000
  C   C240      1.0  0.51300  0.62720  0.61980  1.0000
