data_image0
_chemical_formula_structural       Co4O32N8C8H8C16H8C8H8C24
_chemical_formula_sum              "Co4 O32 N8 C56 H24"
_cell_length_a       14.9075
_cell_length_b       8.2523
_cell_length_c       16.9643
_cell_angle_alpha    90
_cell_angle_beta     100.982
_cell_angle_gamma    90

_space_group_name_H-M_alt    "P 1"
_space_group_IT_number       1

loop_
  _space_group_symop_operation_xyz
  'x, y, z'

loop_
  _atom_site_type_symbol
  _atom_site_label
  _atom_site_symmetry_multiplicity
  _atom_site_fract_x
  _atom_site_fract_y
  _atom_site_fract_z
  _atom_site_occupancy
  Co  Co1       1.0  0.00000  0.08503  0.25000  1.0000
  Co  Co2       1.0  0.00000  0.91497  0.75000  1.0000
  Co  Co3       1.0  0.50000  0.58503  0.25000  1.0000
  Co  Co4       1.0  0.50000  0.41497  0.75000  1.0000
  O   O1        1.0  0.00493  0.11860  0.37247  1.0000
  O   O2        1.0  0.00493  0.88140  0.87247  1.0000
  O   O3        1.0  0.50493  0.61860  0.37247  1.0000
  O   O4        1.0  0.50493  0.38140  0.87247  1.0000
  O   O5        1.0  0.99507  0.88140  0.62753  1.0000
  O   O6        1.0  0.99507  0.11860  0.12753  1.0000
  O   O7        1.0  0.49507  0.38140  0.62753  1.0000
  O   O8        1.0  0.49507  0.61860  0.12753  1.0000
  O   O9        1.0  0.08766  0.22670  0.48338  1.0000
  O   O10       1.0  0.08766  0.77330  0.98338  1.0000
  O   O11       1.0  0.58766  0.72670  0.48338  1.0000
  O   O12       1.0  0.58766  0.27330  0.98338  1.0000
  O   O13       1.0  0.91234  0.77330  0.51662  1.0000
  O   O14       1.0  0.91234  0.22670  0.01662  1.0000
  O   O15       1.0  0.41234  0.27330  0.51662  1.0000
  O   O16       1.0  0.41234  0.72670  0.01662  1.0000
  O   O17       1.0  0.29040  0.40290  0.13592  1.0000
  O   O18       1.0  0.29040  0.59710  0.63592  1.0000
  O   O19       1.0  0.79040  0.90290  0.13592  1.0000
  O   O20       1.0  0.79040  0.09710  0.63592  1.0000
  O   O21       1.0  0.70960  0.59710  0.86408  1.0000
  O   O22       1.0  0.70960  0.40290  0.36408  1.0000
  O   O23       1.0  0.20960  0.09710  0.86408  1.0000
  O   O24       1.0  0.20960  0.90290  0.36408  1.0000
  O   O25       1.0  0.40405  0.40220  0.24143  1.0000
  O   O26       1.0  0.40405  0.59780  0.74143  1.0000
  O   O27       1.0  0.90405  0.90220  0.24143  1.0000
  O   O28       1.0  0.90405  0.09780  0.74143  1.0000
  O   O29       1.0  0.59595  0.59780  0.75857  1.0000
  O   O30       1.0  0.59595  0.40220  0.25857  1.0000
  O   O31       1.0  0.09595  0.09780  0.75857  1.0000
  O   O32       1.0  0.09595  0.90220  0.25857  1.0000
  N   N1        1.0  0.11250  0.24520  0.28151  1.0000
  N   N2        1.0  0.11250  0.75480  0.78151  1.0000
  N   N3        1.0  0.61250  0.74520  0.28151  1.0000
  N   N4        1.0  0.61250  0.25480  0.78151  1.0000
  N   N5        1.0  0.88750  0.75480  0.71849  1.0000
  N   N6        1.0  0.88750  0.24520  0.21849  1.0000
  N   N7        1.0  0.38750  0.25480  0.71849  1.0000
  N   N8        1.0  0.38750  0.74520  0.21849  1.0000
  C   C1        1.0  0.17040  0.29150  0.23470  1.0000
  C   C2        1.0  0.17040  0.70850  0.73470  1.0000
  C   C3        1.0  0.67040  0.79150  0.23470  1.0000
  C   C4        1.0  0.67040  0.20850  0.73470  1.0000
  C   C5        1.0  0.82960  0.70850  0.76530  1.0000
  C   C6        1.0  0.82960  0.29150  0.26530  1.0000
  C   C7        1.0  0.32960  0.20850  0.76530  1.0000
  C   C8        1.0  0.32960  0.79150  0.26530  1.0000
  H   H1        1.0  0.15270  0.27870  0.17950  1.0000
  H   H2        1.0  0.15270  0.72130  0.67950  1.0000
  H   H3        1.0  0.65270  0.77870  0.17950  1.0000
  H   H4        1.0  0.65270  0.22130  0.67950  1.0000
  H   H5        1.0  0.84730  0.72130  0.82050  1.0000
  H   H6        1.0  0.84730  0.27870  0.32050  1.0000
  H   H7        1.0  0.34730  0.22130  0.82050  1.0000
  H   H8        1.0  0.34730  0.77870  0.32050  1.0000
  C   C9        1.0  0.25540  0.35780  0.26430  1.0000
  C   C10       1.0  0.25540  0.64220  0.76430  1.0000
  C   C11       1.0  0.75540  0.85780  0.26430  1.0000
  C   C12       1.0  0.75540  0.14220  0.76430  1.0000
  C   C13       1.0  0.74460  0.64220  0.73570  1.0000
  C   C14       1.0  0.74460  0.35780  0.23570  1.0000
  C   C15       1.0  0.24460  0.14220  0.73570  1.0000
  C   C16       1.0  0.24460  0.85780  0.23570  1.0000
  C   C17       1.0  0.27870  0.38500  0.34610  1.0000
  C   C18       1.0  0.27870  0.61500  0.84610  1.0000
  C   C19       1.0  0.77870  0.88500  0.34610  1.0000
  C   C20       1.0  0.77870  0.11500  0.84610  1.0000
  C   C21       1.0  0.72130  0.61500  0.65390  1.0000
  C   C22       1.0  0.72130  0.38500  0.15390  1.0000
  C   C23       1.0  0.22130  0.11500  0.65390  1.0000
  C   C24       1.0  0.22130  0.88500  0.15390  1.0000
  H   H9        1.0  0.33450  0.43220  0.36800  1.0000
  H   H10       1.0  0.33450  0.56780  0.86800  1.0000
  H   H11       1.0  0.83450  0.93220  0.36800  1.0000
  H   H12       1.0  0.83450  0.06780  0.86800  1.0000
  H   H13       1.0  0.66550  0.56780  0.63200  1.0000
  H   H14       1.0  0.66550  0.43220  0.13200  1.0000
  H   H15       1.0  0.16550  0.06780  0.63200  1.0000
  H   H16       1.0  0.16550  0.93220  0.13200  1.0000
  C   C25       1.0  0.21880  0.34180  0.39480  1.0000
  C   C26       1.0  0.21880  0.65820  0.89480  1.0000
  C   C27       1.0  0.71880  0.84180  0.39480  1.0000
  C   C28       1.0  0.71880  0.15820  0.89480  1.0000
  C   C29       1.0  0.78120  0.65820  0.60520  1.0000
  C   C30       1.0  0.78120  0.34180  0.10520  1.0000
  C   C31       1.0  0.28120  0.15820  0.60520  1.0000
  C   C32       1.0  0.28120  0.84180  0.10520  1.0000
  H   H17       1.0  0.23300  0.36210  0.44970  1.0000
  H   H18       1.0  0.23300  0.63790  0.94970  1.0000
  H   H19       1.0  0.73300  0.86210  0.44970  1.0000
  H   H20       1.0  0.73300  0.13790  0.94970  1.0000
  H   H21       1.0  0.76700  0.63790  0.55030  1.0000
  H   H22       1.0  0.76700  0.36210  0.05030  1.0000
  H   H23       1.0  0.26700  0.13790  0.55030  1.0000
  H   H24       1.0  0.26700  0.86210  0.05030  1.0000
  C   C33       1.0  0.13760  0.26820  0.36130  1.0000
  C   C34       1.0  0.13760  0.73180  0.86130  1.0000
  C   C35       1.0  0.63760  0.76820  0.36130  1.0000
  C   C36       1.0  0.63760  0.23180  0.86130  1.0000
  C   C37       1.0  0.86240  0.73180  0.63870  1.0000
  C   C38       1.0  0.86240  0.26820  0.13870  1.0000
  C   C39       1.0  0.36240  0.23180  0.63870  1.0000
  C   C40       1.0  0.36240  0.76820  0.13870  1.0000
  C   C41       1.0  0.07160  0.20020  0.41040  1.0000
  C   C42       1.0  0.07160  0.79980  0.91040  1.0000
  C   C43       1.0  0.57160  0.70020  0.41040  1.0000
  C   C44       1.0  0.57160  0.29980  0.91040  1.0000
  C   C45       1.0  0.92840  0.79980  0.58960  1.0000
  C   C46       1.0  0.92840  0.20020  0.08960  1.0000
  C   C47       1.0  0.42840  0.29980  0.58960  1.0000
  C   C48       1.0  0.42840  0.70020  0.08960  1.0000
  C   C49       1.0  0.32060  0.39260  0.20850  1.0000
  C   C50       1.0  0.32060  0.60740  0.70850  1.0000
  C   C51       1.0  0.82060  0.89260  0.20850  1.0000
  C   C52       1.0  0.82060  0.10740  0.70850  1.0000
  C   C53       1.0  0.67940  0.60740  0.79150  1.0000
  C   C54       1.0  0.67940  0.39260  0.29150  1.0000
  C   C55       1.0  0.17940  0.10740  0.79150  1.0000
  C   C56       1.0  0.17940  0.89260  0.29150  1.0000
