data_image0
_chemical_formula_structural       Fe2K2Cl6O10C4H4
_chemical_formula_sum              "Fe2 K2 Cl6 O10 C4 H4"
_cell_length_a       8.725
_cell_length_b       7.5076
_cell_length_c       9.026
_cell_angle_alpha    90
_cell_angle_beta     112.421
_cell_angle_gamma    90

_space_group_name_H-M_alt    "P 1"
_space_group_IT_number       1

loop_
  _space_group_symop_operation_xyz
  'x, y, z'

loop_
  _atom_site_type_symbol
  _atom_site_label
  _atom_site_symmetry_multiplicity
  _atom_site_fract_x
  _atom_site_fract_y
  _atom_site_fract_z
  _atom_site_occupancy
  Fe  Fe1       1.0  0.82462  0.75000  0.28027  1.0000
  Fe  Fe2       1.0  0.17538  0.25000  0.71973  1.0000
  K   K1        1.0  0.56905  0.75000  0.57766  1.0000
  K   K2        1.0  0.43095  0.25000  0.42234  1.0000
  Cl  Cl1       1.0  0.75063  0.75000  0.00497  1.0000
  Cl  Cl2       1.0  0.24937  0.25000  0.99503  1.0000
  Cl  Cl3       1.0  0.65126  0.98811  0.27623  1.0000
  Cl  Cl4       1.0  0.34874  0.48811  0.72377  1.0000
  Cl  Cl5       1.0  0.34874  0.01189  0.72377  1.0000
  Cl  Cl6       1.0  0.65126  0.51189  0.27623  1.0000
  O   O1        1.0  0.89340  0.75000  0.53210  1.0000
  O   O2        1.0  0.10660  0.25000  0.46790  1.0000
  O   O3        1.0  0.01769  0.92389  0.31926  1.0000
  O   O4        1.0  0.98231  0.42389  0.68074  1.0000
  O   O5        1.0  0.98231  0.07611  0.68074  1.0000
  O   O6        1.0  0.01769  0.57611  0.31926  1.0000
  O   O7        1.0  0.27975  0.93239  0.33329  1.0000
  O   O8        1.0  0.72025  0.43239  0.66671  1.0000
  O   O9        1.0  0.72025  0.06761  0.66671  1.0000
  O   O10       1.0  0.27975  0.56761  0.33329  1.0000
  C   C1        1.0  0.15459  0.85300  0.32658  1.0000
  C   C2        1.0  0.84541  0.35300  0.67342  1.0000
  C   C3        1.0  0.84541  0.14700  0.67342  1.0000
  C   C4        1.0  0.15459  0.64700  0.32658  1.0000
  H   H1        1.0  0.95100  0.84800  0.58100  1.0000
  H   H2        1.0  0.04900  0.34800  0.41900  1.0000
  H   H3        1.0  0.04900  0.15200  0.41900  1.0000
  H   H4        1.0  0.95100  0.65200  0.58100  1.0000
