data_image0
_chemical_formula_structural       Yb4C8H4C4H4C8H4C4H4C12H4C4H4C8H4C4H4C12H4C4H4C8H4C4H4C6H2O32P4
_chemical_formula_sum              "Yb4 C86 H50 O32 P4"
_cell_length_a       14.3832
_cell_length_b       10.4548
_cell_length_c       23.3057
_cell_angle_alpha    90
_cell_angle_beta     107.348
_cell_angle_gamma    90

_space_group_name_H-M_alt    "P 1"
_space_group_IT_number       1

loop_
  _space_group_symop_operation_xyz
  'x, y, z'

loop_
  _atom_site_type_symbol
  _atom_site_label
  _atom_site_symmetry_multiplicity
  _atom_site_fract_x
  _atom_site_fract_y
  _atom_site_fract_z
  _atom_site_occupancy
  Yb  Yb1       1.0  0.15208  0.06783  0.22751  1.0000
  Yb  Yb2       1.0  0.84792  0.06783  0.27249  1.0000
  Yb  Yb3       1.0  0.84792  0.93217  0.77249  1.0000
  Yb  Yb4       1.0  0.15208  0.93217  0.72751  1.0000
  C   C1        1.0  0.18920  0.12580  0.54290  1.0000
  C   C2        1.0  0.81080  0.12580  0.95710  1.0000
  C   C3        1.0  0.81080  0.87420  0.45710  1.0000
  C   C4        1.0  0.18920  0.87420  0.04290  1.0000
  C   C5        1.0  0.25390  0.11530  0.50940  1.0000
  C   C6        1.0  0.74610  0.11530  0.99060  1.0000
  C   C7        1.0  0.74610  0.88470  0.49060  1.0000
  C   C8        1.0  0.25390  0.88470  0.00940  1.0000
  H   H1        1.0  0.32040  0.11290  0.52910  1.0000
  H   H2        1.0  0.67960  0.11290  0.97090  1.0000
  H   H3        1.0  0.67960  0.88710  0.47090  1.0000
  H   H4        1.0  0.32040  0.88710  0.02910  1.0000
  C   C9        1.0  0.22180  0.10830  0.44760  1.0000
  C   C10       1.0  0.77820  0.10830  0.05240  1.0000
  C   C11       1.0  0.77820  0.89170  0.55240  1.0000
  C   C12       1.0  0.22180  0.89170  0.94760  1.0000
  H   H5        1.0  0.26650  0.09910  0.42610  1.0000
  H   H6        1.0  0.73350  0.09910  0.07390  1.0000
  H   H7        1.0  0.73350  0.90090  0.57390  1.0000
  H   H8        1.0  0.26650  0.90090  0.92610  1.0000
  C   C13       1.0  0.12290  0.11480  0.41740  1.0000
  C   C14       1.0  0.87710  0.11480  0.08260  1.0000
  C   C15       1.0  0.87710  0.88520  0.58260  1.0000
  C   C16       1.0  0.12290  0.88520  0.91740  1.0000
  C   C17       1.0  0.05700  0.12420  0.45000  1.0000
  C   C18       1.0  0.94300  0.12420  0.05000  1.0000
  C   C19       1.0  0.94300  0.87580  0.55000  1.0000
  C   C20       1.0  0.05700  0.87580  0.95000  1.0000
  H   H9        1.0  0.99050  0.12800  0.43020  1.0000
  H   H10       1.0  0.00950  0.12800  0.06980  1.0000
  H   H11       1.0  0.00950  0.87200  0.56980  1.0000
  H   H12       1.0  0.99050  0.87200  0.93020  1.0000
  C   C21       1.0  0.09010  0.12770  0.51210  1.0000
  C   C22       1.0  0.90990  0.12770  0.98790  1.0000
  C   C23       1.0  0.90990  0.87230  0.48790  1.0000
  C   C24       1.0  0.09010  0.87230  0.01210  1.0000
  H   H13       1.0  0.04530  0.13140  0.53370  1.0000
  H   H14       1.0  0.95470  0.13140  0.96630  1.0000
  H   H15       1.0  0.95470  0.86860  0.46630  1.0000
  H   H16       1.0  0.04530  0.86860  0.03370  1.0000
  C   C25       1.0  0.08830  0.11210  0.34990  1.0000
  C   C26       1.0  0.91170  0.11210  0.15010  1.0000
  C   C27       1.0  0.91170  0.88790  0.65010  1.0000
  C   C28       1.0  0.08830  0.88790  0.84990  1.0000
  C   C29       1.0  0.21440  0.29920  0.64160  1.0000
  C   C30       1.0  0.78560  0.29920  0.85840  1.0000
  C   C31       1.0  0.78560  0.70080  0.35840  1.0000
  C   C32       1.0  0.21440  0.70080  0.14160  1.0000
  C   C33       1.0  0.22170  0.40010  0.60240  1.0000
  C   C34       1.0  0.77830  0.40010  0.89760  1.0000
  C   C35       1.0  0.77830  0.59990  0.39760  1.0000
  C   C36       1.0  0.22170  0.59990  0.10240  1.0000
  H   H17       1.0  0.23620  0.38230  0.56690  1.0000
  H   H18       1.0  0.76380  0.38230  0.93310  1.0000
  H   H19       1.0  0.76380  0.61770  0.43310  1.0000
  H   H20       1.0  0.23620  0.61770  0.06690  1.0000
  C   C37       1.0  0.20700  0.52550  0.61740  1.0000
  C   C38       1.0  0.79300  0.52550  0.88260  1.0000
  C   C39       1.0  0.79300  0.47450  0.38260  1.0000
  C   C40       1.0  0.20700  0.47450  0.11740  1.0000
  H   H21       1.0  0.20680  0.59160  0.59080  1.0000
  H   H22       1.0  0.79320  0.59160  0.90920  1.0000
  H   H23       1.0  0.79320  0.40840  0.40920  1.0000
  H   H24       1.0  0.20680  0.40840  0.09080  1.0000
  C   C41       1.0  0.19250  0.55150  0.67300  1.0000
  C   C42       1.0  0.80750  0.55150  0.82700  1.0000
  C   C43       1.0  0.80750  0.44850  0.32700  1.0000
  C   C44       1.0  0.19250  0.44850  0.17300  1.0000
  C   C45       1.0  0.18910  0.45190  0.71210  1.0000
  C   C46       1.0  0.81090  0.45190  0.78790  1.0000
  C   C47       1.0  0.81090  0.54810  0.28790  1.0000
  C   C48       1.0  0.18910  0.54810  0.21210  1.0000
  H   H25       1.0  0.17980  0.46960  0.74910  1.0000
  H   H26       1.0  0.82020  0.46960  0.75090  1.0000
  H   H27       1.0  0.82020  0.53040  0.25090  1.0000
  H   H28       1.0  0.17980  0.53040  0.24910  1.0000
  C   C49       1.0  0.19940  0.32790  0.69600  1.0000
  C   C50       1.0  0.80060  0.32790  0.80400  1.0000
  C   C51       1.0  0.80060  0.67210  0.30400  1.0000
  C   C52       1.0  0.19940  0.67210  0.19600  1.0000
  H   H29       1.0  0.19620  0.26190  0.72210  1.0000
  H   H30       1.0  0.80380  0.26190  0.77790  1.0000
  H   H31       1.0  0.80380  0.73810  0.27790  1.0000
  H   H32       1.0  0.19620  0.73810  0.22210  1.0000
  C   C53       1.0  0.17570  0.68660  0.68890  1.0000
  C   C54       1.0  0.82430  0.68660  0.81110  1.0000
  C   C55       1.0  0.82430  0.31340  0.31110  1.0000
  C   C56       1.0  0.17570  0.31340  0.18890  1.0000
  C   C57       1.0  0.35520  0.09520  0.64770  1.0000
  C   C58       1.0  0.64480  0.09520  0.85230  1.0000
  C   C59       1.0  0.64480  0.90480  0.35230  1.0000
  C   C60       1.0  0.35520  0.90480  0.14770  1.0000
  C   C61       1.0  0.38250  0.96740  0.65310  1.0000
  C   C62       1.0  0.61750  0.96740  0.84690  1.0000
  C   C63       1.0  0.61750  0.03260  0.34690  1.0000
  C   C64       1.0  0.38250  0.03260  0.15310  1.0000
  H   H33       1.0  0.33500  0.90400  0.64350  1.0000
  H   H34       1.0  0.66500  0.90400  0.85650  1.0000
  H   H35       1.0  0.66500  0.09600  0.35650  1.0000
  H   H36       1.0  0.33500  0.09600  0.14350  1.0000
  C   C65       1.0  0.47940  0.93380  0.67260  1.0000
  C   C66       1.0  0.52060  0.93380  0.82740  1.0000
  C   C67       1.0  0.52060  0.06620  0.32740  1.0000
  C   C68       1.0  0.47940  0.06620  0.17260  1.0000
  H   H37       1.0  0.49610  0.84760  0.67570  1.0000
  H   H38       1.0  0.50390  0.84760  0.82430  1.0000
  H   H39       1.0  0.50390  0.15240  0.32430  1.0000
  H   H40       1.0  0.49610  0.15240  0.17570  1.0000
  C   C69       1.0  0.55230  0.02430  0.68770  1.0000
  C   C70       1.0  0.44770  0.02430  0.81230  1.0000
  C   C71       1.0  0.44770  0.97570  0.31230  1.0000
  C   C72       1.0  0.55230  0.97570  0.18770  1.0000
  C   C73       1.0  0.52550  0.15490  0.68090  1.0000
  C   C74       1.0  0.47450  0.15490  0.81910  1.0000
  C   C75       1.0  0.47450  0.84510  0.31910  1.0000
  C   C76       1.0  0.52550  0.84510  0.18090  1.0000
  H   H41       1.0  0.57360  0.21750  0.68950  1.0000
  H   H42       1.0  0.42640  0.21750  0.81050  1.0000
  H   H43       1.0  0.42640  0.78250  0.31050  1.0000
  H   H44       1.0  0.57360  0.78250  0.18950  1.0000
  C   C77       1.0  0.42920  0.19010  0.66160  1.0000
  C   C78       1.0  0.57080  0.19010  0.83840  1.0000
  C   C79       1.0  0.57080  0.80990  0.33840  1.0000
  C   C80       1.0  0.42920  0.80990  0.16160  1.0000
  H   H45       1.0  0.41240  0.27630  0.65760  1.0000
  H   H46       1.0  0.58760  0.27630  0.84240  1.0000
  H   H47       1.0  0.58760  0.72370  0.34240  1.0000
  H   H48       1.0  0.41240  0.72370  0.15760  1.0000
  C   C81       1.0  0.65700  0.99040  0.71330  1.0000
  C   C82       1.0  0.34300  0.99040  0.78670  1.0000
  C   C83       1.0  0.34300  0.00960  0.28670  1.0000
  C   C84       1.0  0.65700  0.00960  0.21330  1.0000
  C   C85       1.0  0.00000  0.84560  0.25000  1.0000
  C   C86       1.0  0.00000  0.15440  0.75000  1.0000
  H   H49       1.0  0.00000  0.75660  0.25000  1.0000
  H   H50       1.0  0.00000  0.24340  0.75000  1.0000
  O   O1        1.0  0.15210  0.10220  0.32330  1.0000
  O   O2        1.0  0.84790  0.10220  0.17670  1.0000
  O   O3        1.0  0.84790  0.89780  0.67670  1.0000
  O   O4        1.0  0.15210  0.89780  0.82330  1.0000
  O   O5        1.0  0.99890  0.12030  0.32380  1.0000
  O   O6        1.0  0.00110  0.12030  0.17620  1.0000
  O   O7        1.0  0.00110  0.87970  0.67620  1.0000
  O   O8        1.0  0.99890  0.87970  0.82380  1.0000
  O   O9        1.0  0.18630  0.77880  0.65730  1.0000
  O   O10       1.0  0.81370  0.77880  0.84270  1.0000
  O   O11       1.0  0.81370  0.22120  0.34270  1.0000
  O   O12       1.0  0.18630  0.22120  0.15730  1.0000
  O   O13       1.0  0.15240  0.70530  0.73720  1.0000
  O   O14       1.0  0.84760  0.70530  0.76280  1.0000
  O   O15       1.0  0.84760  0.29470  0.26280  1.0000
  O   O16       1.0  0.15240  0.29470  0.23720  1.0000
  O   O17       1.0  0.67910  0.87880  0.72930  1.0000
  O   O18       1.0  0.32090  0.87880  0.77070  1.0000
  O   O19       1.0  0.32090  0.12120  0.27070  1.0000
  O   O20       1.0  0.67910  0.12120  0.22930  1.0000
  O   O21       1.0  0.72070  0.07850  0.72020  1.0000
  O   O22       1.0  0.27930  0.07850  0.77980  1.0000
  O   O23       1.0  0.27930  0.92150  0.27980  1.0000
  O   O24       1.0  0.72070  0.92150  0.22020  1.0000
  O   O25       1.0  0.16860  0.04840  0.64940  1.0000
  O   O26       1.0  0.83140  0.04840  0.85060  1.0000
  O   O27       1.0  0.83140  0.95160  0.35060  1.0000
  O   O28       1.0  0.16860  0.95160  0.14940  1.0000
  O   O29       1.0  0.07180  0.89080  0.24090  1.0000
  O   O30       1.0  0.92820  0.89080  0.25910  1.0000
  O   O31       1.0  0.92820  0.10920  0.75910  1.0000
  O   O32       1.0  0.07180  0.10920  0.74090  1.0000
  P   P1        1.0  0.22810  0.13540  0.62284  1.0000
  P   P2        1.0  0.77190  0.13540  0.87716  1.0000
  P   P3        1.0  0.77190  0.86460  0.37716  1.0000
  P   P4        1.0  0.22810  0.86460  0.12284  1.0000
