data_image0
_chemical_formula_structural       Y4C8H4C4H4C8H4C4H4C12H4C4H4C8H4C4H4C12H4C4H4C8H4C4H4C6H2O32P4
_chemical_formula_sum              "Y4 C86 H50 O32 P4"
_cell_length_a       14.539
_cell_length_b       10.546
_cell_length_c       23.378
_cell_angle_alpha    90
_cell_angle_beta     107.231
_cell_angle_gamma    90

_space_group_name_H-M_alt    "P 1"
_space_group_IT_number       1

loop_
  _space_group_symop_operation_xyz
  'x, y, z'

loop_
  _atom_site_type_symbol
  _atom_site_label
  _atom_site_symmetry_multiplicity
  _atom_site_fract_x
  _atom_site_fract_y
  _atom_site_fract_z
  _atom_site_occupancy
  Y   Y1        1.0  0.34575  0.43290  0.27236  1.0000
  Y   Y2        1.0  0.65425  0.43290  0.22764  1.0000
  Y   Y3        1.0  0.65425  0.56710  0.72764  1.0000
  Y   Y4        1.0  0.34575  0.56710  0.77236  1.0000
  C   C1        1.0  0.85740  0.60200  0.14587  1.0000
  C   C2        1.0  0.14260  0.60200  0.35413  1.0000
  C   C3        1.0  0.14260  0.39800  0.85413  1.0000
  C   C4        1.0  0.85740  0.39800  0.64587  1.0000
  C   C5        1.0  0.88350  0.47540  0.15230  1.0000
  C   C6        1.0  0.11650  0.47540  0.34770  1.0000
  C   C7        1.0  0.11650  0.52460  0.84770  1.0000
  C   C8        1.0  0.88350  0.52460  0.65230  1.0000
  H   H1        1.0  0.83580  0.41360  0.14290  1.0000
  H   H2        1.0  0.16420  0.41360  0.35710  1.0000
  H   H3        1.0  0.16420  0.58640  0.85710  1.0000
  H   H4        1.0  0.83580  0.58640  0.64290  1.0000
  C   C9        1.0  0.98120  0.43820  0.17310  1.0000
  C   C10       1.0  0.01880  0.43820  0.32690  1.0000
  C   C11       1.0  0.01880  0.56180  0.82690  1.0000
  C   C12       1.0  0.98120  0.56180  0.67310  1.0000
  H   H5        1.0  0.99840  0.35310  0.17820  1.0000
  H   H6        1.0  0.00160  0.35310  0.32180  1.0000
  H   H7        1.0  0.00160  0.64690  0.82180  1.0000
  H   H8        1.0  0.99840  0.64690  0.67820  1.0000
  C   C13       1.0  0.05090  0.53370  0.18553  1.0000
  C   C14       1.0  0.94910  0.53370  0.31447  1.0000
  C   C15       1.0  0.94910  0.46630  0.81447  1.0000
  C   C16       1.0  0.05090  0.46630  0.68553  1.0000
  C   C17       1.0  0.02500  0.65800  0.17830  1.0000
  C   C18       1.0  0.97500  0.65800  0.32170  1.0000
  C   C19       1.0  0.97500  0.34200  0.82170  1.0000
  C   C20       1.0  0.02500  0.34200  0.67830  1.0000
  H   H9        1.0  0.07210  0.72060  0.18660  1.0000
  H   H10       1.0  0.92790  0.72060  0.31340  1.0000
  H   H11       1.0  0.92790  0.27940  0.81340  1.0000
  H   H12       1.0  0.07210  0.27940  0.68660  1.0000
  C   C21       1.0  0.92910  0.69170  0.15860  1.0000
  C   C22       1.0  0.07090  0.69170  0.34140  1.0000
  C   C23       1.0  0.07090  0.30830  0.84140  1.0000
  C   C24       1.0  0.92910  0.30830  0.65860  1.0000
  H   H13       1.0  0.91260  0.77710  0.15380  1.0000
  H   H14       1.0  0.08740  0.77710  0.34620  1.0000
  H   H15       1.0  0.08740  0.22290  0.84620  1.0000
  H   H16       1.0  0.91260  0.22290  0.65380  1.0000
  C   C25       1.0  0.15610  0.49350  0.21195  1.0000
  C   C26       1.0  0.84390  0.49350  0.28805  1.0000
  C   C27       1.0  0.84390  0.50650  0.78805  1.0000
  C   C28       1.0  0.15610  0.50650  0.71195  1.0000
  C   C29       1.0  0.71870  0.80120  0.14048  1.0000
  C   C30       1.0  0.28130  0.80120  0.35952  1.0000
  C   C31       1.0  0.28130  0.19880  0.85952  1.0000
  C   C32       1.0  0.71870  0.19880  0.64048  1.0000
  C   C33       1.0  0.70170  0.82940  0.19430  1.0000
  C   C34       1.0  0.29830  0.82940  0.30570  1.0000
  C   C35       1.0  0.29830  0.17060  0.80570  1.0000
  C   C36       1.0  0.70170  0.17060  0.69430  1.0000
  H   H17       1.0  0.69790  0.76410  0.22020  1.0000
  H   H18       1.0  0.30210  0.76410  0.27980  1.0000
  H   H19       1.0  0.30210  0.23590  0.77980  1.0000
  H   H20       1.0  0.69790  0.23590  0.72020  1.0000
  C   C37       1.0  0.69030  0.95360  0.20990  1.0000
  C   C38       1.0  0.30970  0.95360  0.29010  1.0000
  C   C39       1.0  0.30970  0.04640  0.79010  1.0000
  C   C40       1.0  0.69030  0.04640  0.70990  1.0000
  H   H21       1.0  0.67990  0.97100  0.24650  1.0000
  H   H22       1.0  0.32010  0.97100  0.25350  1.0000
  H   H23       1.0  0.32010  0.02900  0.75350  1.0000
  H   H24       1.0  0.67990  0.02900  0.74650  1.0000
  C   C41       1.0  0.69430  0.05170  0.17205  1.0000
  C   C42       1.0  0.30570  0.05170  0.32795  1.0000
  C   C43       1.0  0.30570  0.94830  0.82795  1.0000
  C   C44       1.0  0.69430  0.94830  0.67205  1.0000
  C   C45       1.0  0.71590  0.02760  0.11940  1.0000
  C   C46       1.0  0.28410  0.02760  0.38060  1.0000
  C   C47       1.0  0.28410  0.97240  0.88060  1.0000
  C   C48       1.0  0.71590  0.97240  0.61940  1.0000
  H   H25       1.0  0.72350  0.09390  0.09490  1.0000
  H   H26       1.0  0.27650  0.09390  0.40510  1.0000
  H   H27       1.0  0.27650  0.90610  0.90510  1.0000
  H   H28       1.0  0.72350  0.90610  0.59490  1.0000
  C   C49       1.0  0.72620  0.90160  0.10340  1.0000
  C   C50       1.0  0.27380  0.90160  0.39660  1.0000
  C   C51       1.0  0.27380  0.09840  0.89660  1.0000
  C   C52       1.0  0.72620  0.09840  0.60340  1.0000
  H   H29       1.0  0.73830  0.88460  0.06730  1.0000
  H   H30       1.0  0.26170  0.88460  0.43270  1.0000
  H   H31       1.0  0.26170  0.11540  0.93270  1.0000
  H   H32       1.0  0.73830  0.11540  0.56730  1.0000
  C   C53       1.0  0.68050  0.18540  0.18965  1.0000
  C   C54       1.0  0.31950  0.18540  0.31035  1.0000
  C   C55       1.0  0.31950  0.81460  0.81035  1.0000
  C   C56       1.0  0.68050  0.81460  0.68965  1.0000
  C   C57       1.0  0.69070  0.62780  0.04167  1.0000
  C   C58       1.0  0.30930  0.62780  0.45833  1.0000
  C   C59       1.0  0.30930  0.37220  0.95833  1.0000
  C   C60       1.0  0.69070  0.37220  0.54167  1.0000
  C   C61       1.0  0.75360  0.62120  0.00750  1.0000
  C   C62       1.0  0.24640  0.62120  0.49250  1.0000
  C   C63       1.0  0.24640  0.37880  0.99250  1.0000
  C   C64       1.0  0.75360  0.37880  0.50750  1.0000
  H   H33       1.0  0.81960  0.62000  0.02620  1.0000
  H   H34       1.0  0.18040  0.62000  0.47380  1.0000
  H   H35       1.0  0.18040  0.38000  0.97380  1.0000
  H   H36       1.0  0.81960  0.38000  0.52620  1.0000
  C   C65       1.0  0.71870  0.61650  0.94590  1.0000
  C   C66       1.0  0.28130  0.61650  0.55410  1.0000
  C   C67       1.0  0.28130  0.38350  0.05410  1.0000
  C   C68       1.0  0.71870  0.38350  0.44590  1.0000
  H   H37       1.0  0.76200  0.61290  0.92360  1.0000
  H   H38       1.0  0.23800  0.61290  0.57640  1.0000
  H   H39       1.0  0.23800  0.38710  0.07640  1.0000
  H   H40       1.0  0.76200  0.38710  0.42360  1.0000
  C   C69       1.0  0.62150  0.61700  0.91672  1.0000
  C   C70       1.0  0.37850  0.61700  0.58328  1.0000
  C   C71       1.0  0.37850  0.38300  0.08328  1.0000
  C   C72       1.0  0.62150  0.38300  0.41672  1.0000
  C   C73       1.0  0.55830  0.62510  0.95100  1.0000
  C   C74       1.0  0.44170  0.62510  0.54900  1.0000
  C   C75       1.0  0.44170  0.37490  0.04900  1.0000
  C   C76       1.0  0.55830  0.37490  0.45100  1.0000
  H   H41       1.0  0.49230  0.62630  0.93220  1.0000
  H   H42       1.0  0.50770  0.62630  0.56780  1.0000
  H   H43       1.0  0.50770  0.37370  0.06780  1.0000
  H   H44       1.0  0.49230  0.37370  0.43220  1.0000
  C   C77       1.0  0.59250  0.63140  0.01260  1.0000
  C   C78       1.0  0.40750  0.63140  0.48740  1.0000
  C   C79       1.0  0.40750  0.36860  0.98740  1.0000
  C   C80       1.0  0.59250  0.36860  0.51260  1.0000
  H   H45       1.0  0.54930  0.63820  0.03490  1.0000
  H   H46       1.0  0.45070  0.63820  0.46510  1.0000
  H   H47       1.0  0.45070  0.36180  0.96510  1.0000
  H   H48       1.0  0.54930  0.36180  0.53490  1.0000
  C   C81       1.0  0.58460  0.61320  0.85064  1.0000
  C   C82       1.0  0.41540  0.61320  0.64936  1.0000
  C   C83       1.0  0.41540  0.38680  0.14936  1.0000
  C   C84       1.0  0.58460  0.38680  0.35064  1.0000
  C   C85       1.0  0.50000  0.65820  0.25000  1.0000
  C   C86       1.0  0.50000  0.34180  0.75000  1.0000
  H   H49       1.0  0.50000  0.74640  0.25000  1.0000
  H   H50       1.0  0.50000  0.25360  0.75000  1.0000
  O   O1        1.0  0.17760  0.38220  0.22738  1.0000
  O   O2        1.0  0.82240  0.38220  0.27262  1.0000
  O   O3        1.0  0.82240  0.61780  0.77262  1.0000
  O   O4        1.0  0.17760  0.61780  0.72738  1.0000
  O   O5        1.0  0.21970  0.58090  0.21883  1.0000
  O   O6        1.0  0.78030  0.58090  0.28117  1.0000
  O   O7        1.0  0.78030  0.41910  0.78117  1.0000
  O   O8        1.0  0.21970  0.41910  0.71883  1.0000
  O   O9        1.0  0.65660  0.20600  0.23663  1.0000
  O   O10       1.0  0.34340  0.20600  0.26337  1.0000
  O   O11       1.0  0.34340  0.79400  0.76337  1.0000
  O   O12       1.0  0.65660  0.79400  0.73663  1.0000
  O   O13       1.0  0.69160  0.27870  0.15755  1.0000
  O   O14       1.0  0.30840  0.27870  0.34245  1.0000
  O   O15       1.0  0.30840  0.72130  0.84245  1.0000
  O   O16       1.0  0.69160  0.72130  0.65755  1.0000
  O   O17       1.0  0.49640  0.61970  0.82658  1.0000
  O   O18       1.0  0.50360  0.61970  0.67342  1.0000
  O   O19       1.0  0.50360  0.38030  0.17342  1.0000
  O   O20       1.0  0.49640  0.38030  0.32658  1.0000
  O   O21       1.0  0.64610  0.60080  0.82256  1.0000
  O   O22       1.0  0.35390  0.60080  0.67744  1.0000
  O   O23       1.0  0.35390  0.39920  0.17744  1.0000
  O   O24       1.0  0.64610  0.39920  0.32256  1.0000
  O   O25       1.0  0.67410  0.55190  0.14991  1.0000
  O   O26       1.0  0.32590  0.55190  0.35009  1.0000
  O   O27       1.0  0.32590  0.44810  0.85009  1.0000
  O   O28       1.0  0.67410  0.44810  0.64991  1.0000
  O   O29       1.0  0.43060  0.61230  0.26159  1.0000
  O   O30       1.0  0.56940  0.61230  0.23841  1.0000
  O   O31       1.0  0.56940  0.38770  0.73841  1.0000
  O   O32       1.0  0.43060  0.38770  0.76159  1.0000
  P   P1        1.0  0.73171  0.63919  0.12221  1.0000
  P   P2        1.0  0.26829  0.63919  0.37779  1.0000
  P   P3        1.0  0.26829  0.36081  0.87779  1.0000
  P   P4        1.0  0.73171  0.36081  0.62221  1.0000
