data_image0
_chemical_formula_structural       Sm4C8H4C4H4C8H4C4H4C12H4C4H4C8H4C4H4C12H4C4H4C8H4C4H4C6H2O32P4
_chemical_formula_sum              "Sm4 C86 H50 O32 P4"
_cell_length_a       14.664
_cell_length_b       10.603
_cell_length_c       23.698
_cell_angle_alpha    90
_cell_angle_beta     108.058
_cell_angle_gamma    90

_space_group_name_H-M_alt    "P 1"
_space_group_IT_number       1

loop_
  _space_group_symop_operation_xyz
  'x, y, z'

loop_
  _atom_site_type_symbol
  _atom_site_label
  _atom_site_symmetry_multiplicity
  _atom_site_fract_x
  _atom_site_fract_y
  _atom_site_fract_z
  _atom_site_occupancy
  Sm  Sm1       1.0  0.34655  0.92753  0.77228  1.0000
  Sm  Sm2       1.0  0.65345  0.92753  0.72772  1.0000
  Sm  Sm3       1.0  0.65345  0.07247  0.22772  1.0000
  Sm  Sm4       1.0  0.34655  0.07247  0.27228  1.0000
  C   C1        1.0  0.28460  0.29710  0.85960  1.0000
  C   C2        1.0  0.71540  0.29710  0.64040  1.0000
  C   C3        1.0  0.71540  0.70290  0.14040  1.0000
  C   C4        1.0  0.28460  0.70290  0.35960  1.0000
  C   C5        1.0  0.29900  0.32290  0.80590  1.0000
  C   C6        1.0  0.70100  0.32290  0.69410  1.0000
  C   C7        1.0  0.70100  0.67710  0.19410  1.0000
  C   C8        1.0  0.29900  0.67710  0.30590  1.0000
  H   H1        1.0  0.30090  0.25730  0.78020  1.0000
  H   H2        1.0  0.69910  0.25730  0.71980  1.0000
  H   H3        1.0  0.69910  0.74270  0.21980  1.0000
  H   H4        1.0  0.30090  0.74270  0.28020  1.0000
  C   C9        1.0  0.31070  0.44530  0.79020  1.0000
  C   C10       1.0  0.68930  0.44530  0.70980  1.0000
  C   C11       1.0  0.68930  0.55470  0.20980  1.0000
  C   C12       1.0  0.31070  0.55470  0.29020  1.0000
  H   H5        1.0  0.32030  0.46180  0.75390  1.0000
  H   H6        1.0  0.67970  0.46180  0.74610  1.0000
  H   H7        1.0  0.67970  0.53820  0.24610  1.0000
  H   H8        1.0  0.32030  0.53820  0.25390  1.0000
  C   C13       1.0  0.30820  0.54380  0.82770  1.0000
  C   C14       1.0  0.69180  0.54380  0.67230  1.0000
  C   C15       1.0  0.69180  0.45620  0.17230  1.0000
  C   C16       1.0  0.30820  0.45620  0.32770  1.0000
  C   C17       1.0  0.29140  0.51890  0.88160  1.0000
  C   C18       1.0  0.70860  0.51890  0.61840  1.0000
  C   C19       1.0  0.70860  0.48110  0.11840  1.0000
  C   C20       1.0  0.29140  0.48110  0.38160  1.0000
  H   H9        1.0  0.28840  0.58480  0.90690  1.0000
  H   H10       1.0  0.71160  0.58480  0.59310  1.0000
  H   H11       1.0  0.71160  0.41520  0.09310  1.0000
  H   H12       1.0  0.28840  0.41520  0.40690  1.0000
  C   C21       1.0  0.27930  0.39530  0.89730  1.0000
  C   C22       1.0  0.72070  0.39530  0.60270  1.0000
  C   C23       1.0  0.72070  0.60470  0.10270  1.0000
  C   C24       1.0  0.27930  0.60470  0.39730  1.0000
  H   H13       1.0  0.26760  0.37830  0.93290  1.0000
  H   H14       1.0  0.73240  0.37830  0.56710  1.0000
  H   H15       1.0  0.73240  0.62170  0.06710  1.0000
  H   H16       1.0  0.26760  0.62170  0.43290  1.0000
  C   C25       1.0  0.32160  0.67660  0.81070  1.0000
  C   C26       1.0  0.67840  0.67660  0.68930  1.0000
  C   C27       1.0  0.67840  0.32340  0.18930  1.0000
  C   C28       1.0  0.32160  0.32340  0.31070  1.0000
  C   C29       1.0  0.30870  0.12850  0.95790  1.0000
  C   C30       1.0  0.69130  0.12850  0.54210  1.0000
  C   C31       1.0  0.69130  0.87150  0.04210  1.0000
  C   C32       1.0  0.30870  0.87150  0.45790  1.0000
  C   C33       1.0  0.40610  0.12740  0.98850  1.0000
  C   C34       1.0  0.59390  0.12740  0.51150  1.0000
  C   C35       1.0  0.59390  0.87260  0.01150  1.0000
  C   C36       1.0  0.40610  0.87260  0.48850  1.0000
  H   H17       1.0  0.45010  0.12930  0.96750  1.0000
  H   H18       1.0  0.54990  0.12930  0.53250  1.0000
  H   H19       1.0  0.54990  0.87070  0.03250  1.0000
  H   H20       1.0  0.45010  0.87070  0.46750  1.0000
  C   C37       1.0  0.43890  0.12370  0.04990  1.0000
  C   C38       1.0  0.56110  0.12370  0.45010  1.0000
  C   C39       1.0  0.56110  0.87630  0.95010  1.0000
  C   C40       1.0  0.43890  0.87630  0.54990  1.0000
  H   H21       1.0  0.50450  0.12440  0.06970  1.0000
  H   H22       1.0  0.49550  0.12440  0.43030  1.0000
  H   H23       1.0  0.49550  0.87560  0.93030  1.0000
  H   H24       1.0  0.50450  0.87560  0.56970  1.0000
  C   C41       1.0  0.37500  0.11880  0.08150  1.0000
  C   C42       1.0  0.62500  0.11880  0.41850  1.0000
  C   C43       1.0  0.62500  0.88120  0.91850  1.0000
  C   C44       1.0  0.37500  0.88120  0.58150  1.0000
  C   C45       1.0  0.27860  0.12020  0.05130  1.0000
  C   C46       1.0  0.72140  0.12020  0.44870  1.0000
  C   C47       1.0  0.72140  0.87980  0.94870  1.0000
  C   C48       1.0  0.27860  0.87980  0.55130  1.0000
  H   H25       1.0  0.23480  0.11970  0.07250  1.0000
  H   H26       1.0  0.76520  0.11970  0.42750  1.0000
  H   H27       1.0  0.76520  0.88030  0.92750  1.0000
  H   H28       1.0  0.23480  0.88030  0.57250  1.0000
  C   C49       1.0  0.24540  0.12240  0.99030  1.0000
  C   C50       1.0  0.75460  0.12240  0.50970  1.0000
  C   C51       1.0  0.75460  0.87760  0.00970  1.0000
  C   C52       1.0  0.24540  0.87760  0.49030  1.0000
  H   H29       1.0  0.17970  0.11970  0.97080  1.0000
  H   H30       1.0  0.82030  0.11970  0.52920  1.0000
  H   H31       1.0  0.82030  0.88030  0.02920  1.0000
  H   H32       1.0  0.17970  0.88030  0.47080  1.0000
  C   C53       1.0  0.40940  0.11830  0.14820  1.0000
  C   C54       1.0  0.59060  0.11830  0.35180  1.0000
  C   C55       1.0  0.59060  0.88170  0.85180  1.0000
  C   C56       1.0  0.40940  0.88170  0.64820  1.0000
  C   C57       1.0  0.14470  0.09620  0.85350  1.0000
  C   C58       1.0  0.85530  0.09620  0.64650  1.0000
  C   C59       1.0  0.85530  0.90380  0.14650  1.0000
  C   C60       1.0  0.14470  0.90380  0.35350  1.0000
  C   C61       1.0  0.11910  0.96930  0.84670  1.0000
  C   C62       1.0  0.88090  0.96930  0.65330  1.0000
  C   C63       1.0  0.88090  0.03070  0.15330  1.0000
  C   C64       1.0  0.11910  0.03070  0.34670  1.0000
  H   H33       1.0  0.16650  0.90750  0.85600  1.0000
  H   H34       1.0  0.83350  0.90750  0.64400  1.0000
  H   H35       1.0  0.83350  0.09250  0.14400  1.0000
  H   H36       1.0  0.16650  0.09250  0.35600  1.0000
  C   C65       1.0  0.02450  0.93540  0.82650  1.0000
  C   C66       1.0  0.97550  0.93540  0.67350  1.0000
  C   C67       1.0  0.97550  0.06460  0.17350  1.0000
  C   C68       1.0  0.02450  0.06460  0.32650  1.0000
  H   H37       1.0  0.00780  0.85060  0.82150  1.0000
  H   H38       1.0  0.99220  0.85060  0.67850  1.0000
  H   H39       1.0  0.99220  0.14940  0.17850  1.0000
  H   H40       1.0  0.00780  0.14940  0.32150  1.0000
  C   C69       1.0  0.95260  0.02780  0.81330  1.0000
  C   C70       1.0  0.04740  0.02780  0.68670  1.0000
  C   C71       1.0  0.04740  0.97220  0.18670  1.0000
  C   C72       1.0  0.95260  0.97220  0.31330  1.0000
  C   C73       1.0  0.97790  0.15320  0.81950  1.0000
  C   C74       1.0  0.02210  0.15320  0.68050  1.0000
  C   C75       1.0  0.02210  0.84680  0.18050  1.0000
  C   C76       1.0  0.97790  0.84680  0.31950  1.0000
  H   H41       1.0  0.93080  0.21530  0.80970  1.0000
  H   H42       1.0  0.06920  0.21530  0.69030  1.0000
  H   H43       1.0  0.06920  0.78470  0.19030  1.0000
  H   H44       1.0  0.93080  0.78470  0.30970  1.0000
  C   C77       1.0  0.07410  0.18650  0.84030  1.0000
  C   C78       1.0  0.92590  0.18650  0.65970  1.0000
  C   C79       1.0  0.92590  0.81350  0.15970  1.0000
  C   C80       1.0  0.07410  0.81350  0.34030  1.0000
  H   H45       1.0  0.09100  0.27120  0.84540  1.0000
  H   H46       1.0  0.90900  0.27120  0.65460  1.0000
  H   H47       1.0  0.90900  0.72880  0.15460  1.0000
  H   H48       1.0  0.09100  0.72880  0.34540  1.0000
  C   C81       1.0  0.84910  0.99120  0.78840  1.0000
  C   C82       1.0  0.15090  0.99120  0.71160  1.0000
  C   C83       1.0  0.15090  0.00880  0.21160  1.0000
  C   C84       1.0  0.84910  0.00880  0.28840  1.0000
  C   C85       1.0  0.50000  0.15250  0.75000  1.0000
  C   C86       1.0  0.50000  0.84750  0.25000  1.0000
  H   H49       1.0  0.50000  0.24020  0.75000  1.0000
  H   H50       1.0  0.50000  0.75980  0.25000  1.0000
  O   O1        1.0  0.32750  0.04760  0.85240  1.0000
  O   O2        1.0  0.67250  0.04760  0.64760  1.0000
  O   O3        1.0  0.67250  0.95240  0.14760  1.0000
  O   O4        1.0  0.32750  0.95240  0.35240  1.0000
  O   O5        1.0  0.34300  0.69500  0.76320  1.0000
  O   O6        1.0  0.65700  0.69500  0.73680  1.0000
  O   O7        1.0  0.65700  0.30500  0.23680  1.0000
  O   O8        1.0  0.34300  0.30500  0.26320  1.0000
  O   O9        1.0  0.31270  0.76720  0.84260  1.0000
  O   O10       1.0  0.68730  0.76720  0.65740  1.0000
  O   O11       1.0  0.68730  0.23280  0.15740  1.0000
  O   O12       1.0  0.31270  0.23280  0.34260  1.0000
  O   O13       1.0  0.49720  0.12420  0.17360  1.0000
  O   O14       1.0  0.50280  0.12420  0.32640  1.0000
  O   O15       1.0  0.50280  0.87580  0.82640  1.0000
  O   O16       1.0  0.49720  0.87580  0.67360  1.0000
  O   O17       1.0  0.34770  0.10990  0.17420  1.0000
  O   O18       1.0  0.65230  0.10990  0.32580  1.0000
  O   O19       1.0  0.65230  0.89010  0.82580  1.0000
  O   O20       1.0  0.34770  0.89010  0.67420  1.0000
  O   O21       1.0  0.78540  0.07500  0.78000  1.0000
  O   O22       1.0  0.21460  0.07500  0.72000  1.0000
  O   O23       1.0  0.21460  0.92500  0.22000  1.0000
  O   O24       1.0  0.78540  0.92500  0.28000  1.0000
  O   O25       1.0  0.82650  0.87880  0.77350  1.0000
  O   O26       1.0  0.17350  0.87880  0.72650  1.0000
  O   O27       1.0  0.17350  0.12120  0.22650  1.0000
  O   O28       1.0  0.82650  0.12120  0.27350  1.0000
  O   O29       1.0  0.43030  0.10900  0.75850  1.0000
  O   O30       1.0  0.56970  0.10900  0.74150  1.0000
  O   O31       1.0  0.56970  0.89100  0.24150  1.0000
  O   O32       1.0  0.43030  0.89100  0.25850  1.0000
  P   P1        1.0  0.27038  0.13450  0.87837  1.0000
  P   P2        1.0  0.72962  0.13450  0.62163  1.0000
  P   P3        1.0  0.72962  0.86550  0.12163  1.0000
  P   P4        1.0  0.27038  0.86550  0.37837  1.0000
