data_image0
_chemical_formula_structural       Gd4C8H4C4H4C8H4C4H4C12H4C4H4C8H4C4H4C12H4C4H4C8H4C4H4C6H2O32P4
_chemical_formula_sum              "Gd4 C86 H50 O32 P4"
_cell_length_a       14.528
_cell_length_b       10.497
_cell_length_c       23.674
_cell_angle_alpha    90
_cell_angle_beta     107.97
_cell_angle_gamma    90

_space_group_name_H-M_alt    "P 1"
_space_group_IT_number       1

loop_
  _space_group_symop_operation_xyz
  'x, y, z'

loop_
  _atom_site_type_symbol
  _atom_site_label
  _atom_site_symmetry_multiplicity
  _atom_site_fract_x
  _atom_site_fract_y
  _atom_site_fract_z
  _atom_site_occupancy
  Gd  Gd1       1.0  0.34954  0.41998  0.77409  1.0000
  Gd  Gd2       1.0  0.65046  0.41998  0.72591  1.0000
  Gd  Gd3       1.0  0.65046  0.58002  0.22591  1.0000
  Gd  Gd4       1.0  0.34954  0.58002  0.27409  1.0000
  C   C1        1.0  0.85400  0.58410  0.64650  1.0000
  C   C2        1.0  0.14600  0.58410  0.85350  1.0000
  C   C3        1.0  0.14600  0.41590  0.35350  1.0000
  C   C4        1.0  0.85400  0.41590  0.14650  1.0000
  C   C5        1.0  0.88050  0.45520  0.65162  1.0000
  C   C6        1.0  0.11950  0.45520  0.84838  1.0000
  C   C7        1.0  0.11950  0.54480  0.34838  1.0000
  C   C8        1.0  0.88050  0.54480  0.15162  1.0000
  H   H1        1.0  0.83320  0.39240  0.64100  1.0000
  H   H2        1.0  0.16680  0.39240  0.85900  1.0000
  H   H3        1.0  0.16680  0.60760  0.35900  1.0000
  H   H4        1.0  0.83320  0.60760  0.14100  1.0000
  C   C9        1.0  0.97650  0.42210  0.67240  1.0000
  C   C10       1.0  0.02350  0.42210  0.82760  1.0000
  C   C11       1.0  0.02350  0.57790  0.32760  1.0000
  C   C12       1.0  0.97650  0.57790  0.17240  1.0000
  H   H5        1.0  0.99370  0.33640  0.67580  1.0000
  H   H6        1.0  0.00630  0.33640  0.82420  1.0000
  H   H7        1.0  0.00630  0.66360  0.32420  1.0000
  H   H8        1.0  0.99370  0.66360  0.17580  1.0000
  C   C13       1.0  0.04850  0.51480  0.68850  1.0000
  C   C14       1.0  0.95150  0.51480  0.81150  1.0000
  C   C15       1.0  0.95150  0.48520  0.31150  1.0000
  C   C16       1.0  0.04850  0.48520  0.18850  1.0000
  C   C17       1.0  0.02250  0.64170  0.68272  1.0000
  C   C18       1.0  0.97750  0.64170  0.81728  1.0000
  C   C19       1.0  0.97750  0.35830  0.31728  1.0000
  C   C20       1.0  0.02250  0.35830  0.18272  1.0000
  H   H9        1.0  0.07040  0.70400  0.69300  1.0000
  H   H10       1.0  0.92960  0.70400  0.80700  1.0000
  H   H11       1.0  0.92960  0.29600  0.30700  1.0000
  H   H12       1.0  0.07040  0.29600  0.19300  1.0000
  C   C21       1.0  0.92560  0.67820  0.66171  1.0000
  C   C22       1.0  0.07440  0.67820  0.83829  1.0000
  C   C23       1.0  0.07440  0.32180  0.33829  1.0000
  C   C24       1.0  0.92560  0.32180  0.16171  1.0000
  H   H13       1.0  0.90870  0.76400  0.65790  1.0000
  H   H14       1.0  0.09130  0.76400  0.84210  1.0000
  H   H15       1.0  0.09130  0.23600  0.34210  1.0000
  H   H16       1.0  0.90870  0.23600  0.15790  1.0000
  C   C25       1.0  0.15250  0.48060  0.71465  1.0000
  C   C26       1.0  0.84750  0.48060  0.78535  1.0000
  C   C27       1.0  0.84750  0.51940  0.28535  1.0000
  C   C28       1.0  0.15250  0.51940  0.21465  1.0000
  C   C29       1.0  0.71370  0.78710  0.63794  1.0000
  C   C30       1.0  0.28630  0.78710  0.86206  1.0000
  C   C31       1.0  0.28630  0.21290  0.36206  1.0000
  C   C32       1.0  0.71370  0.21290  0.13794  1.0000
  C   C33       1.0  0.71390  0.88500  0.59910  1.0000
  C   C34       1.0  0.28610  0.88500  0.90090  1.0000
  C   C35       1.0  0.28610  0.11500  0.40090  1.0000
  C   C36       1.0  0.71390  0.11500  0.09910  1.0000
  H   H17       1.0  0.72320  0.86740  0.56280  1.0000
  H   H18       1.0  0.27680  0.86740  0.93720  1.0000
  H   H19       1.0  0.27680  0.13260  0.43720  1.0000
  H   H20       1.0  0.72320  0.13260  0.06280  1.0000
  C   C37       1.0  0.70010  0.01060  0.61450  1.0000
  C   C38       1.0  0.29990  0.01060  0.88550  1.0000
  C   C39       1.0  0.29990  0.98940  0.38550  1.0000
  C   C40       1.0  0.70010  0.98940  0.11450  1.0000
  H   H21       1.0  0.70030  0.07680  0.58840  1.0000
  H   H22       1.0  0.29970  0.07680  0.91160  1.0000
  H   H23       1.0  0.29970  0.92320  0.41160  1.0000
  H   H24       1.0  0.70030  0.92320  0.08840  1.0000
  C   C41       1.0  0.68590  0.03670  0.66918  1.0000
  C   C42       1.0  0.31410  0.03670  0.83082  1.0000
  C   C43       1.0  0.31410  0.96330  0.33082  1.0000
  C   C44       1.0  0.68590  0.96330  0.16918  1.0000
  C   C45       1.0  0.68700  0.93690  0.70806  1.0000
  C   C46       1.0  0.31300  0.93690  0.79194  1.0000
  C   C47       1.0  0.31300  0.06310  0.29194  1.0000
  C   C48       1.0  0.68700  0.06310  0.20806  1.0000
  H   H25       1.0  0.67850  0.95390  0.74470  1.0000
  H   H26       1.0  0.32150  0.95390  0.75530  1.0000
  H   H27       1.0  0.32150  0.04610  0.25530  1.0000
  H   H28       1.0  0.67850  0.04610  0.24470  1.0000
  C   C49       1.0  0.70040  0.81290  0.69273  1.0000
  C   C50       1.0  0.29960  0.81290  0.80727  1.0000
  C   C51       1.0  0.29960  0.18710  0.30727  1.0000
  C   C52       1.0  0.70040  0.18710  0.19273  1.0000
  H   H29       1.0  0.70070  0.74670  0.71890  1.0000
  H   H30       1.0  0.29930  0.74670  0.78110  1.0000
  H   H31       1.0  0.29930  0.25330  0.28110  1.0000
  H   H32       1.0  0.70070  0.25330  0.21890  1.0000
  C   C53       1.0  0.67150  0.17000  0.68641  1.0000
  C   C54       1.0  0.32850  0.17000  0.81359  1.0000
  C   C55       1.0  0.32850  0.83000  0.31359  1.0000
  C   C56       1.0  0.67150  0.83000  0.18641  1.0000
  C   C57       1.0  0.69100  0.61450  0.54110  1.0000
  C   C58       1.0  0.30900  0.61450  0.95890  1.0000
  C   C59       1.0  0.30900  0.38550  0.45890  1.0000
  C   C60       1.0  0.69100  0.38550  0.04110  1.0000
  C   C61       1.0  0.59290  0.62490  0.50950  1.0000
  C   C62       1.0  0.40710  0.62490  0.99050  1.0000
  C   C63       1.0  0.40710  0.37510  0.49050  1.0000
  C   C64       1.0  0.59290  0.37510  0.00950  1.0000
  H   H33       1.0  0.54780  0.63150  0.53000  1.0000
  H   H34       1.0  0.45220  0.63150  0.97000  1.0000
  H   H35       1.0  0.45220  0.36850  0.47000  1.0000
  H   H36       1.0  0.54780  0.36850  0.03000  1.0000
  C   C65       1.0  0.56200  0.62560  0.44847  1.0000
  C   C66       1.0  0.43800  0.62560  0.05153  1.0000
  C   C67       1.0  0.43800  0.37440  0.55153  1.0000
  C   C68       1.0  0.56200  0.37440  0.94847  1.0000
  H   H37       1.0  0.49640  0.63310  0.42800  1.0000
  H   H38       1.0  0.50360  0.63310  0.07200  1.0000
  H   H39       1.0  0.50360  0.36690  0.57200  1.0000
  H   H40       1.0  0.49640  0.36690  0.92800  1.0000
  C   C69       1.0  0.62850  0.61520  0.41735  1.0000
  C   C70       1.0  0.37150  0.61520  0.08265  1.0000
  C   C71       1.0  0.37150  0.38480  0.58265  1.0000
  C   C72       1.0  0.62850  0.38480  0.91735  1.0000
  C   C73       1.0  0.72550  0.60210  0.44813  1.0000
  C   C74       1.0  0.27450  0.60210  0.05187  1.0000
  C   C75       1.0  0.27450  0.39790  0.55187  1.0000
  C   C76       1.0  0.72550  0.39790  0.94813  1.0000
  H   H41       1.0  0.77010  0.59310  0.42750  1.0000
  H   H42       1.0  0.22990  0.59310  0.07250  1.0000
  H   H43       1.0  0.22990  0.40690  0.57250  1.0000
  H   H44       1.0  0.77010  0.40690  0.92750  1.0000
  C   C77       1.0  0.75680  0.60200  0.50956  1.0000
  C   C78       1.0  0.24320  0.60200  0.99044  1.0000
  C   C79       1.0  0.24320  0.39800  0.49044  1.0000
  C   C80       1.0  0.75680  0.39800  0.00956  1.0000
  H   H45       1.0  0.82240  0.59360  0.52990  1.0000
  H   H46       1.0  0.17760  0.59360  0.97010  1.0000
  H   H47       1.0  0.17760  0.40640  0.47010  1.0000
  H   H48       1.0  0.82240  0.40640  0.02990  1.0000
  C   C81       1.0  0.59610  0.62000  0.35058  1.0000
  C   C82       1.0  0.40390  0.62000  0.14942  1.0000
  C   C83       1.0  0.40390  0.38000  0.64942  1.0000
  C   C84       1.0  0.59610  0.38000  0.85058  1.0000
  C   C85       1.0  0.50000  0.64840  0.75000  1.0000
  C   C86       1.0  0.50000  0.35160  0.25000  1.0000
  H   H49       1.0  0.50000  0.73700  0.75000  1.0000
  H   H50       1.0  0.50000  0.26300  0.25000  1.0000
  O   O1        1.0  0.17597  0.36590  0.73152  1.0000
  O   O2        1.0  0.82403  0.36590  0.76848  1.0000
  O   O3        1.0  0.82403  0.63410  0.26848  1.0000
  O   O4        1.0  0.17597  0.63410  0.23152  1.0000
  O   O5        1.0  0.21666  0.56470  0.72167  1.0000
  O   O6        1.0  0.78334  0.56470  0.77833  1.0000
  O   O7        1.0  0.78334  0.43530  0.27833  1.0000
  O   O8        1.0  0.21666  0.43530  0.22167  1.0000
  O   O9        1.0  0.67900  0.26270  0.65412  1.0000
  O   O10       1.0  0.32100  0.26270  0.84588  1.0000
  O   O11       1.0  0.32100  0.73730  0.34588  1.0000
  O   O12       1.0  0.67900  0.73730  0.15412  1.0000
  O   O13       1.0  0.65112  0.18990  0.73436  1.0000
  O   O14       1.0  0.34888  0.18990  0.76564  1.0000
  O   O15       1.0  0.34888  0.81010  0.26564  1.0000
  O   O16       1.0  0.65112  0.81010  0.23436  1.0000
  O   O17       1.0  0.50722  0.62800  0.32411  1.0000
  O   O18       1.0  0.49278  0.62800  0.17589  1.0000
  O   O19       1.0  0.49278  0.37200  0.67589  1.0000
  O   O20       1.0  0.50722  0.37200  0.82411  1.0000
  O   O21       1.0  0.66030  0.61900  0.32535  1.0000
  O   O22       1.0  0.33970  0.61900  0.17465  1.0000
  O   O23       1.0  0.33970  0.38100  0.67465  1.0000
  O   O24       1.0  0.66030  0.38100  0.82535  1.0000
  O   O25       1.0  0.66842  0.53670  0.64620  1.0000
  O   O26       1.0  0.33158  0.53670  0.85380  1.0000
  O   O27       1.0  0.33158  0.46330  0.35380  1.0000
  O   O28       1.0  0.66842  0.46330  0.14620  1.0000
  O   O29       1.0  0.42730  0.60290  0.75687  1.0000
  O   O30       1.0  0.57270  0.60290  0.74313  1.0000
  O   O31       1.0  0.57270  0.39710  0.24313  1.0000
  O   O32       1.0  0.42730  0.39710  0.25687  1.0000
  P   P1        1.0  0.72759  0.62307  0.62036  1.0000
  P   P2        1.0  0.27241  0.62307  0.87964  1.0000
  P   P3        1.0  0.27241  0.37693  0.37964  1.0000
  P   P4        1.0  0.72759  0.37693  0.12036  1.0000
