data_image0
_chemical_formula_structural       Tb4C8H4C4H4C8H4C4H4C12H4C4H4C8H4C4H4C12H4C4H4C8H4C4H4C6H2O32P4
_chemical_formula_sum              "Tb4 C86 H50 O32 P4"
_cell_length_a       14.617
_cell_length_b       10.572
_cell_length_c       23.548
_cell_angle_alpha    90
_cell_angle_beta     107.787
_cell_angle_gamma    90

_space_group_name_H-M_alt    "P 1"
_space_group_IT_number       1

loop_
  _space_group_symop_operation_xyz
  'x, y, z'

loop_
  _atom_site_type_symbol
  _atom_site_label
  _atom_site_symmetry_multiplicity
  _atom_site_fract_x
  _atom_site_fract_y
  _atom_site_fract_z
  _atom_site_occupancy
  Tb  Tb1       1.0  0.15394  0.56854  0.22797  1.0000
  Tb  Tb2       1.0  0.84606  0.56854  0.27203  1.0000
  Tb  Tb3       1.0  0.84606  0.43146  0.77203  1.0000
  Tb  Tb4       1.0  0.15394  0.43146  0.72797  1.0000
  C   C1        1.0  0.21650  0.19940  0.14093  1.0000
  C   C2        1.0  0.78350  0.19940  0.35907  1.0000
  C   C3        1.0  0.78350  0.80060  0.85907  1.0000
  C   C4        1.0  0.21650  0.80060  0.64093  1.0000
  C   C5        1.0  0.20000  0.17270  0.19461  1.0000
  C   C6        1.0  0.80000  0.17270  0.30539  1.0000
  C   C7        1.0  0.80000  0.82730  0.80539  1.0000
  C   C8        1.0  0.20000  0.82730  0.69461  1.0000
  H   H1        1.0  0.19650  0.23840  0.22010  1.0000
  H   H2        1.0  0.80350  0.23840  0.27990  1.0000
  H   H3        1.0  0.80350  0.76160  0.77990  1.0000
  H   H4        1.0  0.19650  0.76160  0.72010  1.0000
  C   C9        1.0  0.18870  0.04950  0.21040  1.0000
  C   C10       1.0  0.81130  0.04950  0.28960  1.0000
  C   C11       1.0  0.81130  0.95050  0.78960  1.0000
  C   C12       1.0  0.18870  0.95050  0.71040  1.0000
  H   H5        1.0  0.17800  0.03240  0.24660  1.0000
  H   H6        1.0  0.82200  0.03240  0.25340  1.0000
  H   H7        1.0  0.82200  0.96760  0.75340  1.0000
  H   H8        1.0  0.17800  0.96760  0.74660  1.0000
  C   C13       1.0  0.19330  0.95090  0.17254  1.0000
  C   C14       1.0  0.80670  0.95090  0.32746  1.0000
  C   C15       1.0  0.80670  0.04910  0.82746  1.0000
  C   C16       1.0  0.19330  0.04910  0.67254  1.0000
  C   C17       1.0  0.21140  0.97760  0.11960  1.0000
  C   C18       1.0  0.78860  0.97760  0.38040  1.0000
  C   C19       1.0  0.78860  0.02240  0.88040  1.0000
  C   C20       1.0  0.21140  0.02240  0.61960  1.0000
  H   H9        1.0  0.21650  0.91150  0.09470  1.0000
  H   H10       1.0  0.78350  0.91150  0.40530  1.0000
  H   H11       1.0  0.78350  0.08850  0.90530  1.0000
  H   H12       1.0  0.21650  0.08850  0.59470  1.0000
  C   C21       1.0  0.22200  0.09990  0.10300  1.0000
  C   C22       1.0  0.77800  0.09990  0.39700  1.0000
  C   C23       1.0  0.77800  0.90010  0.89700  1.0000
  C   C24       1.0  0.22200  0.90010  0.60300  1.0000
  H   H13       1.0  0.23280  0.11640  0.06680  1.0000
  H   H14       1.0  0.76720  0.11640  0.43320  1.0000
  H   H15       1.0  0.76720  0.88360  0.93320  1.0000
  H   H16       1.0  0.23280  0.88360  0.56680  1.0000
  C   C25       1.0  0.17920  0.81650  0.18988  1.0000
  C   C26       1.0  0.82080  0.81650  0.31012  1.0000
  C   C27       1.0  0.82080  0.18350  0.81012  1.0000
  C   C28       1.0  0.17920  0.18350  0.68988  1.0000
  C   C29       1.0  0.35600  0.40010  0.14651  1.0000
  C   C30       1.0  0.64400  0.40010  0.35349  1.0000
  C   C31       1.0  0.64400  0.59990  0.85349  1.0000
  C   C32       1.0  0.35600  0.59990  0.64651  1.0000
  C   C33       1.0  0.42770  0.30990  0.15970  1.0000
  C   C34       1.0  0.57230  0.30990  0.34030  1.0000
  C   C35       1.0  0.57230  0.69010  0.84030  1.0000
  C   C36       1.0  0.42770  0.69010  0.65970  1.0000
  H   H17       1.0  0.41100  0.22480  0.15510  1.0000
  H   H18       1.0  0.58900  0.22480  0.34490  1.0000
  H   H19       1.0  0.58900  0.77520  0.84490  1.0000
  H   H20       1.0  0.41100  0.77520  0.65510  1.0000
  C   C37       1.0  0.52290  0.34270  0.17930  1.0000
  C   C38       1.0  0.47710  0.34270  0.32070  1.0000
  C   C39       1.0  0.47710  0.65730  0.82070  1.0000
  C   C40       1.0  0.52290  0.65730  0.67930  1.0000
  H   H21       1.0  0.56980  0.28010  0.18780  1.0000
  H   H22       1.0  0.43020  0.28010  0.31220  1.0000
  H   H23       1.0  0.43020  0.71990  0.81220  1.0000
  H   H24       1.0  0.56980  0.71990  0.68780  1.0000
  C   C41       1.0  0.54930  0.46870  0.18643  1.0000
  C   C42       1.0  0.45070  0.46870  0.31357  1.0000
  C   C43       1.0  0.45070  0.53130  0.81357  1.0000
  C   C44       1.0  0.54930  0.53130  0.68643  1.0000
  C   C45       1.0  0.47760  0.56050  0.17320  1.0000
  C   C46       1.0  0.52240  0.56050  0.32680  1.0000
  C   C47       1.0  0.52240  0.43950  0.82680  1.0000
  C   C48       1.0  0.47760  0.43950  0.67320  1.0000
  H   H25       1.0  0.49460  0.64550  0.17800  1.0000
  H   H26       1.0  0.50540  0.64550  0.32200  1.0000
  H   H27       1.0  0.50540  0.35450  0.82200  1.0000
  H   H28       1.0  0.49460  0.35450  0.67800  1.0000
  C   C49       1.0  0.38260  0.52750  0.15330  1.0000
  C   C50       1.0  0.61740  0.52750  0.34670  1.0000
  C   C51       1.0  0.61740  0.47250  0.84670  1.0000
  C   C52       1.0  0.38260  0.47250  0.65330  1.0000
  H   H29       1.0  0.33570  0.59010  0.14420  1.0000
  H   H30       1.0  0.66430  0.59010  0.35580  1.0000
  H   H31       1.0  0.66430  0.40990  0.85580  1.0000
  H   H32       1.0  0.33570  0.40990  0.64420  1.0000
  C   C53       1.0  0.65320  0.50550  0.21188  1.0000
  C   C54       1.0  0.34680  0.50550  0.28812  1.0000
  C   C55       1.0  0.34680  0.49450  0.78812  1.0000
  C   C56       1.0  0.65320  0.49450  0.71188  1.0000
  C   C57       1.0  0.19030  0.37160  0.04207  1.0000
  C   C58       1.0  0.80970  0.37160  0.45793  1.0000
  C   C59       1.0  0.80970  0.62840  0.95793  1.0000
  C   C60       1.0  0.19030  0.62840  0.54207  1.0000
  C   C61       1.0  0.25400  0.37510  0.00923  1.0000
  C   C62       1.0  0.74600  0.37510  0.49077  1.0000
  C   C63       1.0  0.74600  0.62490  0.99077  1.0000
  C   C64       1.0  0.25400  0.62490  0.50923  1.0000
  H   H33       1.0  0.31990  0.37360  0.02830  1.0000
  H   H34       1.0  0.68010  0.37360  0.47170  1.0000
  H   H35       1.0  0.68010  0.62640  0.97170  1.0000
  H   H36       1.0  0.31990  0.62640  0.52830  1.0000
  C   C65       1.0  0.21890  0.38100  0.94775  1.0000
  C   C66       1.0  0.78110  0.38100  0.55225  1.0000
  C   C67       1.0  0.78110  0.61900  0.05225  1.0000
  C   C68       1.0  0.21890  0.61900  0.44775  1.0000
  H   H37       1.0  0.26220  0.38460  0.92590  1.0000
  H   H38       1.0  0.73780  0.38460  0.57410  1.0000
  H   H39       1.0  0.73780  0.61540  0.07410  1.0000
  H   H40       1.0  0.26220  0.61540  0.42590  1.0000
  C   C69       1.0  0.12290  0.38180  0.91807  1.0000
  C   C70       1.0  0.87710  0.38180  0.58193  1.0000
  C   C71       1.0  0.87710  0.61820  0.08193  1.0000
  C   C72       1.0  0.12290  0.61820  0.41807  1.0000
  C   C73       1.0  0.05880  0.37720  0.95057  1.0000
  C   C74       1.0  0.94120  0.37720  0.54943  1.0000
  C   C75       1.0  0.94120  0.62280  0.04943  1.0000
  C   C76       1.0  0.05880  0.62280  0.45057  1.0000
  H   H41       1.0  0.99300  0.37740  0.93120  1.0000
  H   H42       1.0  0.00700  0.37740  0.56880  1.0000
  H   H43       1.0  0.00700  0.62260  0.06880  1.0000
  H   H44       1.0  0.99300  0.62260  0.43120  1.0000
  C   C77       1.0  0.09300  0.37240  0.01211  1.0000
  C   C78       1.0  0.90700  0.37240  0.48789  1.0000
  C   C79       1.0  0.90700  0.62760  0.98789  1.0000
  C   C80       1.0  0.09300  0.62760  0.51211  1.0000
  H   H45       1.0  0.04950  0.36970  0.03380  1.0000
  H   H46       1.0  0.95050  0.36970  0.46620  1.0000
  H   H47       1.0  0.95050  0.63030  0.96620  1.0000
  H   H48       1.0  0.04950  0.63030  0.53380  1.0000
  C   C81       1.0  0.08750  0.38560  0.85106  1.0000
  C   C82       1.0  0.91250  0.38560  0.64894  1.0000
  C   C83       1.0  0.91250  0.61440  0.14894  1.0000
  C   C84       1.0  0.08750  0.61440  0.35106  1.0000
  C   C85       1.0  0.00000  0.34260  0.25000  1.0000
  C   C86       1.0  0.00000  0.65740  0.75000  1.0000
  H   H49       1.0  0.00000  0.25460  0.25000  1.0000
  H   H50       1.0  0.00000  0.74540  0.75000  1.0000
  O   O1        1.0  0.17230  0.44900  0.14847  1.0000
  O   O2        1.0  0.82770  0.44900  0.35153  1.0000
  O   O3        1.0  0.82770  0.55100  0.85153  1.0000
  O   O4        1.0  0.17230  0.55100  0.64847  1.0000
  O   O5        1.0  0.15630  0.79790  0.23703  1.0000
  O   O6        1.0  0.84370  0.79790  0.26297  1.0000
  O   O7        1.0  0.84370  0.20210  0.76297  1.0000
  O   O8        1.0  0.15630  0.20210  0.73703  1.0000
  O   O9        1.0  0.18970  0.72620  0.15782  1.0000
  O   O10       1.0  0.81030  0.72620  0.34218  1.0000
  O   O11       1.0  0.81030  0.27380  0.84218  1.0000
  O   O12       1.0  0.18970  0.27380  0.65782  1.0000
  O   O13       1.0  0.71720  0.42180  0.22001  1.0000
  O   O14       1.0  0.28280  0.42180  0.27999  1.0000
  O   O15       1.0  0.28280  0.57820  0.77999  1.0000
  O   O16       1.0  0.71720  0.57820  0.72001  1.0000
  O   O17       1.0  0.67570  0.61810  0.22689  1.0000
  O   O18       1.0  0.32430  0.61810  0.27311  1.0000
  O   O19       1.0  0.32430  0.38190  0.77311  1.0000
  O   O20       1.0  0.67570  0.38190  0.72689  1.0000
  O   O21       1.0  0.14920  0.39570  0.82427  1.0000
  O   O22       1.0  0.85080  0.39570  0.67573  1.0000
  O   O23       1.0  0.85080  0.60430  0.17573  1.0000
  O   O24       1.0  0.14920  0.60430  0.32427  1.0000
  O   O25       1.0  0.99860  0.37730  0.82615  1.0000
  O   O26       1.0  0.00140  0.37730  0.67385  1.0000
  O   O27       1.0  0.00140  0.62270  0.17385  1.0000
  O   O28       1.0  0.99860  0.62270  0.32615  1.0000
  O   O29       1.0  0.07030  0.38840  0.24082  1.0000
  O   O30       1.0  0.92970  0.38840  0.25918  1.0000
  O   O31       1.0  0.92970  0.61160  0.75918  1.0000
  O   O32       1.0  0.07030  0.61160  0.74082  1.0000
  P   P1        1.0  0.22991  0.36158  0.12210  1.0000
  P   P2        1.0  0.77009  0.36158  0.37790  1.0000
  P   P3        1.0  0.77009  0.63842  0.87790  1.0000
  P   P4        1.0  0.22991  0.63842  0.62210  1.0000
