data_image0
_chemical_formula_structural       Eu4C8H4C4H4C8H4C4H4C12H4C4H4C8H4C4H4C12H4C4H4C8H4C4H4C6H2O32P4
_chemical_formula_sum              "Eu4 C86 H50 O32 P4"
_cell_length_a       14.617
_cell_length_b       10.572
_cell_length_c       23.548
_cell_angle_alpha    90
_cell_angle_beta     107.79
_cell_angle_gamma    90

_space_group_name_H-M_alt    "P 1"
_space_group_IT_number       1

loop_
  _space_group_symop_operation_xyz
  'x, y, z'

loop_
  _atom_site_type_symbol
  _atom_site_label
  _atom_site_symmetry_multiplicity
  _atom_site_fract_x
  _atom_site_fract_y
  _atom_site_fract_z
  _atom_site_occupancy
  Eu  Eu1       1.0  0.34684  0.43090  0.27373  1.0000
  Eu  Eu2       1.0  0.65316  0.43090  0.22627  1.0000
  Eu  Eu3       1.0  0.65316  0.56910  0.72627  1.0000
  Eu  Eu4       1.0  0.34684  0.56910  0.77373  1.0000
  C   C1        1.0  0.85600  0.59840  0.14623  1.0000
  C   C2        1.0  0.14400  0.59840  0.35377  1.0000
  C   C3        1.0  0.14400  0.40160  0.85377  1.0000
  C   C4        1.0  0.85600  0.40160  0.64623  1.0000
  C   C5        1.0  0.88160  0.47270  0.15211  1.0000
  C   C6        1.0  0.11840  0.47270  0.34789  1.0000
  C   C7        1.0  0.11840  0.52730  0.84789  1.0000
  C   C8        1.0  0.88160  0.52730  0.65211  1.0000
  H   H1        1.0  0.83410  0.41110  0.14120  1.0000
  H   H2        1.0  0.16590  0.41110  0.35880  1.0000
  H   H3        1.0  0.16590  0.58890  0.85880  1.0000
  H   H4        1.0  0.83410  0.58890  0.64120  1.0000
  C   C9        1.0  0.97490  0.43710  0.17352  1.0000
  C   C10       1.0  0.02510  0.43710  0.32648  1.0000
  C   C11       1.0  0.02510  0.56290  0.82648  1.0000
  C   C12       1.0  0.97490  0.56290  0.67352  1.0000
  H   H5        1.0  0.99060  0.35180  0.17950  1.0000
  H   H6        1.0  0.00940  0.35180  0.32050  1.0000
  H   H7        1.0  0.00940  0.64820  0.82050  1.0000
  H   H8        1.0  0.99060  0.64820  0.67950  1.0000
  C   C13       1.0  0.04850  0.52950  0.18687  1.0000
  C   C14       1.0  0.95150  0.52950  0.31313  1.0000
  C   C15       1.0  0.95150  0.47050  0.81313  1.0000
  C   C16       1.0  0.04850  0.47050  0.68687  1.0000
  C   C17       1.0  0.02330  0.65660  0.18020  1.0000
  C   C18       1.0  0.97670  0.65660  0.31980  1.0000
  C   C19       1.0  0.97670  0.34340  0.81980  1.0000
  C   C20       1.0  0.02330  0.34340  0.68020  1.0000
  H   H9        1.0  0.07060  0.71870  0.18940  1.0000
  H   H10       1.0  0.92940  0.71870  0.31060  1.0000
  H   H11       1.0  0.92940  0.28130  0.81060  1.0000
  H   H12       1.0  0.07060  0.28130  0.68940  1.0000
  C   C21       1.0  0.92680  0.69060  0.15980  1.0000
  C   C22       1.0  0.07320  0.69060  0.34020  1.0000
  C   C23       1.0  0.07320  0.30940  0.84020  1.0000
  C   C24       1.0  0.92680  0.30940  0.65980  1.0000
  H   H13       1.0  0.90970  0.77560  0.15520  1.0000
  H   H14       1.0  0.09030  0.77560  0.34480  1.0000
  H   H15       1.0  0.09030  0.22440  0.84480  1.0000
  H   H16       1.0  0.90970  0.22440  0.65520  1.0000
  C   C25       1.0  0.15260  0.49300  0.21284  1.0000
  C   C26       1.0  0.84740  0.49300  0.28716  1.0000
  C   C27       1.0  0.84740  0.50700  0.78716  1.0000
  C   C28       1.0  0.15260  0.50700  0.71284  1.0000
  C   C29       1.0  0.71700  0.79900  0.13922  1.0000
  C   C30       1.0  0.28300  0.79900  0.36078  1.0000
  C   C31       1.0  0.28300  0.20100  0.86078  1.0000
  C   C32       1.0  0.71700  0.20100  0.63922  1.0000
  C   C33       1.0  0.70640  0.82630  0.19421  1.0000
  C   C34       1.0  0.29360  0.82630  0.30579  1.0000
  C   C35       1.0  0.29360  0.17370  0.80579  1.0000
  C   C36       1.0  0.70640  0.17370  0.69421  1.0000
  H   H17       1.0  0.70850  0.76150  0.22120  1.0000
  H   H18       1.0  0.29150  0.76150  0.27880  1.0000
  H   H19       1.0  0.29150  0.23850  0.77880  1.0000
  H   H20       1.0  0.70850  0.23850  0.72120  1.0000
  C   C37       1.0  0.69290  0.94970  0.20920  1.0000
  C   C38       1.0  0.30710  0.94970  0.29080  1.0000
  C   C39       1.0  0.30710  0.05030  0.79080  1.0000
  C   C40       1.0  0.69290  0.05030  0.70920  1.0000
  H   H21       1.0  0.68440  0.96660  0.24610  1.0000
  H   H22       1.0  0.31560  0.96660  0.25390  1.0000
  H   H23       1.0  0.31560  0.03340  0.75390  1.0000
  H   H24       1.0  0.68440  0.03340  0.74610  1.0000
  C   C41       1.0  0.69170  0.04770  0.17087  1.0000
  C   C42       1.0  0.30830  0.04770  0.32913  1.0000
  C   C43       1.0  0.30830  0.95230  0.82913  1.0000
  C   C44       1.0  0.69170  0.95230  0.67087  1.0000
  C   C45       1.0  0.70580  0.02060  0.11680  1.0000
  C   C46       1.0  0.29420  0.02060  0.38320  1.0000
  C   C47       1.0  0.29420  0.97940  0.88320  1.0000
  C   C48       1.0  0.70580  0.97940  0.61680  1.0000
  H   H25       1.0  0.70750  0.08610  0.09070  1.0000
  H   H26       1.0  0.29250  0.08610  0.40930  1.0000
  H   H27       1.0  0.29250  0.91390  0.90930  1.0000
  H   H28       1.0  0.70750  0.91390  0.59070  1.0000
  C   C49       1.0  0.71740  0.89640  0.10080  1.0000
  C   C50       1.0  0.28260  0.89640  0.39920  1.0000
  C   C51       1.0  0.28260  0.10360  0.89920  1.0000
  C   C52       1.0  0.71740  0.10360  0.60080  1.0000
  H   H29       1.0  0.72550  0.87930  0.06390  1.0000
  H   H30       1.0  0.27450  0.87930  0.43610  1.0000
  H   H31       1.0  0.27450  0.12070  0.93610  1.0000
  H   H32       1.0  0.72550  0.12070  0.56390  1.0000
  C   C53       1.0  0.67790  0.18170  0.18738  1.0000
  C   C54       1.0  0.32210  0.18170  0.31262  1.0000
  C   C55       1.0  0.32210  0.81830  0.81262  1.0000
  C   C56       1.0  0.67790  0.81830  0.68738  1.0000
  C   C57       1.0  0.69180  0.62750  0.04097  1.0000
  C   C58       1.0  0.30820  0.62750  0.45903  1.0000
  C   C59       1.0  0.30820  0.37250  0.95903  1.0000
  C   C60       1.0  0.69180  0.37250  0.54097  1.0000
  C   C61       1.0  0.75500  0.61900  0.00884  1.0000
  C   C62       1.0  0.24500  0.61900  0.49116  1.0000
  C   C63       1.0  0.24500  0.38100  0.99116  1.0000
  C   C64       1.0  0.75500  0.38100  0.50884  1.0000
  H   H33       1.0  0.82070  0.61660  0.02840  1.0000
  H   H34       1.0  0.17930  0.61660  0.47160  1.0000
  H   H35       1.0  0.17930  0.38340  0.97160  1.0000
  H   H36       1.0  0.82070  0.38340  0.52840  1.0000
  C   C65       1.0  0.72150  0.61380  0.94707  1.0000
  C   C66       1.0  0.27850  0.61380  0.55293  1.0000
  C   C67       1.0  0.27850  0.38620  0.05293  1.0000
  C   C68       1.0  0.72150  0.38620  0.44707  1.0000
  H   H37       1.0  0.76500  0.60780  0.92550  1.0000
  H   H38       1.0  0.23500  0.60780  0.57450  1.0000
  H   H39       1.0  0.23500  0.39220  0.07450  1.0000
  H   H40       1.0  0.76500  0.39220  0.42550  1.0000
  C   C69       1.0  0.62560  0.61740  0.91769  1.0000
  C   C70       1.0  0.37440  0.61740  0.58231  1.0000
  C   C71       1.0  0.37440  0.38260  0.08231  1.0000
  C   C72       1.0  0.62560  0.38260  0.41769  1.0000
  C   C73       1.0  0.56140  0.62530  0.94964  1.0000
  C   C74       1.0  0.43860  0.62530  0.55036  1.0000
  C   C75       1.0  0.43860  0.37470  0.05036  1.0000
  C   C76       1.0  0.56140  0.37470  0.44964  1.0000
  H   H41       1.0  0.49580  0.62770  0.93000  1.0000
  H   H42       1.0  0.50420  0.62770  0.57000  1.0000
  H   H43       1.0  0.50420  0.37230  0.07000  1.0000
  H   H44       1.0  0.49580  0.37230  0.43000  1.0000
  C   C77       1.0  0.59510  0.62960  0.01145  1.0000
  C   C78       1.0  0.40490  0.62960  0.48855  1.0000
  C   C79       1.0  0.40490  0.37040  0.98855  1.0000
  C   C80       1.0  0.59510  0.37040  0.51145  1.0000
  H   H45       1.0  0.55160  0.63400  0.03310  1.0000
  H   H46       1.0  0.44840  0.63400  0.46690  1.0000
  H   H47       1.0  0.44840  0.36600  0.96690  1.0000
  H   H48       1.0  0.55160  0.36600  0.53310  1.0000
  C   C81       1.0  0.59070  0.61380  0.85113  1.0000
  C   C82       1.0  0.40930  0.61380  0.64887  1.0000
  C   C83       1.0  0.40930  0.38620  0.14887  1.0000
  C   C84       1.0  0.59070  0.38620  0.35113  1.0000
  C   C85       1.0  0.50000  0.65610  0.25000  1.0000
  C   C86       1.0  0.50000  0.34390  0.75000  1.0000
  H   H49       1.0  0.50000  0.74410  0.25000  1.0000
  H   H50       1.0  0.50000  0.25590  0.75000  1.0000
  O   O1        1.0  0.17450  0.38110  0.22827  1.0000
  O   O2        1.0  0.82550  0.38110  0.27173  1.0000
  O   O3        1.0  0.82550  0.61890  0.77173  1.0000
  O   O4        1.0  0.17450  0.61890  0.72827  1.0000
  O   O5        1.0  0.21655  0.57730  0.21948  1.0000
  O   O6        1.0  0.78345  0.57730  0.28052  1.0000
  O   O7        1.0  0.78345  0.42270  0.78052  1.0000
  O   O8        1.0  0.21655  0.42270  0.71948  1.0000
  O   O9        1.0  0.65720  0.19940  0.23548  1.0000
  O   O10       1.0  0.34280  0.19940  0.26452  1.0000
  O   O11       1.0  0.34280  0.80060  0.76452  1.0000
  O   O12       1.0  0.65720  0.80060  0.73548  1.0000
  O   O13       1.0  0.68530  0.27250  0.15488  1.0000
  O   O14       1.0  0.31470  0.27250  0.34512  1.0000
  O   O15       1.0  0.31470  0.72750  0.84512  1.0000
  O   O16       1.0  0.68530  0.72750  0.65488  1.0000
  O   O17       1.0  0.50250  0.62200  0.82562  1.0000
  O   O18       1.0  0.49750  0.62200  0.67438  1.0000
  O   O19       1.0  0.49750  0.37800  0.17438  1.0000
  O   O20       1.0  0.50250  0.37800  0.32562  1.0000
  O   O21       1.0  0.65120  0.60450  0.82388  1.0000
  O   O22       1.0  0.34880  0.60450  0.67612  1.0000
  O   O23       1.0  0.34880  0.39550  0.17612  1.0000
  O   O24       1.0  0.65120  0.39550  0.32388  1.0000
  O   O25       1.0  0.67295  0.55110  0.14697  1.0000
  O   O26       1.0  0.32705  0.55110  0.35303  1.0000
  O   O27       1.0  0.32705  0.44890  0.85303  1.0000
  O   O28       1.0  0.67295  0.44890  0.64697  1.0000
  O   O29       1.0  0.42930  0.61390  0.26034  1.0000
  O   O30       1.0  0.57070  0.61390  0.23966  1.0000
  O   O31       1.0  0.57070  0.38610  0.73966  1.0000
  O   O32       1.0  0.42930  0.38610  0.76034  1.0000
  P   P1        1.0  0.73056  0.63767  0.12085  1.0000
  P   P2        1.0  0.26944  0.63767  0.37915  1.0000
  P   P3        1.0  0.26944  0.36233  0.87915  1.0000
  P   P4        1.0  0.73056  0.36233  0.62085  1.0000
