data_image0
_chemical_formula_structural       Lu4C4H4P4O28C4O4C32H4C4H4C4H4C4H4C4H4C4H4C4H4C4H4C4H4C4H4C4H4C6H2
_chemical_formula_sum              "Lu4 C86 H50 P4 O32"
_cell_length_a       14.4262
_cell_length_b       10.4932
_cell_length_c       23.2269
_cell_angle_alpha    90
_cell_angle_beta     107.052
_cell_angle_gamma    90

_space_group_name_H-M_alt    "P 1"
_space_group_IT_number       1

loop_
  _space_group_symop_operation_xyz
  'x, y, z'

loop_
  _atom_site_type_symbol
  _atom_site_label
  _atom_site_symmetry_multiplicity
  _atom_site_fract_x
  _atom_site_fract_y
  _atom_site_fract_z
  _atom_site_occupancy
  Lu  Lu1       1.0  0.15336  0.06603  0.22722  1.0000
  Lu  Lu2       1.0  0.84664  0.06603  0.27278  1.0000
  Lu  Lu3       1.0  0.84664  0.93397  0.77278  1.0000
  Lu  Lu4       1.0  0.15336  0.93397  0.72722  1.0000
  C   C1        1.0  0.48200  0.06020  0.17230  1.0000
  C   C2        1.0  0.51800  0.06020  0.32770  1.0000
  C   C3        1.0  0.51800  0.93980  0.82770  1.0000
  C   C4        1.0  0.48200  0.93980  0.67230  1.0000
  H   H1        1.0  0.49950  0.14580  0.17610  1.0000
  H   H2        1.0  0.50050  0.14580  0.32390  1.0000
  H   H3        1.0  0.50050  0.85420  0.82390  1.0000
  H   H4        1.0  0.49950  0.85420  0.67610  1.0000
  P   P1        1.0  0.23118  0.86155  0.12253  1.0000
  P   P2        1.0  0.76882  0.86155  0.37747  1.0000
  P   P3        1.0  0.76882  0.13845  0.87747  1.0000
  P   P4        1.0  0.23118  0.13845  0.62253  1.0000
  O   O1        1.0  0.17370  0.94860  0.15047  1.0000
  O   O2        1.0  0.82630  0.94860  0.34953  1.0000
  O   O3        1.0  0.82630  0.05140  0.84953  1.0000
  O   O4        1.0  0.17370  0.05140  0.65047  1.0000
  O   O5        1.0  0.15530  0.29230  0.23701  1.0000
  O   O6        1.0  0.84470  0.29230  0.26299  1.0000
  O   O7        1.0  0.84470  0.70770  0.76299  1.0000
  O   O8        1.0  0.15530  0.70770  0.73701  1.0000
  O   O9        1.0  0.72190  0.92060  0.21973  1.0000
  O   O10       1.0  0.27810  0.92060  0.28027  1.0000
  O   O11       1.0  0.27810  0.07940  0.78027  1.0000
  O   O12       1.0  0.72190  0.07940  0.71973  1.0000
  O   O13       1.0  0.68010  0.11600  0.22931  1.0000
  O   O14       1.0  0.31990  0.11600  0.27069  1.0000
  O   O15       1.0  0.31990  0.88400  0.77069  1.0000
  O   O16       1.0  0.68010  0.88400  0.72931  1.0000
  O   O17       1.0  0.99520  0.87930  0.82520  1.0000
  O   O18       1.0  0.00480  0.87930  0.67480  1.0000
  O   O19       1.0  0.00480  0.12070  0.17480  1.0000
  O   O20       1.0  0.99520  0.12070  0.32520  1.0000
  O   O21       1.0  0.18910  0.22000  0.15676  1.0000
  O   O22       1.0  0.81090  0.22000  0.34324  1.0000
  O   O23       1.0  0.81090  0.78000  0.84324  1.0000
  O   O24       1.0  0.18910  0.78000  0.65676  1.0000
  O   O25       1.0  0.14550  0.90130  0.82123  1.0000
  O   O26       1.0  0.85450  0.90130  0.67877  1.0000
  O   O27       1.0  0.85450  0.09870  0.17877  1.0000
  O   O28       1.0  0.14550  0.09870  0.32123  1.0000
  C   C5        1.0  0.21760  0.69800  0.14105  1.0000
  C   C6        1.0  0.78240  0.69800  0.35895  1.0000
  C   C7        1.0  0.78240  0.30200  0.85895  1.0000
  C   C8        1.0  0.21760  0.30200  0.64105  1.0000
  O   O29       1.0  0.06890  0.88840  0.23742  1.0000
  O   O30       1.0  0.93110  0.88840  0.26258  1.0000
  O   O31       1.0  0.93110  0.11160  0.76258  1.0000
  O   O32       1.0  0.06890  0.11160  0.73742  1.0000
  C   C9        1.0  0.65770  0.00410  0.21220  1.0000
  C   C10       1.0  0.34230  0.00410  0.28780  1.0000
  C   C11       1.0  0.34230  0.99590  0.78780  1.0000
  C   C12       1.0  0.65770  0.99590  0.71220  1.0000
  C   C13       1.0  0.35800  0.89910  0.14596  1.0000
  C   C14       1.0  0.64200  0.89910  0.35404  1.0000
  C   C15       1.0  0.64200  0.10090  0.85404  1.0000
  C   C16       1.0  0.35800  0.10090  0.64596  1.0000
  C   C17       1.0  0.19050  0.87170  0.04190  1.0000
  C   C18       1.0  0.80950  0.87170  0.45810  1.0000
  C   C19       1.0  0.80950  0.12830  0.95810  1.0000
  C   C20       1.0  0.19050  0.12830  0.54190  1.0000
  C   C21       1.0  0.19360  0.44640  0.17220  1.0000
  C   C22       1.0  0.80640  0.44640  0.32780  1.0000
  C   C23       1.0  0.80640  0.55360  0.82780  1.0000
  C   C24       1.0  0.19360  0.55360  0.67220  1.0000
  C   C25       1.0  0.17860  0.31040  0.18900  1.0000
  C   C26       1.0  0.82140  0.31040  0.31100  1.0000
  C   C27       1.0  0.82140  0.68960  0.81100  1.0000
  C   C28       1.0  0.17860  0.68960  0.68900  1.0000
  C   C29       1.0  0.55350  0.96820  0.18670  1.0000
  C   C30       1.0  0.44650  0.96820  0.31330  1.0000
  C   C31       1.0  0.44650  0.03180  0.81330  1.0000
  C   C32       1.0  0.55350  0.03180  0.68670  1.0000
  C   C33       1.0  0.08470  0.88890  0.84926  1.0000
  C   C34       1.0  0.91530  0.88890  0.65074  1.0000
  C   C35       1.0  0.91530  0.11110  0.15074  1.0000
  C   C36       1.0  0.08470  0.11110  0.34926  1.0000
  C   C37       1.0  0.52660  0.84170  0.17880  1.0000
  C   C38       1.0  0.47340  0.84170  0.32120  1.0000
  C   C39       1.0  0.47340  0.15830  0.82120  1.0000
  C   C40       1.0  0.52660  0.15830  0.67880  1.0000
  H   H5        1.0  0.57410  0.77880  0.18690  1.0000
  H   H6        1.0  0.42590  0.77880  0.31310  1.0000
  H   H7        1.0  0.42590  0.22120  0.81310  1.0000
  H   H8        1.0  0.57410  0.22120  0.68690  1.0000
  C   C41       1.0  0.20180  0.66810  0.19570  1.0000
  C   C42       1.0  0.79820  0.66810  0.30430  1.0000
  C   C43       1.0  0.79820  0.33190  0.80430  1.0000
  C   C44       1.0  0.20180  0.33190  0.69570  1.0000
  H   H9        1.0  0.19880  0.73320  0.22230  1.0000
  H   H10       1.0  0.80120  0.73320  0.27770  1.0000
  H   H11       1.0  0.80120  0.26680  0.77770  1.0000
  H   H12       1.0  0.19880  0.26680  0.72230  1.0000
  C   C45       1.0  0.19090  0.54590  0.21080  1.0000
  C   C46       1.0  0.80910  0.54590  0.28920  1.0000
  C   C47       1.0  0.80910  0.45410  0.78920  1.0000
  C   C48       1.0  0.19090  0.45410  0.71080  1.0000
  H   H13       1.0  0.18140  0.52820  0.24790  1.0000
  H   H14       1.0  0.81860  0.52820  0.25210  1.0000
  H   H15       1.0  0.81860  0.47180  0.75210  1.0000
  H   H16       1.0  0.18140  0.47180  0.74790  1.0000
  C   C49       1.0  0.43000  0.80730  0.15920  1.0000
  C   C50       1.0  0.57000  0.80730  0.34080  1.0000
  C   C51       1.0  0.57000  0.19270  0.84080  1.0000
  C   C52       1.0  0.43000  0.19270  0.65920  1.0000
  H   H17       1.0  0.41310  0.72150  0.15470  1.0000
  H   H18       1.0  0.58690  0.72150  0.34530  1.0000
  H   H19       1.0  0.58690  0.27850  0.84530  1.0000
  H   H20       1.0  0.41310  0.27850  0.65470  1.0000
  C   C53       1.0  0.38610  0.02830  0.15260  1.0000
  C   C54       1.0  0.61390  0.02830  0.34740  1.0000
  C   C55       1.0  0.61390  0.97170  0.84740  1.0000
  C   C56       1.0  0.38610  0.97170  0.65260  1.0000
  H   H21       1.0  0.33920  0.09200  0.14360  1.0000
  H   H22       1.0  0.66080  0.09200  0.35640  1.0000
  H   H23       1.0  0.66080  0.90800  0.85640  1.0000
  H   H24       1.0  0.33920  0.90800  0.64360  1.0000
  C   C57       1.0  0.21850  0.88770  0.94590  1.0000
  C   C58       1.0  0.78150  0.88770  0.55410  1.0000
  C   C59       1.0  0.78150  0.11230  0.05410  1.0000
  C   C60       1.0  0.21850  0.11230  0.44590  1.0000
  H   H25       1.0  0.26190  0.89380  0.92330  1.0000
  H   H26       1.0  0.73810  0.89380  0.57670  1.0000
  H   H27       1.0  0.73810  0.10620  0.07670  1.0000
  H   H28       1.0  0.26190  0.10620  0.42330  1.0000
  C   C61       1.0  0.21110  0.47370  0.11840  1.0000
  C   C62       1.0  0.78890  0.47370  0.38160  1.0000
  C   C63       1.0  0.78890  0.52630  0.88160  1.0000
  C   C64       1.0  0.21110  0.52630  0.61840  1.0000
  H   H29       1.0  0.21480  0.40770  0.09250  1.0000
  H   H30       1.0  0.78520  0.40770  0.40750  1.0000
  H   H31       1.0  0.78520  0.59230  0.90750  1.0000
  H   H32       1.0  0.21480  0.59230  0.59250  1.0000
  C   C65       1.0  0.25420  0.88120  0.00790  1.0000
  C   C66       1.0  0.74580  0.88120  0.49210  1.0000
  C   C67       1.0  0.74580  0.11880  0.99210  1.0000
  C   C68       1.0  0.25420  0.11880  0.50790  1.0000
  H   H33       1.0  0.32070  0.88330  0.02650  1.0000
  H   H34       1.0  0.67930  0.88330  0.47350  1.0000
  H   H35       1.0  0.67930  0.11670  0.97350  1.0000
  H   H36       1.0  0.32070  0.11670  0.52650  1.0000
  C   C69       1.0  0.22330  0.59910  0.10240  1.0000
  C   C70       1.0  0.77670  0.59910  0.39760  1.0000
  C   C71       1.0  0.77670  0.40090  0.89760  1.0000
  C   C72       1.0  0.22330  0.40090  0.60240  1.0000
  H   H37       1.0  0.23530  0.61660  0.06590  1.0000
  H   H38       1.0  0.76470  0.61660  0.43410  1.0000
  H   H39       1.0  0.76470  0.38340  0.93410  1.0000
  H   H40       1.0  0.23530  0.38340  0.56590  1.0000
  C   C73       1.0  0.05780  0.87630  0.95070  1.0000
  C   C74       1.0  0.94220  0.87630  0.54930  1.0000
  C   C75       1.0  0.94220  0.12370  0.04930  1.0000
  C   C76       1.0  0.05780  0.12370  0.45070  1.0000
  H   H41       1.0  0.99140  0.87370  0.93170  1.0000
  H   H42       1.0  0.00860  0.87370  0.56830  1.0000
  H   H43       1.0  0.00860  0.12630  0.06830  1.0000
  H   H44       1.0  0.99140  0.12630  0.43170  1.0000
  C   C77       1.0  0.09180  0.87110  0.01280  1.0000
  C   C78       1.0  0.90820  0.87110  0.48720  1.0000
  C   C79       1.0  0.90820  0.12890  0.98720  1.0000
  C   C80       1.0  0.09180  0.12890  0.51280  1.0000
  H   H45       1.0  0.04810  0.86720  0.03520  1.0000
  H   H46       1.0  0.95190  0.86720  0.46480  1.0000
  H   H47       1.0  0.95190  0.13280  0.96480  1.0000
  H   H48       1.0  0.04810  0.13280  0.53520  1.0000
  C   C81       1.0  0.12120  0.88520  0.91686  1.0000
  C   C82       1.0  0.87880  0.88520  0.58314  1.0000
  C   C83       1.0  0.87880  0.11480  0.08314  1.0000
  C   C84       1.0  0.12120  0.11480  0.41686  1.0000
  C   C85       1.0  0.00000  0.84450  0.25000  1.0000
  C   C86       1.0  0.00000  0.15550  0.75000  1.0000
  H   H49       1.0  0.00000  0.75580  0.25000  1.0000
  H   H50       1.0  0.00000  0.24420  0.75000  1.0000
