data_image0
_chemical_formula_structural       Dy4C4H4P4O8C8O4C28H4C4H4C4H4C4H4C4H4C4H4C4H4O12C8H4C4H4C4H4C4H4O8C2H2
_chemical_formula_sum              "Dy4 C86 H50 P4 O32"
_cell_length_a       14.617
_cell_length_b       10.572
_cell_length_c       23.548
_cell_angle_alpha    90
_cell_angle_beta     107.787
_cell_angle_gamma    90

_space_group_name_H-M_alt    "P 1"
_space_group_IT_number       1

loop_
  _space_group_symop_operation_xyz
  'x, y, z'

loop_
  _atom_site_type_symbol
  _atom_site_label
  _atom_site_symmetry_multiplicity
  _atom_site_fract_x
  _atom_site_fract_y
  _atom_site_fract_z
  _atom_site_occupancy
  Dy  Dy1       1.0  0.15382  0.56934  0.22776  1.0000
  Dy  Dy2       1.0  0.84618  0.56934  0.27224  1.0000
  Dy  Dy3       1.0  0.84618  0.43066  0.77224  1.0000
  Dy  Dy4       1.0  0.15382  0.43066  0.72776  1.0000
  C   C1        1.0  0.47860  0.56170  0.17310  1.0000
  C   C2        1.0  0.52140  0.56170  0.32690  1.0000
  C   C3        1.0  0.52140  0.43830  0.82690  1.0000
  C   C4        1.0  0.47860  0.43830  0.67310  1.0000
  H   H1        1.0  0.49560  0.64670  0.17790  1.0000
  H   H2        1.0  0.50440  0.64670  0.32210  1.0000
  H   H3        1.0  0.50440  0.35330  0.82210  1.0000
  H   H4        1.0  0.49560  0.35330  0.67790  1.0000
  P   P1        1.0  0.23027  0.36290  0.12234  1.0000
  P   P2        1.0  0.76973  0.36290  0.37766  1.0000
  P   P3        1.0  0.76973  0.63710  0.87766  1.0000
  P   P4        1.0  0.23027  0.63710  0.62234  1.0000
  O   O1        1.0  0.15637  0.79950  0.23732  1.0000
  O   O2        1.0  0.84363  0.79950  0.26268  1.0000
  O   O3        1.0  0.84363  0.20050  0.76268  1.0000
  O   O4        1.0  0.15637  0.20050  0.73732  1.0000
  O   O5        1.0  0.18940  0.72580  0.15756  1.0000
  O   O6        1.0  0.81060  0.72580  0.34244  1.0000
  O   O7        1.0  0.81060  0.27420  0.84244  1.0000
  O   O8        1.0  0.18940  0.27420  0.65756  1.0000
  C   C5        1.0  0.17970  0.81580  0.18957  1.0000
  C   C6        1.0  0.82030  0.81580  0.31043  1.0000
  C   C7        1.0  0.82030  0.18420  0.81043  1.0000
  C   C8        1.0  0.17970  0.18420  0.68957  1.0000
  C   C9        1.0  0.19340  0.95140  0.17277  1.0000
  C   C10       1.0  0.80660  0.95140  0.32723  1.0000
  C   C11       1.0  0.80660  0.04860  0.82723  1.0000
  C   C12       1.0  0.19340  0.04860  0.67277  1.0000
  O   O9        1.0  0.17301  0.45040  0.14903  1.0000
  O   O10       1.0  0.82699  0.45040  0.35097  1.0000
  O   O11       1.0  0.82699  0.54960  0.85097  1.0000
  O   O12       1.0  0.17301  0.54960  0.64903  1.0000
  C   C13       1.0  0.21690  0.19920  0.14093  1.0000
  C   C14       1.0  0.78310  0.19920  0.35907  1.0000
  C   C15       1.0  0.78310  0.80080  0.85907  1.0000
  C   C16       1.0  0.21690  0.80080  0.64093  1.0000
  C   C17       1.0  0.19060  0.37230  0.04192  1.0000
  C   C18       1.0  0.80940  0.37230  0.45808  1.0000
  C   C19       1.0  0.80940  0.62770  0.95808  1.0000
  C   C20       1.0  0.19060  0.62770  0.54192  1.0000
  C   C21       1.0  0.35700  0.40140  0.14658  1.0000
  C   C22       1.0  0.64300  0.40140  0.35342  1.0000
  C   C23       1.0  0.64300  0.59860  0.85342  1.0000
  C   C24       1.0  0.35700  0.59860  0.64658  1.0000
  C   C25       1.0  0.65400  0.50620  0.21161  1.0000
  C   C26       1.0  0.34600  0.50620  0.28839  1.0000
  C   C27       1.0  0.34600  0.49380  0.78839  1.0000
  C   C28       1.0  0.65400  0.49380  0.71161  1.0000
  C   C29       1.0  0.54990  0.47010  0.18639  1.0000
  C   C30       1.0  0.45010  0.47010  0.31361  1.0000
  C   C31       1.0  0.45010  0.52990  0.81361  1.0000
  C   C32       1.0  0.54990  0.52990  0.68639  1.0000
  C   C33       1.0  0.12270  0.38160  0.91790  1.0000
  C   C34       1.0  0.87730  0.38160  0.58210  1.0000
  C   C35       1.0  0.87730  0.61840  0.08210  1.0000
  C   C36       1.0  0.12270  0.61840  0.41790  1.0000
  C   C37       1.0  0.52410  0.34410  0.17920  1.0000
  C   C38       1.0  0.47590  0.34410  0.32080  1.0000
  C   C39       1.0  0.47590  0.65590  0.82080  1.0000
  C   C40       1.0  0.52410  0.65590  0.67920  1.0000
  H   H5        1.0  0.57150  0.28210  0.18740  1.0000
  H   H6        1.0  0.42850  0.28210  0.31260  1.0000
  H   H7        1.0  0.42850  0.71790  0.81260  1.0000
  H   H8        1.0  0.57150  0.71790  0.68740  1.0000
  C   C41       1.0  0.38340  0.52900  0.15318  1.0000
  C   C42       1.0  0.61660  0.52900  0.34682  1.0000
  C   C43       1.0  0.61660  0.47100  0.84682  1.0000
  C   C44       1.0  0.38340  0.47100  0.65318  1.0000
  H   H9        1.0  0.33640  0.59160  0.14400  1.0000
  H   H10       1.0  0.66360  0.59160  0.35600  1.0000
  H   H11       1.0  0.66360  0.40840  0.85600  1.0000
  H   H12       1.0  0.33640  0.40840  0.64400  1.0000
  C   C45       1.0  0.42830  0.30950  0.15972  1.0000
  C   C46       1.0  0.57170  0.30950  0.34028  1.0000
  C   C47       1.0  0.57170  0.69050  0.84028  1.0000
  C   C48       1.0  0.42830  0.69050  0.65972  1.0000
  H   H13       1.0  0.41150  0.22430  0.15540  1.0000
  H   H14       1.0  0.58850  0.22430  0.34460  1.0000
  H   H15       1.0  0.58850  0.77570  0.84460  1.0000
  H   H16       1.0  0.41150  0.77570  0.65540  1.0000
  C   C49       1.0  0.18940  0.05030  0.21050  1.0000
  C   C50       1.0  0.81060  0.05030  0.28950  1.0000
  C   C51       1.0  0.81060  0.94970  0.78950  1.0000
  C   C52       1.0  0.18940  0.94970  0.71050  1.0000
  H   H17       1.0  0.17900  0.03350  0.24680  1.0000
  H   H18       1.0  0.82100  0.03350  0.25320  1.0000
  H   H19       1.0  0.82100  0.96650  0.75320  1.0000
  H   H20       1.0  0.17900  0.96650  0.74680  1.0000
  C   C53       1.0  0.25400  0.37850  0.00877  1.0000
  C   C54       1.0  0.74600  0.37850  0.49123  1.0000
  C   C55       1.0  0.74600  0.62150  0.99123  1.0000
  C   C56       1.0  0.25400  0.62150  0.50877  1.0000
  H   H21       1.0  0.31980  0.37940  0.02800  1.0000
  H   H22       1.0  0.68020  0.37940  0.47200  1.0000
  H   H23       1.0  0.68020  0.62060  0.97200  1.0000
  H   H24       1.0  0.31980  0.62060  0.52800  1.0000
  C   C57       1.0  0.22010  0.38330  0.94740  1.0000
  C   C58       1.0  0.77990  0.38330  0.55260  1.0000
  C   C59       1.0  0.77990  0.61670  0.05260  1.0000
  C   C60       1.0  0.22010  0.61670  0.44740  1.0000
  H   H25       1.0  0.26340  0.38780  0.92560  1.0000
  H   H26       1.0  0.73660  0.38780  0.57440  1.0000
  H   H27       1.0  0.73660  0.61220  0.07440  1.0000
  H   H28       1.0  0.26340  0.61220  0.42560  1.0000
  C   C61       1.0  0.09270  0.37230  0.01220  1.0000
  C   C62       1.0  0.90730  0.37230  0.48780  1.0000
  C   C63       1.0  0.90730  0.62770  0.98780  1.0000
  C   C64       1.0  0.09270  0.62770  0.51220  1.0000
  H   H29       1.0  0.04920  0.36980  0.03390  1.0000
  H   H30       1.0  0.95080  0.36980  0.46610  1.0000
  H   H31       1.0  0.95080  0.63020  0.96610  1.0000
  H   H32       1.0  0.04920  0.63020  0.53390  1.0000
  O   O13       1.0  0.71822  0.42280  0.21955  1.0000
  O   O14       1.0  0.28178  0.42280  0.28045  1.0000
  O   O15       1.0  0.28178  0.57720  0.78045  1.0000
  O   O16       1.0  0.71822  0.57720  0.71955  1.0000
  O   O17       1.0  0.67640  0.61910  0.22716  1.0000
  O   O18       1.0  0.32360  0.61910  0.27284  1.0000
  O   O19       1.0  0.32360  0.38090  0.77284  1.0000
  O   O20       1.0  0.67640  0.38090  0.72716  1.0000
  O   O21       1.0  0.14820  0.39580  0.82334  1.0000
  O   O22       1.0  0.85180  0.39580  0.67666  1.0000
  O   O23       1.0  0.85180  0.60420  0.17666  1.0000
  O   O24       1.0  0.14820  0.60420  0.32334  1.0000
  C   C65       1.0  0.08690  0.38610  0.85058  1.0000
  C   C66       1.0  0.91310  0.38610  0.64942  1.0000
  C   C67       1.0  0.91310  0.61390  0.14942  1.0000
  C   C68       1.0  0.08690  0.61390  0.35058  1.0000
  C   C69       1.0  0.05930  0.37610  0.95059  1.0000
  C   C70       1.0  0.94070  0.37610  0.54941  1.0000
  C   C71       1.0  0.94070  0.62390  0.04941  1.0000
  C   C72       1.0  0.05930  0.62390  0.45059  1.0000
  H   H33       1.0  0.99350  0.37490  0.93120  1.0000
  H   H34       1.0  0.00650  0.37490  0.56880  1.0000
  H   H35       1.0  0.00650  0.62510  0.06880  1.0000
  H   H36       1.0  0.99350  0.62510  0.43120  1.0000
  C   C73       1.0  0.21120  0.97690  0.11910  1.0000
  C   C74       1.0  0.78880  0.97690  0.38090  1.0000
  C   C75       1.0  0.78880  0.02310  0.88090  1.0000
  C   C76       1.0  0.21120  0.02310  0.61910  1.0000
  H   H37       1.0  0.21500  0.91090  0.09380  1.0000
  H   H38       1.0  0.78500  0.91090  0.40620  1.0000
  H   H39       1.0  0.78500  0.08910  0.90620  1.0000
  H   H40       1.0  0.21500  0.08910  0.59380  1.0000
  C   C77       1.0  0.20060  0.17310  0.19476  1.0000
  C   C78       1.0  0.79940  0.17310  0.30524  1.0000
  C   C79       1.0  0.79940  0.82690  0.80524  1.0000
  C   C80       1.0  0.20060  0.82690  0.69476  1.0000
  H   H41       1.0  0.19730  0.23890  0.22030  1.0000
  H   H42       1.0  0.80270  0.23890  0.27970  1.0000
  H   H43       1.0  0.80270  0.76110  0.77970  1.0000
  H   H44       1.0  0.19730  0.76110  0.72030  1.0000
  C   C81       1.0  0.22340  0.10100  0.10350  1.0000
  C   C82       1.0  0.77660  0.10100  0.39650  1.0000
  C   C83       1.0  0.77660  0.89900  0.89650  1.0000
  C   C84       1.0  0.22340  0.89900  0.60350  1.0000
  H   H45       1.0  0.23580  0.11820  0.06790  1.0000
  H   H46       1.0  0.76420  0.11820  0.43210  1.0000
  H   H47       1.0  0.76420  0.88180  0.93210  1.0000
  H   H48       1.0  0.23580  0.88180  0.56790  1.0000
  O   O25       1.0  0.06980  0.39090  0.23984  1.0000
  O   O26       1.0  0.93020  0.39090  0.26016  1.0000
  O   O27       1.0  0.93020  0.60910  0.76016  1.0000
  O   O28       1.0  0.06980  0.60910  0.73984  1.0000
  O   O29       1.0  0.99767  0.37750  0.82600  1.0000
  O   O30       1.0  0.00233  0.37750  0.67400  1.0000
  O   O31       1.0  0.00233  0.62250  0.17400  1.0000
  O   O32       1.0  0.99767  0.62250  0.32600  1.0000
  C   C85       1.0  0.00000  0.34620  0.25000  1.0000
  C   C86       1.0  0.00000  0.65380  0.75000  1.0000
  H   H49       1.0  0.00000  0.25820  0.25000  1.0000
  H   H50       1.0  0.00000  0.74180  0.75000  1.0000
