data_image0
_chemical_formula_structural       Er4C8H4C4H4C8H4C4H4C12H4C4H4C8H4C4H4C12H4C4H4C8H4C4H4C6H2O32P4
_chemical_formula_sum              "Er4 C86 H50 O32 P4"
_cell_length_a       14.4248
_cell_length_b       10.4553
_cell_length_c       23.4323
_cell_angle_alpha    90
_cell_angle_beta     107.501
_cell_angle_gamma    90

_space_group_name_H-M_alt    "P 1"
_space_group_IT_number       1

loop_
  _space_group_symop_operation_xyz
  'x, y, z'

loop_
  _atom_site_type_symbol
  _atom_site_label
  _atom_site_symmetry_multiplicity
  _atom_site_fract_x
  _atom_site_fract_y
  _atom_site_fract_z
  _atom_site_occupancy
  Er  Er1       1.0  0.15145  0.07550  0.22635  1.0000
  Er  Er2       1.0  0.84855  0.07550  0.27365  1.0000
  Er  Er3       1.0  0.84855  0.92450  0.77365  1.0000
  Er  Er4       1.0  0.15145  0.92450  0.72635  1.0000
  C   C1        1.0  0.19010  0.12030  0.54180  1.0000
  C   C2        1.0  0.80990  0.12030  0.95820  1.0000
  C   C3        1.0  0.80990  0.87970  0.45820  1.0000
  C   C4        1.0  0.19010  0.87970  0.04180  1.0000
  C   C5        1.0  0.25610  0.10630  0.50930  1.0000
  C   C6        1.0  0.74390  0.10630  0.99070  1.0000
  C   C7        1.0  0.74390  0.89370  0.49070  1.0000
  C   C8        1.0  0.25610  0.89370  0.00930  1.0000
  H   H1        1.0  0.32210  0.09750  0.52920  1.0000
  H   H2        1.0  0.67790  0.09750  0.97080  1.0000
  H   H3        1.0  0.67790  0.90250  0.47080  1.0000
  H   H4        1.0  0.32210  0.90250  0.02920  1.0000
  C   C9        1.0  0.22320  0.10570  0.44780  1.0000
  C   C10       1.0  0.77680  0.10570  0.05220  1.0000
  C   C11       1.0  0.77680  0.89430  0.55220  1.0000
  C   C12       1.0  0.22320  0.89430  0.94780  1.0000
  H   H5        1.0  0.26780  0.09830  0.42640  1.0000
  H   H6        1.0  0.73220  0.09830  0.07360  1.0000
  H   H7        1.0  0.73220  0.90170  0.57360  1.0000
  H   H8        1.0  0.26780  0.90170  0.92640  1.0000
  C   C13       1.0  0.12610  0.11570  0.41740  1.0000
  C   C14       1.0  0.87390  0.11570  0.08260  1.0000
  C   C15       1.0  0.87390  0.88430  0.58260  1.0000
  C   C16       1.0  0.12610  0.88430  0.91740  1.0000
  C   C17       1.0  0.05950  0.12490  0.44920  1.0000
  C   C18       1.0  0.94050  0.12490  0.05080  1.0000
  C   C19       1.0  0.94050  0.87510  0.55080  1.0000
  C   C20       1.0  0.05950  0.87510  0.94920  1.0000
  H   H9        1.0  0.99340  0.12910  0.42910  1.0000
  H   H10       1.0  0.00660  0.12910  0.07090  1.0000
  H   H11       1.0  0.00660  0.87090  0.57090  1.0000
  H   H12       1.0  0.99340  0.87090  0.92910  1.0000
  C   C21       1.0  0.09120  0.12790  0.51010  1.0000
  C   C22       1.0  0.90880  0.12790  0.98990  1.0000
  C   C23       1.0  0.90880  0.87210  0.48990  1.0000
  C   C24       1.0  0.09120  0.87210  0.01010  1.0000
  H   H13       1.0  0.04610  0.13520  0.53120  1.0000
  H   H14       1.0  0.95390  0.13520  0.96880  1.0000
  H   H15       1.0  0.95390  0.86480  0.46880  1.0000
  H   H16       1.0  0.04610  0.86480  0.03120  1.0000
  C   C25       1.0  0.09130  0.11740  0.35010  1.0000
  C   C26       1.0  0.90870  0.11740  0.14990  1.0000
  C   C27       1.0  0.90870  0.88260  0.64990  1.0000
  C   C28       1.0  0.09130  0.88260  0.85010  1.0000
  C   C29       1.0  0.21570  0.29050  0.64090  1.0000
  C   C30       1.0  0.78430  0.29050  0.85910  1.0000
  C   C31       1.0  0.78430  0.70950  0.35910  1.0000
  C   C32       1.0  0.21570  0.70950  0.14090  1.0000
  C   C33       1.0  0.21890  0.39140  0.60020  1.0000
  C   C34       1.0  0.78110  0.39140  0.89980  1.0000
  C   C35       1.0  0.78110  0.60860  0.39980  1.0000
  C   C36       1.0  0.21890  0.60860  0.10020  1.0000
  H   H17       1.0  0.23090  0.37370  0.56420  1.0000
  H   H18       1.0  0.76910  0.37370  0.93580  1.0000
  H   H19       1.0  0.76910  0.62630  0.43580  1.0000
  H   H20       1.0  0.23090  0.62630  0.06420  1.0000
  C   C37       1.0  0.20350  0.51770  0.61590  1.0000
  C   C38       1.0  0.79650  0.51770  0.88410  1.0000
  C   C39       1.0  0.79650  0.48230  0.38410  1.0000
  C   C40       1.0  0.20350  0.48230  0.11590  1.0000
  H   H21       1.0  0.20220  0.58390  0.58920  1.0000
  H   H22       1.0  0.79780  0.58390  0.91080  1.0000
  H   H23       1.0  0.79780  0.41610  0.41080  1.0000
  H   H24       1.0  0.20220  0.41610  0.08920  1.0000
  C   C41       1.0  0.19010  0.54410  0.67070  1.0000
  C   C42       1.0  0.80990  0.54410  0.82930  1.0000
  C   C43       1.0  0.80990  0.45590  0.32930  1.0000
  C   C44       1.0  0.19010  0.45590  0.17070  1.0000
  C   C45       1.0  0.18570  0.44360  0.70940  1.0000
  C   C46       1.0  0.81430  0.44360  0.79060  1.0000
  C   C47       1.0  0.81430  0.55640  0.29060  1.0000
  C   C48       1.0  0.18570  0.55640  0.20940  1.0000
  H   H25       1.0  0.17360  0.46100  0.74550  1.0000
  H   H26       1.0  0.82640  0.46100  0.75450  1.0000
  H   H27       1.0  0.82640  0.53900  0.25450  1.0000
  H   H28       1.0  0.17360  0.53900  0.24550  1.0000
  C   C49       1.0  0.19920  0.31900  0.69420  1.0000
  C   C50       1.0  0.80080  0.31900  0.80580  1.0000
  C   C51       1.0  0.80080  0.68100  0.30580  1.0000
  C   C52       1.0  0.19920  0.68100  0.19420  1.0000
  H   H29       1.0  0.19700  0.25320  0.72050  1.0000
  H   H30       1.0  0.80300  0.25320  0.77950  1.0000
  H   H31       1.0  0.80300  0.74680  0.27950  1.0000
  H   H32       1.0  0.19700  0.74680  0.22050  1.0000
  C   C53       1.0  0.17370  0.67860  0.68810  1.0000
  C   C54       1.0  0.82630  0.67860  0.81190  1.0000
  C   C55       1.0  0.82630  0.32140  0.31190  1.0000
  C   C56       1.0  0.17370  0.32140  0.18810  1.0000
  C   C57       1.0  0.35630  0.08990  0.64670  1.0000
  C   C58       1.0  0.64370  0.08990  0.85330  1.0000
  C   C59       1.0  0.64370  0.91010  0.35330  1.0000
  C   C60       1.0  0.35630  0.91010  0.14670  1.0000
  C   C61       1.0  0.38300  0.95670  0.65270  1.0000
  C   C62       1.0  0.61700  0.95670  0.84730  1.0000
  C   C63       1.0  0.61700  0.04330  0.34730  1.0000
  C   C64       1.0  0.38300  0.04330  0.15270  1.0000
  H   H33       1.0  0.33580  0.89310  0.64380  1.0000
  H   H34       1.0  0.66420  0.89310  0.85620  1.0000
  H   H35       1.0  0.66420  0.10690  0.35620  1.0000
  H   H36       1.0  0.33580  0.10690  0.14380  1.0000
  C   C65       1.0  0.48220  0.92570  0.67220  1.0000
  C   C66       1.0  0.51780  0.92570  0.82780  1.0000
  C   C67       1.0  0.51780  0.07430  0.32780  1.0000
  C   C68       1.0  0.48220  0.07430  0.17220  1.0000
  H   H37       1.0  0.50090  0.84020  0.67450  1.0000
  H   H38       1.0  0.49910  0.84020  0.82550  1.0000
  H   H39       1.0  0.49910  0.15980  0.32550  1.0000
  H   H40       1.0  0.50090  0.15980  0.17450  1.0000
  C   C69       1.0  0.55000  0.01630  0.68740  1.0000
  C   C70       1.0  0.45000  0.01630  0.81260  1.0000
  C   C71       1.0  0.45000  0.98370  0.31260  1.0000
  C   C72       1.0  0.55000  0.98370  0.18740  1.0000
  C   C73       1.0  0.52370  0.14910  0.68070  1.0000
  C   C74       1.0  0.47630  0.14910  0.81930  1.0000
  C   C75       1.0  0.47630  0.85090  0.31930  1.0000
  C   C76       1.0  0.52370  0.85090  0.18070  1.0000
  H   H41       1.0  0.57160  0.21190  0.68950  1.0000
  H   H42       1.0  0.42840  0.21190  0.81050  1.0000
  H   H43       1.0  0.42840  0.78810  0.31050  1.0000
  H   H44       1.0  0.57160  0.78810  0.18950  1.0000
  C   C77       1.0  0.42860  0.18220  0.66160  1.0000
  C   C78       1.0  0.57140  0.18220  0.83840  1.0000
  C   C79       1.0  0.57140  0.81780  0.33840  1.0000
  C   C80       1.0  0.42860  0.81780  0.16160  1.0000
  H   H45       1.0  0.41150  0.26820  0.65850  1.0000
  H   H46       1.0  0.58850  0.26820  0.84150  1.0000
  H   H47       1.0  0.58850  0.73180  0.34150  1.0000
  H   H48       1.0  0.41150  0.73180  0.15850  1.0000
  C   C81       1.0  0.65440  0.98240  0.71340  1.0000
  C   C82       1.0  0.34560  0.98240  0.78660  1.0000
  C   C83       1.0  0.34560  0.01760  0.28660  1.0000
  C   C84       1.0  0.65440  0.01760  0.21340  1.0000
  C   C85       1.0  0.00000  0.84690  0.25000  1.0000
  C   C86       1.0  0.00000  0.15310  0.75000  1.0000
  H   H49       1.0  0.00000  0.75790  0.25000  1.0000
  H   H50       1.0  0.00000  0.24210  0.75000  1.0000
  O   O1        1.0  0.15480  0.11020  0.32360  1.0000
  O   O2        1.0  0.84520  0.11020  0.17640  1.0000
  O   O3        1.0  0.84520  0.88980  0.67640  1.0000
  O   O4        1.0  0.15480  0.88980  0.82360  1.0000
  O   O5        1.0  0.00110  0.12790  0.32470  1.0000
  O   O6        1.0  0.99890  0.12790  0.17530  1.0000
  O   O7        1.0  0.99890  0.87210  0.67530  1.0000
  O   O8        1.0  0.00110  0.87210  0.82470  1.0000
  O   O9        1.0  0.18280  0.77030  0.65530  1.0000
  O   O10       1.0  0.81720  0.77030  0.84470  1.0000
  O   O11       1.0  0.81720  0.22970  0.34470  1.0000
  O   O12       1.0  0.18280  0.22970  0.15530  1.0000
  O   O13       1.0  0.15030  0.69750  0.73550  1.0000
  O   O14       1.0  0.84970  0.69750  0.76450  1.0000
  O   O15       1.0  0.84970  0.30250  0.26450  1.0000
  O   O16       1.0  0.15030  0.30250  0.23550  1.0000
  O   O17       1.0  0.67820  0.86870  0.73130  1.0000
  O   O18       1.0  0.32180  0.86870  0.76870  1.0000
  O   O19       1.0  0.32180  0.13130  0.26870  1.0000
  O   O20       1.0  0.67820  0.13130  0.23130  1.0000
  O   O21       1.0  0.71950  0.06970  0.72180  1.0000
  O   O22       1.0  0.28050  0.06970  0.77820  1.0000
  O   O23       1.0  0.28050  0.93030  0.27820  1.0000
  O   O24       1.0  0.71950  0.93030  0.22180  1.0000
  O   O25       1.0  0.17150  0.04240  0.64820  1.0000
  O   O26       1.0  0.82850  0.04240  0.85180  1.0000
  O   O27       1.0  0.82850  0.95760  0.35180  1.0000
  O   O28       1.0  0.17150  0.95760  0.14820  1.0000
  O   O29       1.0  0.07080  0.89460  0.24110  1.0000
  O   O30       1.0  0.92920  0.89460  0.25890  1.0000
  O   O31       1.0  0.92920  0.10540  0.75890  1.0000
  O   O32       1.0  0.07080  0.10540  0.74110  1.0000
  P   P1        1.0  0.22846  0.12770  0.62165  1.0000
  P   P2        1.0  0.77154  0.12770  0.87835  1.0000
  P   P3        1.0  0.77154  0.87230  0.37835  1.0000
  P   P4        1.0  0.22846  0.87230  0.12165  1.0000
