data_image0
_chemical_formula_structural       Tm4C8H4C4H4C8H4C4H4C12H4C4H4C8H4C4H4C12H4C4H4C8H4C4H4C6H2O32P4
_chemical_formula_sum              "Tm4 C86 H50 O32 P4"
_cell_length_a       14.4014
_cell_length_b       10.4577
_cell_length_c       23.3524
_cell_angle_alpha    90
_cell_angle_beta     107.371
_cell_angle_gamma    90

_space_group_name_H-M_alt    "P 1"
_space_group_IT_number       1

loop_
  _space_group_symop_operation_xyz
  'x, y, z'

loop_
  _atom_site_type_symbol
  _atom_site_label
  _atom_site_symmetry_multiplicity
  _atom_site_fract_x
  _atom_site_fract_y
  _atom_site_fract_z
  _atom_site_occupancy
  Tm  Tm1       1.0  0.15190  0.06939  0.22716  1.0000
  Tm  Tm2       1.0  0.84810  0.06939  0.27284  1.0000
  Tm  Tm3       1.0  0.84810  0.93061  0.77284  1.0000
  Tm  Tm4       1.0  0.15190  0.93061  0.72716  1.0000
  C   C1        1.0  0.19020  0.12500  0.54250  1.0000
  C   C2        1.0  0.80980  0.12500  0.95750  1.0000
  C   C3        1.0  0.80980  0.87500  0.45750  1.0000
  C   C4        1.0  0.19020  0.87500  0.04250  1.0000
  C   C5        1.0  0.25500  0.11400  0.50900  1.0000
  C   C6        1.0  0.74500  0.11400  0.99100  1.0000
  C   C7        1.0  0.74500  0.88600  0.49100  1.0000
  C   C8        1.0  0.25500  0.88600  0.00900  1.0000
  H   H1        1.0  0.32140  0.11010  0.52850  1.0000
  H   H2        1.0  0.67860  0.11010  0.97150  1.0000
  H   H3        1.0  0.67860  0.88990  0.47150  1.0000
  H   H4        1.0  0.32140  0.88990  0.02850  1.0000
  C   C9        1.0  0.22220  0.10890  0.44760  1.0000
  C   C10       1.0  0.77780  0.10890  0.05240  1.0000
  C   C11       1.0  0.77780  0.89110  0.55240  1.0000
  C   C12       1.0  0.22220  0.89110  0.94760  1.0000
  H   H5        1.0  0.26660  0.10070  0.42590  1.0000
  H   H6        1.0  0.73340  0.10070  0.07410  1.0000
  H   H7        1.0  0.73340  0.89930  0.57410  1.0000
  H   H8        1.0  0.26660  0.89930  0.92590  1.0000
  C   C13       1.0  0.12430  0.11580  0.41760  1.0000
  C   C14       1.0  0.87570  0.11580  0.08240  1.0000
  C   C15       1.0  0.87570  0.88420  0.58240  1.0000
  C   C16       1.0  0.12430  0.88420  0.91760  1.0000
  C   C17       1.0  0.05790  0.12660  0.44950  1.0000
  C   C18       1.0  0.94210  0.12660  0.05050  1.0000
  C   C19       1.0  0.94210  0.87340  0.55050  1.0000
  C   C20       1.0  0.05790  0.87340  0.94950  1.0000
  H   H9        1.0  0.99170  0.13300  0.42940  1.0000
  H   H10       1.0  0.00830  0.13300  0.07060  1.0000
  H   H11       1.0  0.00830  0.86700  0.57060  1.0000
  H   H12       1.0  0.99170  0.86700  0.92940  1.0000
  C   C21       1.0  0.09040  0.12780  0.51140  1.0000
  C   C22       1.0  0.90960  0.12780  0.98860  1.0000
  C   C23       1.0  0.90960  0.87220  0.48860  1.0000
  C   C24       1.0  0.09040  0.87220  0.01140  1.0000
  H   H13       1.0  0.04540  0.13050  0.53290  1.0000
  H   H14       1.0  0.95460  0.13050  0.96710  1.0000
  H   H15       1.0  0.95460  0.86950  0.46710  1.0000
  H   H16       1.0  0.04540  0.86950  0.03290  1.0000
  C   C25       1.0  0.09010  0.11160  0.35000  1.0000
  C   C26       1.0  0.90990  0.11160  0.15000  1.0000
  C   C27       1.0  0.90990  0.88840  0.65000  1.0000
  C   C28       1.0  0.09010  0.88840  0.85000  1.0000
  C   C29       1.0  0.21510  0.29870  0.64110  1.0000
  C   C30       1.0  0.78490  0.29870  0.85890  1.0000
  C   C31       1.0  0.78490  0.70130  0.35890  1.0000
  C   C32       1.0  0.21510  0.70130  0.14110  1.0000
  C   C33       1.0  0.21930  0.39740  0.60180  1.0000
  C   C34       1.0  0.78070  0.39740  0.89820  1.0000
  C   C35       1.0  0.78070  0.60260  0.39820  1.0000
  C   C36       1.0  0.21930  0.60260  0.10180  1.0000
  H   H17       1.0  0.23110  0.37960  0.56560  1.0000
  H   H18       1.0  0.76890  0.37960  0.93440  1.0000
  H   H19       1.0  0.76890  0.62040  0.43440  1.0000
  H   H20       1.0  0.23110  0.62040  0.06560  1.0000
  C   C37       1.0  0.20560  0.52270  0.61740  1.0000
  C   C38       1.0  0.79440  0.52270  0.88260  1.0000
  C   C39       1.0  0.79440  0.47730  0.38260  1.0000
  C   C40       1.0  0.20560  0.47730  0.11740  1.0000
  H   H21       1.0  0.20680  0.58850  0.59090  1.0000
  H   H22       1.0  0.79320  0.58850  0.90910  1.0000
  H   H23       1.0  0.79320  0.41150  0.40910  1.0000
  H   H24       1.0  0.20680  0.41150  0.09090  1.0000
  C   C41       1.0  0.19030  0.55120  0.67150  1.0000
  C   C42       1.0  0.80970  0.55120  0.82850  1.0000
  C   C43       1.0  0.80970  0.44880  0.32850  1.0000
  C   C44       1.0  0.19030  0.44880  0.17150  1.0000
  C   C45       1.0  0.18770  0.45000  0.71150  1.0000
  C   C46       1.0  0.81230  0.45000  0.78850  1.0000
  C   C47       1.0  0.81230  0.55000  0.28850  1.0000
  C   C48       1.0  0.18770  0.55000  0.21150  1.0000
  H   H25       1.0  0.17690  0.46710  0.74810  1.0000
  H   H26       1.0  0.82310  0.46710  0.75190  1.0000
  H   H27       1.0  0.82310  0.53290  0.25190  1.0000
  H   H28       1.0  0.17690  0.53290  0.24810  1.0000
  C   C49       1.0  0.20140  0.32650  0.69550  1.0000
  C   C50       1.0  0.79860  0.32650  0.80450  1.0000
  C   C51       1.0  0.79860  0.67350  0.30450  1.0000
  C   C52       1.0  0.20140  0.67350  0.19550  1.0000
  H   H29       1.0  0.20150  0.26030  0.72220  1.0000
  H   H30       1.0  0.79850  0.26030  0.77780  1.0000
  H   H31       1.0  0.79850  0.73970  0.27780  1.0000
  H   H32       1.0  0.20150  0.73970  0.22220  1.0000
  C   C53       1.0  0.17420  0.68670  0.68960  1.0000
  C   C54       1.0  0.82580  0.68670  0.81040  1.0000
  C   C55       1.0  0.82580  0.31330  0.31040  1.0000
  C   C56       1.0  0.17420  0.31330  0.18960  1.0000
  C   C57       1.0  0.35520  0.09560  0.64700  1.0000
  C   C58       1.0  0.64480  0.09560  0.85300  1.0000
  C   C59       1.0  0.64480  0.90440  0.35300  1.0000
  C   C60       1.0  0.35520  0.90440  0.14700  1.0000
  C   C61       1.0  0.38140  0.96540  0.65220  1.0000
  C   C62       1.0  0.61860  0.96540  0.84780  1.0000
  C   C63       1.0  0.61860  0.03460  0.34780  1.0000
  C   C64       1.0  0.38140  0.03460  0.15220  1.0000
  H   H33       1.0  0.33390  0.90230  0.64130  1.0000
  H   H34       1.0  0.66610  0.90230  0.85870  1.0000
  H   H35       1.0  0.66610  0.09770  0.35870  1.0000
  H   H36       1.0  0.33390  0.09770  0.14130  1.0000
  C   C65       1.0  0.48280  0.93110  0.67460  1.0000
  C   C66       1.0  0.51720  0.93110  0.82540  1.0000
  C   C67       1.0  0.51720  0.06890  0.32540  1.0000
  C   C68       1.0  0.48280  0.06890  0.17460  1.0000
  H   H37       1.0  0.50150  0.84580  0.68010  1.0000
  H   H38       1.0  0.49850  0.84580  0.81990  1.0000
  H   H39       1.0  0.49850  0.15420  0.31990  1.0000
  H   H40       1.0  0.50150  0.15420  0.18010  1.0000
  C   C69       1.0  0.55060  0.02600  0.68750  1.0000
  C   C70       1.0  0.44940  0.02600  0.81250  1.0000
  C   C71       1.0  0.44940  0.97400  0.31250  1.0000
  C   C72       1.0  0.55060  0.97400  0.18750  1.0000
  C   C73       1.0  0.52510  0.15490  0.68170  1.0000
  C   C74       1.0  0.47490  0.15490  0.81830  1.0000
  C   C75       1.0  0.47490  0.84510  0.31830  1.0000
  C   C76       1.0  0.52510  0.84510  0.18170  1.0000
  H   H41       1.0  0.57290  0.21780  0.69190  1.0000
  H   H42       1.0  0.42710  0.21780  0.80810  1.0000
  H   H43       1.0  0.42710  0.78220  0.30810  1.0000
  H   H44       1.0  0.57290  0.78220  0.19190  1.0000
  C   C77       1.0  0.42720  0.18810  0.66050  1.0000
  C   C78       1.0  0.57280  0.18810  0.83950  1.0000
  C   C79       1.0  0.57280  0.81190  0.33950  1.0000
  C   C80       1.0  0.42720  0.81190  0.16050  1.0000
  H   H45       1.0  0.40990  0.27400  0.65540  1.0000
  H   H46       1.0  0.59010  0.27400  0.84460  1.0000
  H   H47       1.0  0.59010  0.72600  0.34460  1.0000
  H   H48       1.0  0.40990  0.72600  0.15540  1.0000
  C   C81       1.0  0.65640  0.99080  0.71210  1.0000
  C   C82       1.0  0.34360  0.99080  0.78790  1.0000
  C   C83       1.0  0.34360  0.00920  0.28790  1.0000
  C   C84       1.0  0.65640  0.00920  0.21210  1.0000
  C   C85       1.0  0.00000  0.84380  0.25000  1.0000
  C   C86       1.0  0.00000  0.15620  0.75000  1.0000
  H   H49       1.0  0.00000  0.75480  0.25000  1.0000
  H   H50       1.0  0.00000  0.24520  0.75000  1.0000
  O   O1        1.0  0.15340  0.10270  0.32380  1.0000
  O   O2        1.0  0.84660  0.10270  0.17620  1.0000
  O   O3        1.0  0.84660  0.89730  0.67620  1.0000
  O   O4        1.0  0.15340  0.89730  0.82380  1.0000
  O   O5        1.0  0.99950  0.12330  0.32440  1.0000
  O   O6        1.0  0.00050  0.12330  0.17560  1.0000
  O   O7        1.0  0.00050  0.87670  0.67560  1.0000
  O   O8        1.0  0.99950  0.87670  0.82440  1.0000
  O   O9        1.0  0.18520  0.77770  0.65640  1.0000
  O   O10       1.0  0.81480  0.77770  0.84360  1.0000
  O   O11       1.0  0.81480  0.22230  0.34360  1.0000
  O   O12       1.0  0.18520  0.22230  0.15640  1.0000
  O   O13       1.0  0.15270  0.70320  0.73780  1.0000
  O   O14       1.0  0.84730  0.70320  0.76220  1.0000
  O   O15       1.0  0.84730  0.29680  0.26220  1.0000
  O   O16       1.0  0.15270  0.29680  0.23780  1.0000
  O   O17       1.0  0.67910  0.87720  0.73030  1.0000
  O   O18       1.0  0.32090  0.87720  0.76970  1.0000
  O   O19       1.0  0.32090  0.12280  0.26970  1.0000
  O   O20       1.0  0.67910  0.12280  0.23030  1.0000
  O   O21       1.0  0.71990  0.07580  0.72040  1.0000
  O   O22       1.0  0.28010  0.07580  0.77960  1.0000
  O   O23       1.0  0.28010  0.92420  0.27960  1.0000
  O   O24       1.0  0.71990  0.92420  0.22040  1.0000
  O   O25       1.0  0.16800  0.04910  0.64880  1.0000
  O   O26       1.0  0.83200  0.04910  0.85120  1.0000
  O   O27       1.0  0.83200  0.95090  0.35120  1.0000
  O   O28       1.0  0.16800  0.95090  0.14880  1.0000
  O   O29       1.0  0.07160  0.89060  0.24110  1.0000
  O   O30       1.0  0.92840  0.89060  0.25890  1.0000
  O   O31       1.0  0.92840  0.10940  0.75890  1.0000
  O   O32       1.0  0.07160  0.10940  0.74110  1.0000
  P   P1        1.0  0.22846  0.13362  0.62249  1.0000
  P   P2        1.0  0.77154  0.13362  0.87751  1.0000
  P   P3        1.0  0.77154  0.86638  0.37751  1.0000
  P   P4        1.0  0.22846  0.86638  0.12249  1.0000
