data_image0
_chemical_formula_structural       Ho4C8H4C4H4C8H4C4H4C12H4C4H4C8H4C4H4C12H4C4H4C8H4C4H4C6H2O32P4
_chemical_formula_sum              "Ho4 C86 H50 O32 P4"
_cell_length_a       14.4523
_cell_length_b       10.4767
_cell_length_c       23.4337
_cell_angle_alpha    90
_cell_angle_beta     107.577
_cell_angle_gamma    90

_space_group_name_H-M_alt    "P 1"
_space_group_IT_number       1

loop_
  _space_group_symop_operation_xyz
  'x, y, z'

loop_
  _atom_site_type_symbol
  _atom_site_label
  _atom_site_symmetry_multiplicity
  _atom_site_fract_x
  _atom_site_fract_y
  _atom_site_fract_z
  _atom_site_occupancy
  Ho  Ho1       1.0  0.15235  0.06993  0.22699  1.0000
  Ho  Ho2       1.0  0.84764  0.06993  0.27301  1.0000
  Ho  Ho3       1.0  0.84764  0.93007  0.77301  1.0000
  Ho  Ho4       1.0  0.15235  0.93007  0.72699  1.0000
  C   C1        1.0  0.18950  0.12540  0.54154  1.0000
  C   C2        1.0  0.81050  0.12540  0.95846  1.0000
  C   C3        1.0  0.81050  0.87460  0.45846  1.0000
  C   C4        1.0  0.18950  0.87460  0.04154  1.0000
  C   C5        1.0  0.25560  0.11840  0.50952  1.0000
  C   C6        1.0  0.74440  0.11840  0.99048  1.0000
  C   C7        1.0  0.74440  0.88160  0.49048  1.0000
  C   C8        1.0  0.25560  0.88160  0.00952  1.0000
  H   H1        1.0  0.32180  0.11710  0.52950  1.0000
  H   H2        1.0  0.67820  0.11710  0.97050  1.0000
  H   H3        1.0  0.67820  0.88290  0.47050  1.0000
  H   H4        1.0  0.32180  0.88290  0.02950  1.0000
  C   C9        1.0  0.22240  0.11340  0.44739  1.0000
  C   C10       1.0  0.77760  0.11340  0.05261  1.0000
  C   C11       1.0  0.77760  0.88660  0.55261  1.0000
  C   C12       1.0  0.22240  0.88660  0.94739  1.0000
  H   H5        1.0  0.26680  0.10730  0.42590  1.0000
  H   H6        1.0  0.73320  0.10730  0.07410  1.0000
  H   H7        1.0  0.73320  0.89270  0.57410  1.0000
  H   H8        1.0  0.26680  0.89270  0.92590  1.0000
  C   C13       1.0  0.12460  0.11730  0.41731  1.0000
  C   C14       1.0  0.87540  0.11730  0.08269  1.0000
  C   C15       1.0  0.87540  0.88270  0.58269  1.0000
  C   C16       1.0  0.12460  0.88270  0.91731  1.0000
  C   C17       1.0  0.05970  0.12390  0.44945  1.0000
  C   C18       1.0  0.94030  0.12390  0.05055  1.0000
  C   C19       1.0  0.94030  0.87610  0.55055  1.0000
  C   C20       1.0  0.05970  0.87610  0.94945  1.0000
  H   H9        1.0  0.99350  0.12590  0.42940  1.0000
  H   H10       1.0  0.00650  0.12590  0.07060  1.0000
  H   H11       1.0  0.00650  0.87410  0.57060  1.0000
  H   H12       1.0  0.99350  0.87410  0.92940  1.0000
  C   C21       1.0  0.09130  0.12780  0.51147  1.0000
  C   C22       1.0  0.90870  0.12780  0.98853  1.0000
  C   C23       1.0  0.90870  0.87220  0.48853  1.0000
  C   C24       1.0  0.09130  0.87220  0.01147  1.0000
  H   H13       1.0  0.04660  0.13190  0.53280  1.0000
  H   H14       1.0  0.95340  0.13190  0.96720  1.0000
  H   H15       1.0  0.95340  0.86810  0.46720  1.0000
  H   H16       1.0  0.04660  0.86810  0.03280  1.0000
  C   C25       1.0  0.09060  0.11310  0.35008  1.0000
  C   C26       1.0  0.90940  0.11310  0.14992  1.0000
  C   C27       1.0  0.90940  0.88690  0.64992  1.0000
  C   C28       1.0  0.09060  0.88690  0.85008  1.0000
  C   C29       1.0  0.21500  0.29880  0.64047  1.0000
  C   C30       1.0  0.78500  0.29880  0.85953  1.0000
  C   C31       1.0  0.78500  0.70120  0.35953  1.0000
  C   C32       1.0  0.21500  0.70120  0.14047  1.0000
  C   C33       1.0  0.21970  0.39720  0.60190  1.0000
  C   C34       1.0  0.78030  0.39720  0.89810  1.0000
  C   C35       1.0  0.78030  0.60280  0.39810  1.0000
  C   C36       1.0  0.21970  0.60280  0.10190  1.0000
  H   H17       1.0  0.23130  0.37960  0.56580  1.0000
  H   H18       1.0  0.76870  0.37960  0.93420  1.0000
  H   H19       1.0  0.76870  0.62040  0.43420  1.0000
  H   H20       1.0  0.23130  0.62040  0.06580  1.0000
  C   C37       1.0  0.20690  0.52320  0.61790  1.0000
  C   C38       1.0  0.79310  0.52320  0.88210  1.0000
  C   C39       1.0  0.79310  0.47680  0.38210  1.0000
  C   C40       1.0  0.20690  0.47680  0.11790  1.0000
  H   H21       1.0  0.20890  0.58980  0.59200  1.0000
  H   H22       1.0  0.79110  0.58980  0.90800  1.0000
  H   H23       1.0  0.79110  0.41020  0.40800  1.0000
  H   H24       1.0  0.20890  0.41020  0.09200  1.0000
  C   C41       1.0  0.19110  0.54890  0.67224  1.0000
  C   C42       1.0  0.80890  0.54890  0.82776  1.0000
  C   C43       1.0  0.80890  0.45110  0.32776  1.0000
  C   C44       1.0  0.19110  0.45110  0.17224  1.0000
  C   C45       1.0  0.18890  0.44900  0.71070  1.0000
  C   C46       1.0  0.81110  0.44900  0.78930  1.0000
  C   C47       1.0  0.81110  0.55100  0.28930  1.0000
  C   C48       1.0  0.18890  0.55100  0.21070  1.0000
  H   H25       1.0  0.17920  0.46630  0.74740  1.0000
  H   H26       1.0  0.82080  0.46630  0.75260  1.0000
  H   H27       1.0  0.82080  0.53370  0.25260  1.0000
  H   H28       1.0  0.17920  0.53370  0.24740  1.0000
  C   C49       1.0  0.20090  0.32450  0.69527  1.0000
  C   C50       1.0  0.79910  0.32450  0.80473  1.0000
  C   C51       1.0  0.79910  0.67550  0.30473  1.0000
  C   C52       1.0  0.20090  0.67550  0.19527  1.0000
  H   H29       1.0  0.19950  0.25820  0.72140  1.0000
  H   H30       1.0  0.80050  0.25820  0.77860  1.0000
  H   H31       1.0  0.80050  0.74180  0.27860  1.0000
  H   H32       1.0  0.19950  0.74180  0.22140  1.0000
  C   C53       1.0  0.17590  0.68280  0.68899  1.0000
  C   C54       1.0  0.82410  0.68280  0.81101  1.0000
  C   C55       1.0  0.82410  0.31720  0.31101  1.0000
  C   C56       1.0  0.17590  0.31720  0.18899  1.0000
  C   C57       1.0  0.35560  0.09580  0.64689  1.0000
  C   C58       1.0  0.64440  0.09580  0.85311  1.0000
  C   C59       1.0  0.64440  0.90420  0.35311  1.0000
  C   C60       1.0  0.35560  0.90420  0.14689  1.0000
  C   C61       1.0  0.38160  0.96630  0.65260  1.0000
  C   C62       1.0  0.61840  0.96630  0.84740  1.0000
  C   C63       1.0  0.61840  0.03370  0.34740  1.0000
  C   C64       1.0  0.38160  0.03370  0.15260  1.0000
  H   H33       1.0  0.33380  0.90370  0.64240  1.0000
  H   H34       1.0  0.66620  0.90370  0.85760  1.0000
  H   H35       1.0  0.66620  0.09630  0.35760  1.0000
  H   H36       1.0  0.33380  0.09630  0.14240  1.0000
  C   C65       1.0  0.47770  0.93190  0.67327  1.0000
  C   C66       1.0  0.52230  0.93190  0.82673  1.0000
  C   C67       1.0  0.52230  0.06810  0.32673  1.0000
  C   C68       1.0  0.47770  0.06810  0.17327  1.0000
  H   H37       1.0  0.49480  0.84610  0.67800  1.0000
  H   H38       1.0  0.50520  0.84610  0.82200  1.0000
  H   H39       1.0  0.50520  0.15390  0.32200  1.0000
  H   H40       1.0  0.49480  0.15390  0.17800  1.0000
  C   C69       1.0  0.55000  0.02590  0.68722  1.0000
  C   C70       1.0  0.45000  0.02590  0.81278  1.0000
  C   C71       1.0  0.45000  0.97410  0.31278  1.0000
  C   C72       1.0  0.55000  0.97410  0.18722  1.0000
  C   C73       1.0  0.52440  0.15330  0.68102  1.0000
  C   C74       1.0  0.47560  0.15330  0.81898  1.0000
  C   C75       1.0  0.47560  0.84670  0.31898  1.0000
  C   C76       1.0  0.52440  0.84670  0.18102  1.0000
  H   H41       1.0  0.57230  0.21590  0.69050  1.0000
  H   H42       1.0  0.42770  0.21590  0.80950  1.0000
  H   H43       1.0  0.42770  0.78410  0.30950  1.0000
  H   H44       1.0  0.57230  0.78410  0.19050  1.0000
  C   C77       1.0  0.42750  0.18780  0.66063  1.0000
  C   C78       1.0  0.57250  0.18780  0.83937  1.0000
  C   C79       1.0  0.57250  0.81220  0.33937  1.0000
  C   C80       1.0  0.42750  0.81220  0.16063  1.0000
  H   H45       1.0  0.41070  0.27370  0.65610  1.0000
  H   H46       1.0  0.58930  0.27370  0.84390  1.0000
  H   H47       1.0  0.58930  0.72630  0.34390  1.0000
  H   H48       1.0  0.41070  0.72630  0.15610  1.0000
  C   C81       1.0  0.65440  0.99010  0.71314  1.0000
  C   C82       1.0  0.34560  0.99010  0.78686  1.0000
  C   C83       1.0  0.34560  0.00990  0.28686  1.0000
  C   C84       1.0  0.65440  0.00990  0.21314  1.0000
  C   C85       1.0  0.00000  0.84110  0.25000  1.0000
  C   C86       1.0  0.00000  0.15890  0.75000  1.0000
  H   H49       1.0  0.00000  0.75240  0.25000  1.0000
  H   H50       1.0  0.00000  0.24760  0.75000  1.0000
  O   O1        1.0  0.15400  0.10420  0.32381  1.0000
  O   O2        1.0  0.84600  0.10420  0.17619  1.0000
  O   O3        1.0  0.84600  0.89580  0.67619  1.0000
  O   O4        1.0  0.15400  0.89580  0.82381  1.0000
  O   O5        1.0  0.00102  0.12030  0.32444  1.0000
  O   O6        1.0  0.99898  0.12030  0.17556  1.0000
  O   O7        1.0  0.99898  0.87970  0.67556  1.0000
  O   O8        1.0  0.00102  0.87970  0.82444  1.0000
  O   O9        1.0  0.18530  0.77520  0.65679  1.0000
  O   O10       1.0  0.81470  0.77520  0.84321  1.0000
  O   O11       1.0  0.81470  0.22480  0.34321  1.0000
  O   O12       1.0  0.18530  0.22480  0.15679  1.0000
  O   O13       1.0  0.15280  0.70170  0.73667  1.0000
  O   O14       1.0  0.84720  0.70170  0.76333  1.0000
  O   O15       1.0  0.84720  0.29830  0.26333  1.0000
  O   O16       1.0  0.15280  0.29830  0.23667  1.0000
  O   O17       1.0  0.67750  0.87650  0.72931  1.0000
  O   O18       1.0  0.32250  0.87650  0.77069  1.0000
  O   O19       1.0  0.32250  0.12350  0.27069  1.0000
  O   O20       1.0  0.67750  0.12350  0.22931  1.0000
  O   O21       1.0  0.71890  0.07490  0.72090  1.0000
  O   O22       1.0  0.28110  0.07490  0.77910  1.0000
  O   O23       1.0  0.28110  0.92510  0.27910  1.0000
  O   O24       1.0  0.71890  0.92510  0.22090  1.0000
  O   O25       1.0  0.16940  0.04770  0.64817  1.0000
  O   O26       1.0  0.83060  0.04770  0.85183  1.0000
  O   O27       1.0  0.83060  0.95230  0.35183  1.0000
  O   O28       1.0  0.16940  0.95230  0.14817  1.0000
  O   O29       1.0  0.07190  0.88880  0.24111  1.0000
  O   O30       1.0  0.92810  0.88880  0.25889  1.0000
  O   O31       1.0  0.92810  0.11120  0.75889  1.0000
  O   O32       1.0  0.07190  0.11120  0.74111  1.0000
  P   P1        1.0  0.22868  0.13468  0.62187  1.0000
  P   P2        1.0  0.77132  0.13468  0.87813  1.0000
  P   P3        1.0  0.77132  0.86532  0.37813  1.0000
  P   P4        1.0  0.22868  0.86532  0.12187  1.0000
