data_image0
_chemical_formula_structural       V4O28N4C16H20
_chemical_formula_sum              "V4 O28 N4 C16 H20"
_cell_length_a       6.145
_cell_length_b       8.408
_cell_length_c       17.268
_cell_angle_alpha    90
_cell_angle_beta     90
_cell_angle_gamma    90

_space_group_name_H-M_alt    "P 1"
_space_group_IT_number       1

loop_
  _space_group_symop_operation_xyz
  'x, y, z'

loop_
  _atom_site_type_symbol
  _atom_site_label
  _atom_site_symmetry_multiplicity
  _atom_site_fract_x
  _atom_site_fract_y
  _atom_site_fract_z
  _atom_site_occupancy
  V   V1        1.0  0.03210  0.93744  0.09773  1.0000
  V   V2        1.0  0.53210  0.56256  0.90227  1.0000
  V   V3        1.0  0.96790  0.43744  0.40227  1.0000
  V   V4        1.0  0.46790  0.06256  0.59773  1.0000
  O   O1        1.0  0.03240  0.15960  0.08750  1.0000
  O   O2        1.0  0.53240  0.34040  0.91250  1.0000
  O   O3        1.0  0.96760  0.65960  0.41250  1.0000
  O   O4        1.0  0.46760  0.84040  0.58750  1.0000
  O   O5        1.0  0.16100  0.08360  0.02880  1.0000
  O   O6        1.0  0.66100  0.41640  0.97120  1.0000
  O   O7        1.0  0.83900  0.58360  0.47120  1.0000
  O   O8        1.0  0.33900  0.91640  0.52880  1.0000
  O   O9        1.0  0.22340  0.90450  0.15740  1.0000
  O   O10       1.0  0.72340  0.59550  0.84260  1.0000
  O   O11       1.0  0.77660  0.40450  0.34260  1.0000
  O   O12       1.0  0.27660  0.09550  0.65740  1.0000
  O   O13       1.0  0.80210  0.99660  0.17510  1.0000
  O   O14       1.0  0.30210  0.50340  0.82490  1.0000
  O   O15       1.0  0.19790  0.49660  0.32490  1.0000
  O   O16       1.0  0.69790  0.00340  0.67510  1.0000
  O   O17       1.0  0.61700  0.92280  0.27960  1.0000
  O   O18       1.0  0.11700  0.57720  0.72040  1.0000
  O   O19       1.0  0.38300  0.42280  0.22040  1.0000
  O   O20       1.0  0.88300  0.07720  0.77960  1.0000
  O   O21       1.0  0.13590  0.78450  0.01520  1.0000
  O   O22       1.0  0.63590  0.71550  0.98480  1.0000
  O   O23       1.0  0.86410  0.28450  0.48480  1.0000
  O   O24       1.0  0.36410  0.21550  0.51520  1.0000
  O   O25       1.0  0.23910  0.53560  0.99100  1.0000
  O   O26       1.0  0.73910  0.96440  0.00900  1.0000
  O   O27       1.0  0.76090  0.03560  0.50900  1.0000
  O   O28       1.0  0.26090  0.46440  0.49100  1.0000
  N   N1        1.0  0.87450  0.71760  0.12480  1.0000
  N   N2        1.0  0.37450  0.78240  0.87520  1.0000
  N   N3        1.0  0.12550  0.21760  0.37520  1.0000
  N   N4        1.0  0.62550  0.28240  0.62480  1.0000
  C   C1        1.0  0.72870  0.89040  0.22300  1.0000
  C   C2        1.0  0.22870  0.60960  0.77700  1.0000
  C   C3        1.0  0.27130  0.39040  0.27700  1.0000
  C   C4        1.0  0.77130  0.10960  0.72300  1.0000
  C   C5        1.0  0.79410  0.72050  0.20490  1.0000
  C   C6        1.0  0.29410  0.77950  0.79510  1.0000
  C   C7        1.0  0.20590  0.22050  0.29510  1.0000
  C   C8        1.0  0.70590  0.27950  0.70490  1.0000
  C   C9        1.0  0.02060  0.58510  0.10330  1.0000
  C   C10       1.0  0.52060  0.91490  0.89670  1.0000
  C   C11       1.0  0.97940  0.08510  0.39670  1.0000
  C   C12       1.0  0.47940  0.41490  0.60330  1.0000
  C   C13       1.0  0.14220  0.63420  0.03040  1.0000
  C   C14       1.0  0.64220  0.86580  0.96960  1.0000
  C   C15       1.0  0.85780  0.13420  0.46960  1.0000
  C   C16       1.0  0.35780  0.36580  0.53040  1.0000
  H   H1        1.0  0.66900  0.65100  0.21200  1.0000
  H   H2        1.0  0.16900  0.84900  0.78800  1.0000
  H   H3        1.0  0.33100  0.15100  0.28800  1.0000
  H   H4        1.0  0.83100  0.34900  0.71200  1.0000
  H   H5        1.0  0.90500  0.68700  0.23900  1.0000
  H   H6        1.0  0.40500  0.81300  0.76100  1.0000
  H   H7        1.0  0.09500  0.18700  0.26100  1.0000
  H   H8        1.0  0.59500  0.31300  0.73900  1.0000
  H   H9        1.0  0.76400  0.72200  0.09300  1.0000
  H   H10       1.0  0.26400  0.77800  0.90700  1.0000
  H   H11       1.0  0.23600  0.22200  0.40700  1.0000
  H   H12       1.0  0.73600  0.27800  0.59300  1.0000
  H   H13       1.0  0.12800  0.57100  0.14600  1.0000
  H   H14       1.0  0.62800  0.92900  0.85400  1.0000
  H   H15       1.0  0.87200  0.07100  0.35400  1.0000
  H   H16       1.0  0.37200  0.42900  0.64600  1.0000
  H   H17       1.0  0.93700  0.48700  0.09800  1.0000
  H   H18       1.0  0.43700  0.01300  0.90200  1.0000
  H   H19       1.0  0.06300  0.98700  0.40200  1.0000
  H   H20       1.0  0.56300  0.51300  0.59800  1.0000
