data_image0
_chemical_formula_structural       C12H4C4H4C20H4C4H4C8O40Zn6
_chemical_formula_sum              "C48 H16 O40 Zn6"
_cell_length_a       9.426
_cell_length_b       15.424
_cell_length_c       17.359
_cell_angle_alpha    90
_cell_angle_beta     92.474
_cell_angle_gamma    90

_space_group_name_H-M_alt    "P 1"
_space_group_IT_number       1

loop_
  _space_group_symop_operation_xyz
  'x, y, z'

loop_
  _atom_site_type_symbol
  _atom_site_label
  _atom_site_symmetry_multiplicity
  _atom_site_fract_x
  _atom_site_fract_y
  _atom_site_fract_z
  _atom_site_occupancy
  C   C1        1.0  0.78560  0.00710  0.10560  1.0000
  C   C2        1.0  0.21440  0.50710  0.39440  1.0000
  C   C3        1.0  0.21440  0.99290  0.89440  1.0000
  C   C4        1.0  0.78560  0.49290  0.60560  1.0000
  C   C5        1.0  0.93860  0.98440  0.10080  1.0000
  C   C6        1.0  0.06140  0.48440  0.39920  1.0000
  C   C7        1.0  0.06140  0.01560  0.89920  1.0000
  C   C8        1.0  0.93860  0.51560  0.60080  1.0000
  C   C9        1.0  0.00460  0.91400  0.07280  1.0000
  C   C10       1.0  0.99540  0.41400  0.42720  1.0000
  C   C11       1.0  0.99540  0.08600  0.92720  1.0000
  C   C12       1.0  0.00460  0.58600  0.57280  1.0000
  H   H1        1.0  0.96100  0.86310  0.05200  1.0000
  H   H2        1.0  0.03900  0.36310  0.44800  1.0000
  H   H3        1.0  0.03900  0.13690  0.94800  1.0000
  H   H4        1.0  0.96100  0.63690  0.55200  1.0000
  C   C13       1.0  0.15280  0.93170  0.08070  1.0000
  C   C14       1.0  0.84720  0.43170  0.41930  1.0000
  C   C15       1.0  0.84720  0.06830  0.91930  1.0000
  C   C16       1.0  0.15280  0.56830  0.58070  1.0000
  H   H5        1.0  0.22790  0.89510  0.06580  1.0000
  H   H6        1.0  0.77210  0.39510  0.43420  1.0000
  H   H7        1.0  0.77210  0.10490  0.93420  1.0000
  H   H8        1.0  0.22790  0.60490  0.56580  1.0000
  C   C17       1.0  0.16580  0.01070  0.11350  1.0000
  C   C18       1.0  0.83420  0.51070  0.38650  1.0000
  C   C19       1.0  0.83420  0.98930  0.88650  1.0000
  C   C20       1.0  0.16580  0.48930  0.61350  1.0000
  C   C21       1.0  0.29000  0.06620  0.13620  1.0000
  C   C22       1.0  0.71000  0.56620  0.36380  1.0000
  C   C23       1.0  0.71000  0.93380  0.86380  1.0000
  C   C24       1.0  0.29000  0.43380  0.63620  1.0000
  C   C25       1.0  0.43500  0.77670  0.97120  1.0000
  C   C26       1.0  0.56500  0.27670  0.52880  1.0000
  C   C27       1.0  0.56500  0.22330  0.02880  1.0000
  C   C28       1.0  0.43500  0.72330  0.47120  1.0000
  C   C29       1.0  0.41360  0.69200  0.00700  1.0000
  C   C30       1.0  0.58640  0.19200  0.49300  1.0000
  C   C31       1.0  0.58640  0.30800  0.99300  1.0000
  C   C32       1.0  0.41360  0.80800  0.50700  1.0000
  C   C33       1.0  0.38470  0.61290  0.97640  1.0000
  C   C34       1.0  0.61530  0.11290  0.52360  1.0000
  C   C35       1.0  0.61530  0.38710  0.02360  1.0000
  C   C36       1.0  0.38470  0.88710  0.47640  1.0000
  H   H9        1.0  0.37310  0.59840  0.92330  1.0000
  H   H10       1.0  0.62690  0.09840  0.57670  1.0000
  H   H11       1.0  0.62690  0.40160  0.07670  1.0000
  H   H12       1.0  0.37310  0.90160  0.42330  1.0000
  C   C37       1.0  0.37510  0.55630  0.04050  1.0000
  C   C38       1.0  0.62490  0.05630  0.45950  1.0000
  C   C39       1.0  0.62490  0.44370  0.95950  1.0000
  C   C40       1.0  0.37510  0.94370  0.54050  1.0000
  H   H13       1.0  0.35790  0.49560  0.03840  1.0000
  H   H14       1.0  0.64210  0.99560  0.46160  1.0000
  H   H15       1.0  0.64210  0.50440  0.96160  1.0000
  H   H16       1.0  0.35790  0.00440  0.53840  1.0000
  C   C41       1.0  0.39470  0.60370  0.10400  1.0000
  C   C42       1.0  0.60530  0.10370  0.39600  1.0000
  C   C43       1.0  0.60530  0.39630  0.89600  1.0000
  C   C44       1.0  0.39470  0.89630  0.60400  1.0000
  C   C45       1.0  0.40460  0.57980  0.18690  1.0000
  C   C46       1.0  0.59540  0.07980  0.31310  1.0000
  C   C47       1.0  0.59540  0.42020  0.81310  1.0000
  C   C48       1.0  0.40460  0.92020  0.68690  1.0000
  O   O1        1.0  0.69850  0.95590  0.07690  1.0000
  O   O2        1.0  0.30150  0.45590  0.42310  1.0000
  O   O3        1.0  0.30150  0.04410  0.92310  1.0000
  O   O4        1.0  0.69850  0.54410  0.57690  1.0000
  O   O5        1.0  0.75900  0.07720  0.13890  1.0000
  O   O6        1.0  0.24100  0.57720  0.36110  1.0000
  O   O7        1.0  0.24100  0.92280  0.86110  1.0000
  O   O8        1.0  0.75900  0.42280  0.63890  1.0000
  O   O9        1.0  0.03600  0.04510  0.12600  1.0000
  O   O10       1.0  0.96400  0.54510  0.37400  1.0000
  O   O11       1.0  0.96400  0.95490  0.87400  1.0000
  O   O12       1.0  0.03600  0.45490  0.62600  1.0000
  O   O13       1.0  0.27210  0.13700  0.16570  1.0000
  O   O14       1.0  0.72790  0.63700  0.33430  1.0000
  O   O15       1.0  0.72790  0.86300  0.83430  1.0000
  O   O16       1.0  0.27210  0.36300  0.66570  1.0000
  O   O17       1.0  0.41160  0.03280  0.12245  1.0000
  O   O18       1.0  0.58840  0.53280  0.37755  1.0000
  O   O19       1.0  0.58840  0.96720  0.87755  1.0000
  O   O20       1.0  0.41160  0.46720  0.62245  1.0000
  O   O21       1.0  0.43860  0.77390  0.89680  1.0000
  O   O22       1.0  0.56140  0.27390  0.60320  1.0000
  O   O23       1.0  0.56140  0.22610  0.10320  1.0000
  O   O24       1.0  0.43860  0.72610  0.39680  1.0000
  O   O25       1.0  0.44510  0.84350  0.01060  1.0000
  O   O26       1.0  0.55490  0.34350  0.48940  1.0000
  O   O27       1.0  0.55490  0.15650  0.98940  1.0000
  O   O28       1.0  0.44510  0.65650  0.51060  1.0000
  O   O29       1.0  0.42180  0.68820  0.08494  1.0000
  O   O30       1.0  0.57820  0.18820  0.41506  1.0000
  O   O31       1.0  0.57820  0.31180  0.91506  1.0000
  O   O32       1.0  0.42180  0.81180  0.58494  1.0000
  O   O33       1.0  0.42870  0.64250  0.23332  1.0000
  O   O34       1.0  0.57130  0.14250  0.26668  1.0000
  O   O35       1.0  0.57130  0.35750  0.76668  1.0000
  O   O36       1.0  0.42870  0.85750  0.73332  1.0000
  O   O37       1.0  0.39060  0.50250  0.20480  1.0000
  O   O38       1.0  0.60940  0.00250  0.29520  1.0000
  O   O39       1.0  0.60940  0.49750  0.79520  1.0000
  O   O40       1.0  0.39060  0.99750  0.70480  1.0000
  Zn  Zn1       1.0  0.56336  0.11449  0.15741  1.0000
  Zn  Zn2       1.0  0.43664  0.61449  0.34259  1.0000
  Zn  Zn3       1.0  0.43664  0.88551  0.84259  1.0000
  Zn  Zn4       1.0  0.56336  0.38551  0.65741  1.0000
  Zn  Zn5       1.0  0.50000  0.00000  0.00000  1.0000
  Zn  Zn6       1.0  0.50000  0.50000  0.50000  1.0000
