data_image0
_chemical_formula_structural       Zn3C6H2C2H2C10H2C2H2C4O20
_chemical_formula_sum              "Zn3 C24 H8 O20"
_cell_length_a       9.3167
_cell_length_b       9.8122
_cell_length_c       11.596
_cell_angle_alpha    95.596
_cell_angle_beta     97.431
_cell_angle_gamma    97.238

_space_group_name_H-M_alt    "P 1"
_space_group_IT_number       1

loop_
  _space_group_symop_operation_xyz
  'x, y, z'

loop_
  _atom_site_type_symbol
  _atom_site_label
  _atom_site_symmetry_multiplicity
  _atom_site_fract_x
  _atom_site_fract_y
  _atom_site_fract_z
  _atom_site_occupancy
  Zn  Zn1       1.0  0.40150  0.26895  0.26366  1.0000
  Zn  Zn2       1.0  0.59850  0.73105  0.73634  1.0000
  Zn  Zn3       1.0  0.50000  0.50000  0.50000  1.0000
  C   C1        1.0  0.41070  0.54590  0.23050  1.0000
  C   C2        1.0  0.58930  0.45410  0.76950  1.0000
  C   C3        1.0  0.39010  0.65900  0.15640  1.0000
  C   C4        1.0  0.60990  0.34100  0.84360  1.0000
  C   C5        1.0  0.37870  0.66400  0.03910  1.0000
  C   C6        1.0  0.62130  0.33600  0.96090  1.0000
  H   H1        1.0  0.38280  0.59010  0.98080  1.0000
  H   H2        1.0  0.61720  0.40990  0.01920  1.0000
  C   C7        1.0  0.35950  0.80200  0.02090  1.0000
  C   C8        1.0  0.64050  0.19800  0.97910  1.0000
  H   H3        1.0  0.34780  0.83840  0.94780  1.0000
  H   H4        1.0  0.65220  0.16160  0.05220  1.0000
  C   C9        1.0  0.36090  0.87130  0.12710  1.0000
  C   C10       1.0  0.63910  0.12870  0.87290  1.0000
  C   C11       1.0  0.35790  0.01840  0.16780  1.0000
  C   C12       1.0  0.64210  0.98160  0.83220  1.0000
  C   C13       1.0  0.20450  0.33520  0.43190  1.0000
  C   C14       1.0  0.79550  0.66480  0.56810  1.0000
  C   C15       1.0  0.05660  0.32970  0.46710  1.0000
  C   C16       1.0  0.94340  0.67030  0.53290  1.0000
  C   C17       1.0  0.01120  0.34670  0.57350  1.0000
  C   C18       1.0  0.98880  0.65330  0.42650  1.0000
  H   H5        1.0  0.07140  0.36290  0.64740  1.0000
  H   H6        1.0  0.92860  0.63710  0.35260  1.0000
  C   C19       1.0  0.85660  0.33560  0.55290  1.0000
  C   C20       1.0  0.14340  0.66440  0.44710  1.0000
  H   H7        1.0  0.79290  0.34250  0.61020  1.0000
  H   H8        1.0  0.20710  0.65750  0.38980  1.0000
  C   C21       1.0  0.81800  0.31320  0.43490  1.0000
  C   C22       1.0  0.18200  0.68680  0.56510  1.0000
  C   C23       1.0  0.67740  0.29810  0.35790  1.0000
  C   C24       1.0  0.32260  0.70190  0.64210  1.0000
  O   O1        1.0  0.41130  0.42866  0.17403  1.0000
  O   O2        1.0  0.58870  0.57134  0.82597  1.0000
  O   O3        1.0  0.42370  0.57420  0.33914  1.0000
  O   O4        1.0  0.57630  0.42580  0.66086  1.0000
  O   O5        1.0  0.38047  0.78606  0.21260  1.0000
  O   O6        1.0  0.61953  0.21394  0.78740  1.0000
  O   O7        1.0  0.38980  0.05680  0.27470  1.0000
  O   O8        1.0  0.61020  0.94320  0.72530  1.0000
  O   O9        1.0  0.32950  0.10130  0.09900  1.0000
  O   O10       1.0  0.67050  0.89870  0.90100  1.0000
  O   O11       1.0  0.21362  0.29016  0.32799  1.0000
  O   O12       1.0  0.78638  0.70984  0.67201  1.0000
  O   O13       1.0  0.30788  0.38423  0.51144  1.0000
  O   O14       1.0  0.69212  0.61577  0.48856  1.0000
  O   O15       1.0  0.93921  0.30708  0.37975  1.0000
  O   O16       1.0  0.06079  0.69292  0.62025  1.0000
  O   O17       1.0  0.66790  0.26050  0.25281  1.0000
  O   O18       1.0  0.33210  0.73950  0.74719  1.0000
  O   O19       1.0  0.56306  0.31991  0.40710  1.0000
  O   O20       1.0  0.43694  0.68009  0.59290  1.0000
