data_image0
_chemical_formula_structural       Ag6O8N12C4H4C4H4C8H4C4H4C8H4C4H4C4H4C4H4C8H4C4H4C4H4C12O4C4H4C8H4C4H4C4H4C4O4
_chemical_formula_sum              "Ag6 O16 N12 C92 H60"
_cell_length_a       14.8314
_cell_length_b       9.7047
_cell_length_c       22.344
_cell_angle_alpha    90
_cell_angle_beta     131.552
_cell_angle_gamma    90

_space_group_name_H-M_alt    "P 1"
_space_group_IT_number       1

loop_
  _space_group_symop_operation_xyz
  'x, y, z'

loop_
  _atom_site_type_symbol
  _atom_site_label
  _atom_site_symmetry_multiplicity
  _atom_site_fract_x
  _atom_site_fract_y
  _atom_site_fract_z
  _atom_site_occupancy
  Ag  Ag1       1.0  0.50000  0.11680  0.75000  1.0000
  Ag  Ag2       1.0  0.50000  0.88320  0.25000  1.0000
  Ag  Ag3       1.0  0.50235  0.96461  0.09206  1.0000
  Ag  Ag4       1.0  0.49765  0.96461  0.40794  1.0000
  Ag  Ag5       1.0  0.49765  0.03539  0.90794  1.0000
  Ag  Ag6       1.0  0.50235  0.03539  0.59206  1.0000
  O   O1        1.0  0.60030  0.38270  0.94560  1.0000
  O   O2        1.0  0.39970  0.38270  0.55440  1.0000
  O   O3        1.0  0.39970  0.61730  0.05440  1.0000
  O   O4        1.0  0.60030  0.61730  0.44560  1.0000
  O   O5        1.0  0.48340  0.28520  0.82700  1.0000
  O   O6        1.0  0.51660  0.28520  0.67300  1.0000
  O   O7        1.0  0.51660  0.71480  0.17300  1.0000
  O   O8        1.0  0.48340  0.71480  0.32700  1.0000
  N   N1        1.0  0.31140  0.00220  0.01830  1.0000
  N   N2        1.0  0.68860  0.00220  0.48170  1.0000
  N   N3        1.0  0.68860  0.99780  0.98170  1.0000
  N   N4        1.0  0.31140  0.99780  0.51830  1.0000
  N   N5        1.0  0.69460  0.08620  0.81680  1.0000
  N   N6        1.0  0.30540  0.08620  0.68320  1.0000
  N   N7        1.0  0.30540  0.91380  0.18320  1.0000
  N   N8        1.0  0.69460  0.91380  0.31680  1.0000
  N   N9        1.0  0.69190  0.96260  0.15420  1.0000
  N   N10       1.0  0.30810  0.96260  0.34580  1.0000
  N   N11       1.0  0.30810  0.03740  0.84580  1.0000
  N   N12       1.0  0.69190  0.03740  0.65420  1.0000
  C   C1        1.0  0.26620  0.12670  0.00900  1.0000
  C   C2        1.0  0.73380  0.12670  0.49100  1.0000
  C   C3        1.0  0.73380  0.87330  0.99100  1.0000
  C   C4        1.0  0.26620  0.87330  0.50900  1.0000
  H   H1        1.0  0.31800  0.20200  0.03080  1.0000
  H   H2        1.0  0.68200  0.20200  0.46920  1.0000
  H   H3        1.0  0.68200  0.79800  0.96920  1.0000
  H   H4        1.0  0.31800  0.79800  0.53080  1.0000
  C   C5        1.0  0.14640  0.14930  0.96860  1.0000
  C   C6        1.0  0.85360  0.14930  0.53140  1.0000
  C   C7        1.0  0.85360  0.85070  0.03140  1.0000
  C   C8        1.0  0.14640  0.85070  0.46860  1.0000
  H   H5        1.0  0.11860  0.23830  0.96320  1.0000
  H   H6        1.0  0.88140  0.23830  0.53680  1.0000
  H   H7        1.0  0.88140  0.76170  0.03680  1.0000
  H   H8        1.0  0.11860  0.76170  0.46320  1.0000
  C   C9        1.0  0.06720  0.03870  0.93600  1.0000
  C   C10       1.0  0.93280  0.03870  0.56400  1.0000
  C   C11       1.0  0.93280  0.96130  0.06400  1.0000
  C   C12       1.0  0.06720  0.96130  0.43600  1.0000
  C   C13       1.0  0.11480  0.90990  0.94410  1.0000
  C   C14       1.0  0.88520  0.90990  0.55590  1.0000
  C   C15       1.0  0.88520  0.09010  0.05590  1.0000
  C   C16       1.0  0.11480  0.09010  0.44410  1.0000
  H   H9        1.0  0.06500  0.83280  0.92180  1.0000
  H   H10       1.0  0.93500  0.83280  0.57820  1.0000
  H   H11       1.0  0.93500  0.16720  0.07820  1.0000
  H   H12       1.0  0.06500  0.16720  0.42180  1.0000
  C   C17       1.0  0.23530  0.89610  0.98500  1.0000
  C   C18       1.0  0.76470  0.89610  0.51500  1.0000
  C   C19       1.0  0.76470  0.10390  0.01500  1.0000
  C   C20       1.0  0.23530  0.10390  0.48500  1.0000
  H   H13       1.0  0.26520  0.80870  0.98980  1.0000
  H   H14       1.0  0.73480  0.80870  0.51020  1.0000
  H   H15       1.0  0.73480  0.19130  0.01020  1.0000
  H   H16       1.0  0.26520  0.19130  0.48980  1.0000
  C   C21       1.0  0.93850  0.05710  0.89500  1.0000
  C   C22       1.0  0.06150  0.05710  0.60500  1.0000
  C   C23       1.0  0.06150  0.94290  0.10500  1.0000
  C   C24       1.0  0.93850  0.94290  0.39500  1.0000
  C   C25       1.0  0.87930  0.18140  0.86230  1.0000
  C   C26       1.0  0.12070  0.18140  0.63770  1.0000
  C   C27       1.0  0.12070  0.81860  0.13770  1.0000
  C   C28       1.0  0.87930  0.81860  0.36230  1.0000
  H   H17       1.0  0.92090  0.25820  0.86680  1.0000
  H   H18       1.0  0.07910  0.25820  0.63320  1.0000
  H   H19       1.0  0.07910  0.74180  0.13320  1.0000
  H   H20       1.0  0.92090  0.74180  0.36680  1.0000
  C   C29       1.0  0.75790  0.19160  0.82290  1.0000
  C   C30       1.0  0.24210  0.19160  0.67710  1.0000
  C   C31       1.0  0.24210  0.80840  0.17710  1.0000
  C   C32       1.0  0.75790  0.80840  0.32290  1.0000
  H   H21       1.0  0.71910  0.27540  0.79980  1.0000
  H   H22       1.0  0.28090  0.27540  0.70020  1.0000
  H   H23       1.0  0.28090  0.72460  0.20020  1.0000
  H   H24       1.0  0.71910  0.72460  0.29980  1.0000
  C   C33       1.0  0.75210  0.96670  0.85060  1.0000
  C   C34       1.0  0.24790  0.96670  0.64940  1.0000
  C   C35       1.0  0.24790  0.03330  0.14940  1.0000
  C   C36       1.0  0.75210  0.03330  0.35060  1.0000
  H   H25       1.0  0.70930  0.89320  0.84780  1.0000
  H   H26       1.0  0.29070  0.89320  0.65220  1.0000
  H   H27       1.0  0.29070  0.10680  0.15220  1.0000
  H   H28       1.0  0.70930  0.10680  0.34780  1.0000
  C   C37       1.0  0.87110  0.94760  0.88920  1.0000
  C   C38       1.0  0.12890  0.94760  0.61080  1.0000
  C   C39       1.0  0.12890  0.05240  0.11080  1.0000
  C   C40       1.0  0.87110  0.05240  0.38920  1.0000
  H   H29       1.0  0.90730  0.86250  0.91150  1.0000
  H   H30       1.0  0.09270  0.86250  0.58850  1.0000
  H   H31       1.0  0.09270  0.13750  0.08850  1.0000
  H   H32       1.0  0.90730  0.13750  0.41150  1.0000
  C   C41       1.0  0.62720  0.44950  0.85700  1.0000
  C   C42       1.0  0.37280  0.44950  0.64300  1.0000
  C   C43       1.0  0.37280  0.55050  0.14300  1.0000
  C   C44       1.0  0.62720  0.55050  0.35700  1.0000
  C   C45       1.0  0.75220  0.46200  0.91620  1.0000
  C   C46       1.0  0.24780  0.46200  0.58380  1.0000
  C   C47       1.0  0.24780  0.53800  0.08380  1.0000
  C   C48       1.0  0.75220  0.53800  0.41620  1.0000
  H   H33       1.0  0.79210  0.42290  0.96620  1.0000
  H   H34       1.0  0.20790  0.42290  0.53380  1.0000
  H   H35       1.0  0.20790  0.57710  0.03380  1.0000
  H   H36       1.0  0.79210  0.57710  0.46620  1.0000
  C   C49       1.0  0.81700  0.53050  0.90220  1.0000
  C   C50       1.0  0.18300  0.53050  0.59780  1.0000
  C   C51       1.0  0.18300  0.46950  0.09780  1.0000
  C   C52       1.0  0.81700  0.46950  0.40220  1.0000
  H   H37       1.0  0.90060  0.53240  0.94120  1.0000
  H   H38       1.0  0.09940  0.53240  0.55880  1.0000
  H   H39       1.0  0.09940  0.46760  0.05880  1.0000
  H   H40       1.0  0.90060  0.46760  0.44120  1.0000
  C   C53       1.0  0.75840  0.59680  0.83040  1.0000
  C   C54       1.0  0.24160  0.59680  0.66960  1.0000
  C   C55       1.0  0.24160  0.40320  0.16960  1.0000
  C   C56       1.0  0.75840  0.40320  0.33040  1.0000
  H   H41       1.0  0.80240  0.64440  0.82100  1.0000
  H   H42       1.0  0.19760  0.64440  0.67900  1.0000
  H   H43       1.0  0.19760  0.35560  0.17900  1.0000
  H   H44       1.0  0.80240  0.35560  0.32100  1.0000
  C   C57       1.0  0.63370  0.59240  0.77210  1.0000
  C   C58       1.0  0.36630  0.59240  0.72790  1.0000
  C   C59       1.0  0.36630  0.40760  0.22790  1.0000
  C   C60       1.0  0.63370  0.40760  0.27210  1.0000
  C   C61       1.0  0.56760  0.51390  0.78350  1.0000
  C   C62       1.0  0.43240  0.51390  0.71650  1.0000
  C   C63       1.0  0.43240  0.48610  0.21650  1.0000
  C   C64       1.0  0.56760  0.48610  0.28350  1.0000
  C   C65       1.0  0.56310  0.36670  0.87660  1.0000
  C   C66       1.0  0.43690  0.36670  0.62340  1.0000
  C   C67       1.0  0.43690  0.63330  0.12340  1.0000
  C   C68       1.0  0.56310  0.63330  0.37660  1.0000
  O   O9        1.0  0.50430  0.78210  0.69690  1.0000
  O   O10       1.0  0.49570  0.78210  0.80310  1.0000
  O   O11       1.0  0.49570  0.21790  0.30310  1.0000
  O   O12       1.0  0.50430  0.21790  0.19690  1.0000
  C   C69       1.0  0.86810  0.84210  0.20350  1.0000
  C   C70       1.0  0.13190  0.84210  0.29650  1.0000
  C   C71       1.0  0.13190  0.15790  0.79650  1.0000
  C   C72       1.0  0.86810  0.15790  0.70350  1.0000
  H   H45       1.0  0.90370  0.75770  0.21040  1.0000
  H   H46       1.0  0.09630  0.75770  0.28960  1.0000
  H   H47       1.0  0.09630  0.24230  0.78960  1.0000
  H   H48       1.0  0.90370  0.24230  0.71040  1.0000
  C   C73       1.0  0.93480  0.96090  0.22930  1.0000
  C   C74       1.0  0.06520  0.96090  0.27070  1.0000
  C   C75       1.0  0.06520  0.03910  0.77070  1.0000
  C   C76       1.0  0.93480  0.03910  0.72930  1.0000
  C   C77       1.0  0.87440  0.08080  0.21650  1.0000
  C   C78       1.0  0.12560  0.08080  0.28350  1.0000
  C   C79       1.0  0.12560  0.91920  0.78350  1.0000
  C   C80       1.0  0.87440  0.91920  0.71650  1.0000
  H   H49       1.0  0.91470  0.16470  0.23290  1.0000
  H   H50       1.0  0.08530  0.16470  0.26710  1.0000
  H   H51       1.0  0.08530  0.83530  0.76710  1.0000
  H   H52       1.0  0.91470  0.83530  0.73290  1.0000
  C   C81       1.0  0.75580  0.07690  0.17980  1.0000
  C   C82       1.0  0.24420  0.07690  0.32020  1.0000
  C   C83       1.0  0.24420  0.92310  0.82020  1.0000
  C   C84       1.0  0.75580  0.92310  0.67980  1.0000
  H   H53       1.0  0.71770  0.15950  0.17230  1.0000
  H   H54       1.0  0.28230  0.15950  0.32770  1.0000
  H   H55       1.0  0.28230  0.84050  0.82770  1.0000
  H   H56       1.0  0.71770  0.84050  0.67230  1.0000
  C   C85       1.0  0.74900  0.84750  0.16750  1.0000
  C   C86       1.0  0.25100  0.84750  0.33250  1.0000
  C   C87       1.0  0.25100  0.15250  0.83250  1.0000
  C   C88       1.0  0.74900  0.15250  0.66750  1.0000
  H   H57       1.0  0.70650  0.76510  0.15160  1.0000
  H   H58       1.0  0.29350  0.76510  0.34840  1.0000
  H   H59       1.0  0.29350  0.23490  0.84840  1.0000
  H   H60       1.0  0.70650  0.23490  0.65160  1.0000
  C   C89       1.0  0.57030  0.69110  0.70230  1.0000
  C   C90       1.0  0.42970  0.69110  0.79770  1.0000
  C   C91       1.0  0.42970  0.30890  0.29770  1.0000
  C   C92       1.0  0.57030  0.30890  0.20230  1.0000
  O   O13       1.0  0.59090  0.67880  0.65610  1.0000
  O   O14       1.0  0.40910  0.67880  0.84390  1.0000
  O   O15       1.0  0.40910  0.32120  0.34390  1.0000
  O   O16       1.0  0.59090  0.32120  0.15610  1.0000
