data_image0
_chemical_formula_structural       In4N8C8H8C8H8N8C24O16C8O16
_chemical_formula_sum              "In4 N16 C48 H16 O32"
_cell_length_a       10.828
_cell_length_b       17.088
_cell_length_c       11.467
_cell_angle_alpha    90
_cell_angle_beta     106.84
_cell_angle_gamma    90

_space_group_name_H-M_alt    "P 1"
_space_group_IT_number       1

loop_
  _space_group_symop_operation_xyz
  'x, y, z'

loop_
  _atom_site_type_symbol
  _atom_site_label
  _atom_site_symmetry_multiplicity
  _atom_site_fract_x
  _atom_site_fract_y
  _atom_site_fract_z
  _atom_site_occupancy
  In  In1       1.0  1.00000  0.36303  0.75000  1.0000
  In  In2       1.0  0.50000  0.86303  0.75000  1.0000
  In  In3       1.0  0.00000  0.63697  0.25000  1.0000
  In  In4       1.0  0.50000  0.13697  0.25000  1.0000
  N   N1        1.0  0.85140  0.28930  0.58090  1.0000
  N   N2        1.0  0.14860  0.28930  0.91910  1.0000
  N   N3        1.0  0.35140  0.78930  0.58090  1.0000
  N   N4        1.0  0.64860  0.78930  0.91910  1.0000
  N   N5        1.0  0.14860  0.71070  0.41910  1.0000
  N   N6        1.0  0.85140  0.71070  0.08090  1.0000
  N   N7        1.0  0.64860  0.21070  0.41910  1.0000
  N   N8        1.0  0.35140  0.21070  0.08090  1.0000
  C   C1        1.0  0.83810  0.28940  0.46140  1.0000
  C   C2        1.0  0.16190  0.28940  0.03860  1.0000
  C   C3        1.0  0.33810  0.78940  0.46140  1.0000
  C   C4        1.0  0.66190  0.78940  0.03860  1.0000
  C   C5        1.0  0.16190  0.71060  0.53860  1.0000
  C   C6        1.0  0.83810  0.71060  0.96140  1.0000
  C   C7        1.0  0.66190  0.21060  0.53860  1.0000
  C   C8        1.0  0.33810  0.21060  0.96140  1.0000
  H   H1        1.0  0.89760  0.31620  0.43200  1.0000
  H   H2        1.0  0.10240  0.31620  0.06800  1.0000
  H   H3        1.0  0.39760  0.81620  0.43200  1.0000
  H   H4        1.0  0.60240  0.81620  0.06800  1.0000
  H   H5        1.0  0.10240  0.68380  0.56800  1.0000
  H   H6        1.0  0.89760  0.68380  0.93200  1.0000
  H   H7        1.0  0.60240  0.18380  0.56800  1.0000
  H   H8        1.0  0.39760  0.18380  0.93200  1.0000
  C   C9        1.0  0.90050  0.44940  0.96490  1.0000
  C   C10       1.0  0.09950  0.44940  0.53510  1.0000
  C   C11       1.0  0.40050  0.94940  0.96490  1.0000
  C   C12       1.0  0.59950  0.94940  0.53510  1.0000
  C   C13       1.0  0.09950  0.55060  0.03510  1.0000
  C   C14       1.0  0.90050  0.55060  0.46490  1.0000
  C   C15       1.0  0.59950  0.05060  0.03510  1.0000
  C   C16       1.0  0.40050  0.05060  0.46490  1.0000
  H   H9        1.0  0.83120  0.41490  0.94230  1.0000
  H   H10       1.0  0.16880  0.41490  0.55770  1.0000
  H   H11       1.0  0.33120  0.91490  0.94230  1.0000
  H   H12       1.0  0.66880  0.91490  0.55770  1.0000
  H   H13       1.0  0.16880  0.58510  0.05770  1.0000
  H   H14       1.0  0.83120  0.58510  0.44230  1.0000
  H   H15       1.0  0.66880  0.08510  0.05770  1.0000
  H   H16       1.0  0.33120  0.08510  0.44230  1.0000
  N   N9        1.0  0.99840  0.44233  0.91650  1.0000
  N   N10       1.0  0.00160  0.44233  0.58350  1.0000
  N   N11       1.0  0.49840  0.94233  0.91650  1.0000
  N   N12       1.0  0.50160  0.94233  0.58350  1.0000
  N   N13       1.0  0.00160  0.55767  0.08350  1.0000
  N   N14       1.0  0.99840  0.55767  0.41650  1.0000
  N   N15       1.0  0.50160  0.05767  0.08350  1.0000
  N   N16       1.0  0.49840  0.05767  0.41650  1.0000
  C   C17       1.0  0.90240  0.50870  0.04940  1.0000
  C   C18       1.0  0.09760  0.50870  0.45060  1.0000
  C   C19       1.0  0.40240  0.00870  0.04940  1.0000
  C   C20       1.0  0.59760  0.00870  0.45060  1.0000
  C   C21       1.0  0.09760  0.49130  0.95060  1.0000
  C   C22       1.0  0.90240  0.49130  0.54940  1.0000
  C   C23       1.0  0.59760  0.99130  0.95060  1.0000
  C   C24       1.0  0.40240  0.99130  0.54940  1.0000
  C   C25       1.0  0.76340  0.24990  0.61960  1.0000
  C   C26       1.0  0.23660  0.24990  0.88040  1.0000
  C   C27       1.0  0.26340  0.74990  0.61960  1.0000
  C   C28       1.0  0.73660  0.74990  0.88040  1.0000
  C   C29       1.0  0.23660  0.75010  0.38040  1.0000
  C   C30       1.0  0.76340  0.75010  0.11960  1.0000
  C   C31       1.0  0.73660  0.25010  0.38040  1.0000
  C   C32       1.0  0.26340  0.25010  0.11960  1.0000
  C   C33       1.0  0.78290  0.24890  0.75610  1.0000
  C   C34       1.0  0.21710  0.24890  0.74390  1.0000
  C   C35       1.0  0.28290  0.74890  0.75610  1.0000
  C   C36       1.0  0.71710  0.74890  0.74390  1.0000
  C   C37       1.0  0.21710  0.75110  0.24390  1.0000
  C   C38       1.0  0.78290  0.75110  0.25610  1.0000
  C   C39       1.0  0.71710  0.25110  0.24390  1.0000
  C   C40       1.0  0.28290  0.25110  0.25610  1.0000
  O   O1        1.0  0.87890  0.28762  0.82140  1.0000
  O   O2        1.0  0.12110  0.28762  0.67860  1.0000
  O   O3        1.0  0.37890  0.78762  0.82140  1.0000
  O   O4        1.0  0.62110  0.78762  0.67860  1.0000
  O   O5        1.0  0.12110  0.71238  0.17860  1.0000
  O   O6        1.0  0.87890  0.71238  0.32140  1.0000
  O   O7        1.0  0.62110  0.21238  0.17860  1.0000
  O   O8        1.0  0.37890  0.21238  0.32140  1.0000
  O   O9        1.0  0.70890  0.21050  0.79540  1.0000
  O   O10       1.0  0.29110  0.21050  0.70460  1.0000
  O   O11       1.0  0.20890  0.71050  0.79540  1.0000
  O   O12       1.0  0.79110  0.71050  0.70460  1.0000
  O   O13       1.0  0.29110  0.78950  0.20460  1.0000
  O   O14       1.0  0.70890  0.78950  0.29540  1.0000
  O   O15       1.0  0.79110  0.28950  0.20460  1.0000
  O   O16       1.0  0.20890  0.28950  0.29540  1.0000
  C   C41       1.0  0.79650  0.51900  0.10900  1.0000
  C   C42       1.0  0.20350  0.51900  0.39100  1.0000
  C   C43       1.0  0.29650  0.01900  0.10900  1.0000
  C   C44       1.0  0.70350  0.01900  0.39100  1.0000
  C   C45       1.0  0.20350  0.48100  0.89100  1.0000
  C   C46       1.0  0.79650  0.48100  0.60900  1.0000
  C   C47       1.0  0.70350  0.98100  0.89100  1.0000
  C   C48       1.0  0.29650  0.98100  0.60900  1.0000
  O   O17       1.0  0.81800  0.56789  0.19460  1.0000
  O   O18       1.0  0.18200  0.56789  0.30540  1.0000
  O   O19       1.0  0.31800  0.06789  0.19460  1.0000
  O   O20       1.0  0.68200  0.06789  0.30540  1.0000
  O   O21       1.0  0.18200  0.43211  0.80540  1.0000
  O   O22       1.0  0.81800  0.43211  0.69460  1.0000
  O   O23       1.0  0.68200  0.93211  0.80540  1.0000
  O   O24       1.0  0.31800  0.93211  0.69460  1.0000
  O   O25       1.0  0.69660  0.48010  0.06870  1.0000
  O   O26       1.0  0.30340  0.48010  0.43130  1.0000
  O   O27       1.0  0.19660  0.98010  0.06870  1.0000
  O   O28       1.0  0.80340  0.98010  0.43130  1.0000
  O   O29       1.0  0.30340  0.51990  0.93130  1.0000
  O   O30       1.0  0.69660  0.51990  0.56870  1.0000
  O   O31       1.0  0.80340  0.01990  0.93130  1.0000
  O   O32       1.0  0.19660  0.01990  0.56870  1.0000
