data_image0
_chemical_formula_structural       In18N72C72H36C36H36C72O72C36O72
_chemical_formula_sum              "In18 N72 C216 H72 O144"
_cell_length_a       15.38
_cell_length_b       15.38
_cell_length_c       52.911
_cell_angle_alpha    90
_cell_angle_beta     90
_cell_angle_gamma    120

_space_group_name_H-M_alt    "P 1"
_space_group_IT_number       1

loop_
  _space_group_symop_operation_xyz
  'x, y, z'

loop_
  _atom_site_type_symbol
  _atom_site_label
  _atom_site_symmetry_multiplicity
  _atom_site_fract_x
  _atom_site_fract_y
  _atom_site_fract_z
  _atom_site_occupancy
  In  In1       1.0  0.54890  0.00000  0.25000  1.0000
  In  In2       1.0  0.00000  0.54890  0.25000  1.0000
  In  In3       1.0  0.45110  0.45110  0.25000  1.0000
  In  In4       1.0  0.21557  0.33333  0.58333  1.0000
  In  In5       1.0  0.66667  0.88223  0.58333  1.0000
  In  In6       1.0  0.11777  0.78443  0.58333  1.0000
  In  In7       1.0  0.88223  0.66667  0.91667  1.0000
  In  In8       1.0  0.33333  0.21557  0.91667  1.0000
  In  In9       1.0  0.78443  0.11777  0.91667  1.0000
  In  In10      1.0  0.45110  0.00000  0.75000  1.0000
  In  In11      1.0  0.00000  0.45110  0.75000  1.0000
  In  In12      1.0  0.54890  0.54890  0.75000  1.0000
  In  In13      1.0  0.78443  0.66667  0.41667  1.0000
  In  In14      1.0  0.33333  0.11777  0.41667  1.0000
  In  In15      1.0  0.88223  0.21557  0.41667  1.0000
  In  In16      1.0  0.11777  0.33333  0.08333  1.0000
  In  In17      1.0  0.66667  0.78443  0.08333  1.0000
  In  In18      1.0  0.21557  0.88223  0.08333  1.0000
  N   N1        1.0  0.68579  0.10694  0.27352  1.0000
  N   N2        1.0  0.89306  0.57885  0.27352  1.0000
  N   N3        1.0  0.42115  0.31421  0.27352  1.0000
  N   N4        1.0  0.57885  0.89306  0.22648  1.0000
  N   N5        1.0  0.31421  0.42115  0.22648  1.0000
  N   N6        1.0  0.10694  0.68579  0.22648  1.0000
  N   N7        1.0  0.35246  0.44027  0.60685  1.0000
  N   N8        1.0  0.55973  0.91218  0.60685  1.0000
  N   N9        1.0  0.08782  0.64754  0.60685  1.0000
  N   N10       1.0  0.24552  0.22639  0.55981  1.0000
  N   N11       1.0  0.98088  0.75448  0.55981  1.0000
  N   N12       1.0  0.77361  0.01912  0.55981  1.0000
  N   N13       1.0  0.01912  0.77361  0.94019  1.0000
  N   N14       1.0  0.22639  0.24552  0.94019  1.0000
  N   N15       1.0  0.75448  0.98088  0.94019  1.0000
  N   N16       1.0  0.91218  0.55973  0.89315  1.0000
  N   N17       1.0  0.64754  0.08782  0.89315  1.0000
  N   N18       1.0  0.44027  0.35246  0.89315  1.0000
  N   N19       1.0  0.31421  0.89306  0.72648  1.0000
  N   N20       1.0  0.10694  0.42115  0.72648  1.0000
  N   N21       1.0  0.57885  0.68579  0.72648  1.0000
  N   N22       1.0  0.42115  0.10694  0.77352  1.0000
  N   N23       1.0  0.68579  0.57885  0.77352  1.0000
  N   N24       1.0  0.89306  0.31421  0.77352  1.0000
  N   N25       1.0  0.64754  0.55973  0.39315  1.0000
  N   N26       1.0  0.44027  0.08782  0.39315  1.0000
  N   N27       1.0  0.91218  0.35246  0.39315  1.0000
  N   N28       1.0  0.75448  0.77361  0.44019  1.0000
  N   N29       1.0  0.01912  0.24552  0.44019  1.0000
  N   N30       1.0  0.22639  0.98088  0.44019  1.0000
  N   N31       1.0  0.98088  0.22639  0.05981  1.0000
  N   N32       1.0  0.77361  0.75448  0.05981  1.0000
  N   N33       1.0  0.24552  0.01912  0.05981  1.0000
  N   N34       1.0  0.08782  0.44027  0.10685  1.0000
  N   N35       1.0  0.35246  0.91218  0.10685  1.0000
  N   N36       1.0  0.55973  0.64754  0.10685  1.0000
  N   N37       1.0  0.74912  0.20292  0.26708  1.0000
  N   N38       1.0  0.79708  0.54620  0.26708  1.0000
  N   N39       1.0  0.45380  0.25088  0.26708  1.0000
  N   N40       1.0  0.54620  0.79708  0.23292  1.0000
  N   N41       1.0  0.25088  0.45380  0.23292  1.0000
  N   N42       1.0  0.20292  0.74912  0.23292  1.0000
  N   N43       1.0  0.41579  0.53625  0.60041  1.0000
  N   N44       1.0  0.46375  0.87953  0.60041  1.0000
  N   N45       1.0  0.12047  0.58421  0.60041  1.0000
  N   N46       1.0  0.21287  0.13041  0.56625  1.0000
  N   N47       1.0  0.91755  0.78713  0.56625  1.0000
  N   N48       1.0  0.86959  0.08245  0.56625  1.0000
  N   N49       1.0  0.08245  0.86959  0.93375  1.0000
  N   N50       1.0  0.13041  0.21287  0.93375  1.0000
  N   N51       1.0  0.78713  0.91755  0.93375  1.0000
  N   N52       1.0  0.87953  0.46375  0.89959  1.0000
  N   N53       1.0  0.58421  0.12047  0.89959  1.0000
  N   N54       1.0  0.53625  0.41579  0.89959  1.0000
  N   N55       1.0  0.25088  0.79708  0.73292  1.0000
  N   N56       1.0  0.20292  0.45380  0.73292  1.0000
  N   N57       1.0  0.54620  0.74912  0.73292  1.0000
  N   N58       1.0  0.45380  0.20292  0.76708  1.0000
  N   N59       1.0  0.74912  0.54620  0.76708  1.0000
  N   N60       1.0  0.79708  0.25088  0.76708  1.0000
  N   N61       1.0  0.58421  0.46375  0.39959  1.0000
  N   N62       1.0  0.53625  0.12047  0.39959  1.0000
  N   N63       1.0  0.87953  0.41579  0.39959  1.0000
  N   N64       1.0  0.78713  0.86959  0.43375  1.0000
  N   N65       1.0  0.08245  0.21287  0.43375  1.0000
  N   N66       1.0  0.13041  0.91755  0.43375  1.0000
  N   N67       1.0  0.91755  0.13041  0.06625  1.0000
  N   N68       1.0  0.86959  0.78713  0.06625  1.0000
  N   N69       1.0  0.21287  0.08245  0.06625  1.0000
  N   N70       1.0  0.12047  0.53625  0.10041  1.0000
  N   N71       1.0  0.41579  0.87953  0.10041  1.0000
  N   N72       1.0  0.46375  0.58421  0.10041  1.0000
  C   C1        1.0  0.82240  0.25930  0.28311  1.0000
  C   C2        1.0  0.74070  0.56310  0.28311  1.0000
  C   C3        1.0  0.43690  0.17760  0.28311  1.0000
  C   C4        1.0  0.56310  0.74070  0.21689  1.0000
  C   C5        1.0  0.17760  0.43690  0.21689  1.0000
  C   C6        1.0  0.25930  0.82240  0.21689  1.0000
  C   C7        1.0  0.48907  0.59263  0.61644  1.0000
  C   C8        1.0  0.40737  0.89643  0.61644  1.0000
  C   C9        1.0  0.10357  0.51093  0.61644  1.0000
  C   C10       1.0  0.22977  0.07403  0.55022  1.0000
  C   C11       1.0  0.84427  0.77023  0.55022  1.0000
  C   C12       1.0  0.92597  0.15573  0.55022  1.0000
  C   C13       1.0  0.15573  0.92597  0.94978  1.0000
  C   C14       1.0  0.07403  0.22977  0.94978  1.0000
  C   C15       1.0  0.77023  0.84427  0.94978  1.0000
  C   C16       1.0  0.89643  0.40737  0.88356  1.0000
  C   C17       1.0  0.51093  0.10357  0.88356  1.0000
  C   C18       1.0  0.59263  0.48907  0.88356  1.0000
  C   C19       1.0  0.17760  0.74070  0.71689  1.0000
  C   C20       1.0  0.25930  0.43690  0.71689  1.0000
  C   C21       1.0  0.56310  0.82240  0.71689  1.0000
  C   C22       1.0  0.43690  0.25930  0.78311  1.0000
  C   C23       1.0  0.82240  0.56310  0.78311  1.0000
  C   C24       1.0  0.74070  0.17760  0.78311  1.0000
  C   C25       1.0  0.51093  0.40737  0.38356  1.0000
  C   C26       1.0  0.59263  0.10357  0.38356  1.0000
  C   C27       1.0  0.89643  0.48907  0.38356  1.0000
  C   C28       1.0  0.77023  0.92597  0.44978  1.0000
  C   C29       1.0  0.15573  0.22977  0.44978  1.0000
  C   C30       1.0  0.07403  0.84427  0.44978  1.0000
  C   C31       1.0  0.84427  0.07403  0.05022  1.0000
  C   C32       1.0  0.92597  0.77023  0.05022  1.0000
  C   C33       1.0  0.22977  0.15573  0.05022  1.0000
  C   C34       1.0  0.10357  0.59263  0.11644  1.0000
  C   C35       1.0  0.48907  0.89643  0.11644  1.0000
  C   C36       1.0  0.40737  0.51093  0.11644  1.0000
  C   C37       1.0  0.83600  0.22330  0.30619  1.0000
  C   C38       1.0  0.77670  0.61270  0.30619  1.0000
  C   C39       1.0  0.38730  0.16400  0.30619  1.0000
  C   C40       1.0  0.61270  0.77670  0.19381  1.0000
  C   C41       1.0  0.16400  0.38730  0.19381  1.0000
  C   C42       1.0  0.22330  0.83600  0.19381  1.0000
  C   C43       1.0  0.50267  0.55663  0.63952  1.0000
  C   C44       1.0  0.44337  0.94603  0.63952  1.0000
  C   C45       1.0  0.05397  0.49733  0.63952  1.0000
  C   C46       1.0  0.27937  0.11003  0.52714  1.0000
  C   C47       1.0  0.83067  0.72063  0.52714  1.0000
  C   C48       1.0  0.88997  0.16933  0.52714  1.0000
  C   C49       1.0  0.16933  0.88997  0.97286  1.0000
  C   C50       1.0  0.11003  0.27937  0.97286  1.0000
  C   C51       1.0  0.72063  0.83067  0.97286  1.0000
  C   C52       1.0  0.94603  0.44337  0.86048  1.0000
  C   C53       1.0  0.49733  0.05397  0.86048  1.0000
  C   C54       1.0  0.55663  0.50267  0.86048  1.0000
  C   C55       1.0  0.16400  0.77670  0.69381  1.0000
  C   C56       1.0  0.22330  0.38730  0.69381  1.0000
  C   C57       1.0  0.61270  0.83600  0.69381  1.0000
  C   C58       1.0  0.38730  0.22330  0.80619  1.0000
  C   C59       1.0  0.83600  0.61270  0.80619  1.0000
  C   C60       1.0  0.77670  0.16400  0.80619  1.0000
  C   C61       1.0  0.49733  0.44337  0.36048  1.0000
  C   C62       1.0  0.55663  0.05397  0.36048  1.0000
  C   C63       1.0  0.94603  0.50267  0.36048  1.0000
  C   C64       1.0  0.72063  0.88997  0.47286  1.0000
  C   C65       1.0  0.16933  0.27937  0.47286  1.0000
  C   C66       1.0  0.11003  0.83067  0.47286  1.0000
  C   C67       1.0  0.83067  0.11003  0.02714  1.0000
  C   C68       1.0  0.88997  0.72063  0.02714  1.0000
  C   C69       1.0  0.27937  0.16933  0.02714  1.0000
  C   C70       1.0  0.05397  0.55663  0.13952  1.0000
  C   C71       1.0  0.50267  0.94603  0.13952  1.0000
  C   C72       1.0  0.44337  0.49733  0.13952  1.0000
  H   H1        1.0  0.88820  0.26480  0.31700  1.0000
  H   H2        1.0  0.73520  0.62340  0.31700  1.0000
  H   H3        1.0  0.37660  0.11180  0.31700  1.0000
  H   H4        1.0  0.62340  0.73520  0.18300  1.0000
  H   H5        1.0  0.11180  0.37660  0.18300  1.0000
  H   H6        1.0  0.26480  0.88820  0.18300  1.0000
  H   H7        1.0  0.55487  0.59813  0.65033  1.0000
  H   H8        1.0  0.40187  0.95673  0.65033  1.0000
  H   H9        1.0  0.04327  0.44513  0.65033  1.0000
  H   H10       1.0  0.29007  0.06853  0.51633  1.0000
  H   H11       1.0  0.77847  0.70993  0.51633  1.0000
  H   H12       1.0  0.93147  0.22153  0.51633  1.0000
  H   H13       1.0  0.22153  0.93147  0.98367  1.0000
  H   H14       1.0  0.06853  0.29007  0.98367  1.0000
  H   H15       1.0  0.70993  0.77847  0.98367  1.0000
  H   H16       1.0  0.95673  0.40187  0.84967  1.0000
  H   H17       1.0  0.44513  0.04327  0.84967  1.0000
  H   H18       1.0  0.59813  0.55487  0.84967  1.0000
  H   H19       1.0  0.11180  0.73520  0.68300  1.0000
  H   H20       1.0  0.26480  0.37660  0.68300  1.0000
  H   H21       1.0  0.62340  0.88820  0.68300  1.0000
  H   H22       1.0  0.37660  0.26480  0.81700  1.0000
  H   H23       1.0  0.88820  0.62340  0.81700  1.0000
  H   H24       1.0  0.73520  0.11180  0.81700  1.0000
  H   H25       1.0  0.44513  0.40187  0.34967  1.0000
  H   H26       1.0  0.59813  0.04327  0.34967  1.0000
  H   H27       1.0  0.95673  0.55487  0.34967  1.0000
  H   H28       1.0  0.70993  0.93147  0.48367  1.0000
  H   H29       1.0  0.22153  0.29007  0.48367  1.0000
  H   H30       1.0  0.06853  0.77847  0.48367  1.0000
  H   H31       1.0  0.77847  0.06853  0.01633  1.0000
  H   H32       1.0  0.93147  0.70993  0.01633  1.0000
  H   H33       1.0  0.29007  0.22153  0.01633  1.0000
  H   H34       1.0  0.04327  0.59813  0.15033  1.0000
  H   H35       1.0  0.55487  0.95673  0.15033  1.0000
  H   H36       1.0  0.40187  0.44513  0.15033  1.0000
  C   C73       1.0  0.77030  0.12500  0.31260  1.0000
  C   C74       1.0  0.87500  0.64530  0.31260  1.0000
  C   C75       1.0  0.35470  0.22970  0.31260  1.0000
  C   C76       1.0  0.64530  0.87500  0.18740  1.0000
  C   C77       1.0  0.22970  0.35470  0.18740  1.0000
  C   C78       1.0  0.12500  0.77030  0.18740  1.0000
  C   C79       1.0  0.43697  0.45833  0.64593  1.0000
  C   C80       1.0  0.54167  0.97863  0.64593  1.0000
  C   C81       1.0  0.02137  0.56303  0.64593  1.0000
  C   C82       1.0  0.31197  0.20833  0.52073  1.0000
  C   C83       1.0  0.89637  0.68803  0.52073  1.0000
  C   C84       1.0  0.79167  0.10363  0.52073  1.0000
  C   C85       1.0  0.10363  0.79167  0.97927  1.0000
  C   C86       1.0  0.20833  0.31197  0.97927  1.0000
  C   C87       1.0  0.68803  0.89637  0.97927  1.0000
  C   C88       1.0  0.97863  0.54167  0.85407  1.0000
  C   C89       1.0  0.56303  0.02137  0.85407  1.0000
  C   C90       1.0  0.45833  0.43697  0.85407  1.0000
  C   C91       1.0  0.22970  0.87500  0.68740  1.0000
  C   C92       1.0  0.12500  0.35470  0.68740  1.0000
  C   C93       1.0  0.64530  0.77030  0.68740  1.0000
  C   C94       1.0  0.35470  0.12500  0.81260  1.0000
  C   C95       1.0  0.77030  0.64530  0.81260  1.0000
  C   C96       1.0  0.87500  0.22970  0.81260  1.0000
  C   C97       1.0  0.56303  0.54167  0.35407  1.0000
  C   C98       1.0  0.45833  0.02137  0.35407  1.0000
  C   C99       1.0  0.97863  0.43697  0.35407  1.0000
  C   C100      1.0  0.68803  0.79167  0.47927  1.0000
  C   C101      1.0  0.10363  0.31197  0.47927  1.0000
  C   C102      1.0  0.20833  0.89637  0.47927  1.0000
  C   C103      1.0  0.89637  0.20833  0.02073  1.0000
  C   C104      1.0  0.79167  0.68803  0.02073  1.0000
  C   C105      1.0  0.31197  0.10363  0.02073  1.0000
  C   C106      1.0  0.02137  0.45833  0.14593  1.0000
  C   C107      1.0  0.43697  0.97863  0.14593  1.0000
  C   C108      1.0  0.54167  0.56303  0.14593  1.0000
  H   H37       1.0  0.77630  0.09760  0.32770  1.0000
  H   H38       1.0  0.90240  0.67870  0.32770  1.0000
  H   H39       1.0  0.32130  0.22370  0.32770  1.0000
  H   H40       1.0  0.67870  0.90240  0.17230  1.0000
  H   H41       1.0  0.22370  0.32130  0.17230  1.0000
  H   H42       1.0  0.09760  0.77630  0.17230  1.0000
  H   H43       1.0  0.44297  0.43093  0.66103  1.0000
  H   H44       1.0  0.56907  0.01203  0.66103  1.0000
  H   H45       1.0  0.98797  0.55703  0.66103  1.0000
  H   H46       1.0  0.34537  0.23573  0.50563  1.0000
  H   H47       1.0  0.89037  0.65463  0.50563  1.0000
  H   H48       1.0  0.76427  0.10963  0.50563  1.0000
  H   H49       1.0  0.10963  0.76427  0.99437  1.0000
  H   H50       1.0  0.23573  0.34537  0.99437  1.0000
  H   H51       1.0  0.65463  0.89037  0.99437  1.0000
  H   H52       1.0  0.01203  0.56907  0.83897  1.0000
  H   H53       1.0  0.55703  0.98797  0.83897  1.0000
  H   H54       1.0  0.43093  0.44297  0.83897  1.0000
  H   H55       1.0  0.22370  0.90240  0.67230  1.0000
  H   H56       1.0  0.09760  0.32130  0.67230  1.0000
  H   H57       1.0  0.67870  0.77630  0.67230  1.0000
  H   H58       1.0  0.32130  0.09760  0.82770  1.0000
  H   H59       1.0  0.77630  0.67870  0.82770  1.0000
  H   H60       1.0  0.90240  0.22370  0.82770  1.0000
  H   H61       1.0  0.55703  0.56907  0.33897  1.0000
  H   H62       1.0  0.43093  0.98797  0.33897  1.0000
  H   H63       1.0  0.01203  0.44297  0.33897  1.0000
  H   H64       1.0  0.65463  0.76427  0.49437  1.0000
  H   H65       1.0  0.10963  0.34537  0.49437  1.0000
  H   H66       1.0  0.23573  0.89037  0.49437  1.0000
  H   H67       1.0  0.89037  0.23573  0.00563  1.0000
  H   H68       1.0  0.76427  0.65463  0.00563  1.0000
  H   H69       1.0  0.34537  0.10963  0.00563  1.0000
  H   H70       1.0  0.98797  0.43093  0.16103  1.0000
  H   H71       1.0  0.44297  0.01203  0.16103  1.0000
  H   H72       1.0  0.56907  0.55703  0.16103  1.0000
  C   C109      1.0  0.69420  0.06840  0.29534  1.0000
  C   C110      1.0  0.93160  0.62580  0.29534  1.0000
  C   C111      1.0  0.37420  0.30580  0.29534  1.0000
  C   C112      1.0  0.62580  0.93160  0.20466  1.0000
  C   C113      1.0  0.30580  0.37420  0.20466  1.0000
  C   C114      1.0  0.06840  0.69420  0.20466  1.0000
  C   C115      1.0  0.36087  0.40173  0.62867  1.0000
  C   C116      1.0  0.59827  0.95913  0.62867  1.0000
  C   C117      1.0  0.04087  0.63913  0.62867  1.0000
  C   C118      1.0  0.29247  0.26493  0.53799  1.0000
  C   C119      1.0  0.97247  0.70753  0.53799  1.0000
  C   C120      1.0  0.73507  0.02753  0.53799  1.0000
  C   C121      1.0  0.02753  0.73507  0.96201  1.0000
  C   C122      1.0  0.26493  0.29247  0.96201  1.0000
  C   C123      1.0  0.70753  0.97247  0.96201  1.0000
  C   C124      1.0  0.95913  0.59827  0.87133  1.0000
  C   C125      1.0  0.63913  0.04087  0.87133  1.0000
  C   C126      1.0  0.40173  0.36087  0.87133  1.0000
  C   C127      1.0  0.30580  0.93160  0.70466  1.0000
  C   C128      1.0  0.06840  0.37420  0.70466  1.0000
  C   C129      1.0  0.62580  0.69420  0.70466  1.0000
  C   C130      1.0  0.37420  0.06840  0.79534  1.0000
  C   C131      1.0  0.69420  0.62580  0.79534  1.0000
  C   C132      1.0  0.93160  0.30580  0.79534  1.0000
  C   C133      1.0  0.63913  0.59827  0.37133  1.0000
  C   C134      1.0  0.40173  0.04087  0.37133  1.0000
  C   C135      1.0  0.95913  0.36087  0.37133  1.0000
  C   C136      1.0  0.70753  0.73507  0.46201  1.0000
  C   C137      1.0  0.02753  0.29247  0.46201  1.0000
  C   C138      1.0  0.26493  0.97247  0.46201  1.0000
  C   C139      1.0  0.97247  0.26493  0.03799  1.0000
  C   C140      1.0  0.73507  0.70753  0.03799  1.0000
  C   C141      1.0  0.29247  0.02753  0.03799  1.0000
  C   C142      1.0  0.04087  0.40173  0.12867  1.0000
  C   C143      1.0  0.36087  0.95913  0.12867  1.0000
  C   C144      1.0  0.59827  0.63913  0.12867  1.0000
  C   C145      1.0  0.89220  0.36720  0.27557  1.0000
  C   C146      1.0  0.63280  0.52500  0.27557  1.0000
  C   C147      1.0  0.47500  0.10780  0.27557  1.0000
  C   C148      1.0  0.52500  0.63280  0.22443  1.0000
  C   C149      1.0  0.10780  0.47500  0.22443  1.0000
  C   C150      1.0  0.36720  0.89220  0.22443  1.0000
  C   C151      1.0  0.55887  0.70053  0.60890  1.0000
  C   C152      1.0  0.29947  0.85833  0.60890  1.0000
  C   C153      1.0  0.14167  0.44113  0.60890  1.0000
  C   C154      1.0  0.19167  0.96613  0.55776  1.0000
  C   C155      1.0  0.77447  0.80833  0.55776  1.0000
  C   C156      1.0  0.03387  0.22553  0.55776  1.0000
  C   C157      1.0  0.22553  0.03387  0.94224  1.0000
  C   C158      1.0  0.96613  0.19167  0.94224  1.0000
  C   C159      1.0  0.80833  0.77447  0.94224  1.0000
  C   C160      1.0  0.85833  0.29947  0.89110  1.0000
  C   C161      1.0  0.44113  0.14167  0.89110  1.0000
  C   C162      1.0  0.70053  0.55887  0.89110  1.0000
  C   C163      1.0  0.10780  0.63280  0.72443  1.0000
  C   C164      1.0  0.36720  0.47500  0.72443  1.0000
  C   C165      1.0  0.52500  0.89220  0.72443  1.0000
  C   C166      1.0  0.47500  0.36720  0.77557  1.0000
  C   C167      1.0  0.89220  0.52500  0.77557  1.0000
  C   C168      1.0  0.63280  0.10780  0.77557  1.0000
  C   C169      1.0  0.44113  0.29947  0.39110  1.0000
  C   C170      1.0  0.70053  0.14167  0.39110  1.0000
  C   C171      1.0  0.85833  0.55887  0.39110  1.0000
  C   C172      1.0  0.80833  0.03387  0.44224  1.0000
  C   C173      1.0  0.22553  0.19167  0.44224  1.0000
  C   C174      1.0  0.96613  0.77447  0.44224  1.0000
  C   C175      1.0  0.77447  0.96613  0.05776  1.0000
  C   C176      1.0  0.03387  0.80833  0.05776  1.0000
  C   C177      1.0  0.19167  0.22553  0.05776  1.0000
  C   C178      1.0  0.14167  0.70053  0.10890  1.0000
  C   C179      1.0  0.55887  0.85833  0.10890  1.0000
  C   C180      1.0  0.29947  0.44113  0.10890  1.0000
  O   O1        1.0  0.50354  0.11194  0.25283  1.0000
  O   O2        1.0  0.88806  0.39160  0.25283  1.0000
  O   O3        1.0  0.60840  0.49646  0.25283  1.0000
  O   O4        1.0  0.39160  0.88806  0.24717  1.0000
  O   O5        1.0  0.49646  0.60840  0.24717  1.0000
  O   O6        1.0  0.11194  0.50354  0.24717  1.0000
  O   O7        1.0  0.17021  0.44527  0.58616  1.0000
  O   O8        1.0  0.55473  0.72493  0.58616  1.0000
  O   O9        1.0  0.27507  0.82979  0.58616  1.0000
  O   O10       1.0  0.05827  0.22139  0.58050  1.0000
  O   O11       1.0  0.16313  0.94173  0.58050  1.0000
  O   O12       1.0  0.77861  0.83687  0.58050  1.0000
  O   O13       1.0  0.83687  0.77861  0.91950  1.0000
  O   O14       1.0  0.22139  0.05827  0.91950  1.0000
  O   O15       1.0  0.94173  0.16313  0.91950  1.0000
  O   O16       1.0  0.72493  0.55473  0.91384  1.0000
  O   O17       1.0  0.82979  0.27507  0.91384  1.0000
  O   O18       1.0  0.44527  0.17021  0.91384  1.0000
  O   O19       1.0  0.49646  0.88806  0.74717  1.0000
  O   O20       1.0  0.11194  0.60840  0.74717  1.0000
  O   O21       1.0  0.39160  0.50354  0.74717  1.0000
  O   O22       1.0  0.60840  0.11194  0.75283  1.0000
  O   O23       1.0  0.50354  0.39160  0.75283  1.0000
  O   O24       1.0  0.88806  0.49646  0.75283  1.0000
  O   O25       1.0  0.82979  0.55473  0.41384  1.0000
  O   O26       1.0  0.44527  0.27507  0.41384  1.0000
  O   O27       1.0  0.72493  0.17021  0.41384  1.0000
  O   O28       1.0  0.94173  0.77861  0.41950  1.0000
  O   O29       1.0  0.83687  0.05827  0.41950  1.0000
  O   O30       1.0  0.22139  0.16313  0.41950  1.0000
  O   O31       1.0  0.16313  0.22139  0.08050  1.0000
  O   O32       1.0  0.77861  0.94173  0.08050  1.0000
  O   O33       1.0  0.05827  0.83687  0.08050  1.0000
  O   O34       1.0  0.27507  0.44527  0.08616  1.0000
  O   O35       1.0  0.17021  0.72493  0.08616  1.0000
  O   O36       1.0  0.55473  0.82979  0.08616  1.0000
  O   O37       1.0  0.94932  0.42570  0.29159  1.0000
  O   O38       1.0  0.57430  0.52362  0.29159  1.0000
  O   O39       1.0  0.47638  0.05068  0.29159  1.0000
  O   O40       1.0  0.52362  0.57430  0.20841  1.0000
  O   O41       1.0  0.05068  0.47638  0.20841  1.0000
  O   O42       1.0  0.42570  0.94932  0.20841  1.0000
  O   O43       1.0  0.61599  0.75903  0.62492  1.0000
  O   O44       1.0  0.24097  0.85695  0.62492  1.0000
  O   O45       1.0  0.14305  0.38401  0.62492  1.0000
  O   O46       1.0  0.19029  0.90763  0.54174  1.0000
  O   O47       1.0  0.71735  0.80971  0.54174  1.0000
  O   O48       1.0  0.09237  0.28265  0.54174  1.0000
  O   O49       1.0  0.28265  0.09237  0.95826  1.0000
  O   O50       1.0  0.90763  0.19029  0.95826  1.0000
  O   O51       1.0  0.80971  0.71735  0.95826  1.0000
  O   O52       1.0  0.85695  0.24097  0.87508  1.0000
  O   O53       1.0  0.38401  0.14305  0.87508  1.0000
  O   O54       1.0  0.75903  0.61599  0.87508  1.0000
  O   O55       1.0  0.05068  0.57430  0.70841  1.0000
  O   O56       1.0  0.42570  0.47638  0.70841  1.0000
  O   O57       1.0  0.52362  0.94932  0.70841  1.0000
  O   O58       1.0  0.47638  0.42570  0.79159  1.0000
  O   O59       1.0  0.94932  0.52362  0.79159  1.0000
  O   O60       1.0  0.57430  0.05068  0.79159  1.0000
  O   O61       1.0  0.38401  0.24097  0.37508  1.0000
  O   O62       1.0  0.75903  0.14305  0.37508  1.0000
  O   O63       1.0  0.85695  0.61599  0.37508  1.0000
  O   O64       1.0  0.80971  0.09237  0.45826  1.0000
  O   O65       1.0  0.28265  0.19029  0.45826  1.0000
  O   O66       1.0  0.90763  0.71735  0.45826  1.0000
  O   O67       1.0  0.71735  0.90763  0.04174  1.0000
  O   O68       1.0  0.09237  0.80971  0.04174  1.0000
  O   O69       1.0  0.19029  0.28265  0.04174  1.0000
  O   O70       1.0  0.14305  0.75903  0.12492  1.0000
  O   O71       1.0  0.61599  0.85695  0.12492  1.0000
  O   O72       1.0  0.24097  0.38401  0.12492  1.0000
  C   C181      1.0  0.61560  0.95970  0.29968  1.0000
  C   C182      1.0  0.04030  0.65590  0.29968  1.0000
  C   C183      1.0  0.34410  0.38440  0.29968  1.0000
  C   C184      1.0  0.65590  0.04030  0.20032  1.0000
  C   C185      1.0  0.38440  0.34410  0.20032  1.0000
  C   C186      1.0  0.95970  0.61560  0.20032  1.0000
  C   C187      1.0  0.28227  0.29303  0.63301  1.0000
  C   C188      1.0  0.70697  0.98923  0.63301  1.0000
  C   C189      1.0  0.01077  0.71773  0.63301  1.0000
  C   C190      1.0  0.32257  0.37363  0.53365  1.0000
  C   C191      1.0  0.05107  0.67743  0.53365  1.0000
  C   C192      1.0  0.62637  0.94893  0.53365  1.0000
  C   C193      1.0  0.94893  0.62637  0.96635  1.0000
  C   C194      1.0  0.37363  0.32257  0.96635  1.0000
  C   C195      1.0  0.67743  0.05107  0.96635  1.0000
  C   C196      1.0  0.98923  0.70697  0.86699  1.0000
  C   C197      1.0  0.71773  0.01077  0.86699  1.0000
  C   C198      1.0  0.29303  0.28227  0.86699  1.0000
  C   C199      1.0  0.38440  0.04030  0.70032  1.0000
  C   C200      1.0  0.95970  0.34410  0.70032  1.0000
  C   C201      1.0  0.65590  0.61560  0.70032  1.0000
  C   C202      1.0  0.34410  0.95970  0.79968  1.0000
  C   C203      1.0  0.61560  0.65590  0.79968  1.0000
  C   C204      1.0  0.04030  0.38440  0.79968  1.0000
  C   C205      1.0  0.71773  0.70697  0.36699  1.0000
  C   C206      1.0  0.29303  0.01077  0.36699  1.0000
  C   C207      1.0  0.98923  0.28227  0.36699  1.0000
  C   C208      1.0  0.67743  0.62637  0.46635  1.0000
  C   C209      1.0  0.94893  0.32257  0.46635  1.0000
  C   C210      1.0  0.37363  0.05107  0.46635  1.0000
  C   C211      1.0  0.05107  0.37363  0.03365  1.0000
  C   C212      1.0  0.62637  0.67743  0.03365  1.0000
  C   C213      1.0  0.32257  0.94893  0.03365  1.0000
  C   C214      1.0  0.01077  0.29303  0.13301  1.0000
  C   C215      1.0  0.28227  0.98923  0.13301  1.0000
  C   C216      1.0  0.70697  0.71773  0.13301  1.0000
  O   O73       1.0  0.55682  0.91365  0.28133  1.0000
  O   O74       1.0  0.08635  0.64317  0.28133  1.0000
  O   O75       1.0  0.35683  0.44318  0.28133  1.0000
  O   O76       1.0  0.64317  0.08635  0.21867  1.0000
  O   O77       1.0  0.44318  0.35683  0.21867  1.0000
  O   O78       1.0  0.91365  0.55682  0.21867  1.0000
  O   O79       1.0  0.22349  0.24698  0.61466  1.0000
  O   O80       1.0  0.75302  0.97650  0.61466  1.0000
  O   O81       1.0  0.02350  0.77651  0.61466  1.0000
  O   O82       1.0  0.30984  0.41968  0.55200  1.0000
  O   O83       1.0  0.10985  0.69016  0.55200  1.0000
  O   O84       1.0  0.58032  0.89015  0.55200  1.0000
  O   O85       1.0  0.89015  0.58032  0.94800  1.0000
  O   O86       1.0  0.41968  0.30984  0.94800  1.0000
  O   O87       1.0  0.69016  0.10985  0.94800  1.0000
  O   O88       1.0  0.97650  0.75302  0.88534  1.0000
  O   O89       1.0  0.77651  0.02350  0.88534  1.0000
  O   O90       1.0  0.24698  0.22349  0.88534  1.0000
  O   O91       1.0  0.44318  0.08635  0.71867  1.0000
  O   O92       1.0  0.91365  0.35683  0.71867  1.0000
  O   O93       1.0  0.64317  0.55682  0.71867  1.0000
  O   O94       1.0  0.35683  0.91365  0.78133  1.0000
  O   O95       1.0  0.55682  0.64317  0.78133  1.0000
  O   O96       1.0  0.08635  0.44318  0.78133  1.0000
  O   O97       1.0  0.77651  0.75302  0.38534  1.0000
  O   O98       1.0  0.24698  0.02350  0.38534  1.0000
  O   O99       1.0  0.97650  0.22349  0.38534  1.0000
  O   O100      1.0  0.69016  0.58032  0.44800  1.0000
  O   O101      1.0  0.89015  0.30984  0.44800  1.0000
  O   O102      1.0  0.41968  0.10985  0.44800  1.0000
  O   O103      1.0  0.10985  0.41968  0.05200  1.0000
  O   O104      1.0  0.58032  0.69016  0.05200  1.0000
  O   O105      1.0  0.30984  0.89015  0.05200  1.0000
  O   O106      1.0  0.02350  0.24698  0.11466  1.0000
  O   O107      1.0  0.22349  0.97650  0.11466  1.0000
  O   O108      1.0  0.75302  0.77651  0.11466  1.0000
  O   O109      1.0  0.61445  0.92400  0.32055  1.0000
  O   O110      1.0  0.07600  0.69045  0.32055  1.0000
  O   O111      1.0  0.30955  0.38555  0.32055  1.0000
  O   O112      1.0  0.69045  0.07600  0.17945  1.0000
  O   O113      1.0  0.38555  0.30955  0.17945  1.0000
  O   O114      1.0  0.92400  0.61445  0.17945  1.0000
  O   O115      1.0  0.28112  0.25733  0.65388  1.0000
  O   O116      1.0  0.74267  0.02378  0.65388  1.0000
  O   O117      1.0  0.97622  0.71888  0.65388  1.0000
  O   O118      1.0  0.35712  0.40933  0.51278  1.0000
  O   O119      1.0  0.05222  0.64288  0.51278  1.0000
  O   O120      1.0  0.59067  0.94778  0.51278  1.0000
  O   O121      1.0  0.94778  0.59067  0.98722  1.0000
  O   O122      1.0  0.40933  0.35712  0.98722  1.0000
  O   O123      1.0  0.64288  0.05222  0.98722  1.0000
  O   O124      1.0  0.02378  0.74267  0.84612  1.0000
  O   O125      1.0  0.71888  0.97622  0.84612  1.0000
  O   O126      1.0  0.25733  0.28112  0.84612  1.0000
  O   O127      1.0  0.38555  0.07600  0.67945  1.0000
  O   O128      1.0  0.92400  0.30955  0.67945  1.0000
  O   O129      1.0  0.69045  0.61445  0.67945  1.0000
  O   O130      1.0  0.30955  0.92400  0.82055  1.0000
  O   O131      1.0  0.61445  0.69045  0.82055  1.0000
  O   O132      1.0  0.07600  0.38555  0.82055  1.0000
  O   O133      1.0  0.71888  0.74267  0.34612  1.0000
  O   O134      1.0  0.25733  0.97622  0.34612  1.0000
  O   O135      1.0  0.02378  0.28112  0.34612  1.0000
  O   O136      1.0  0.64288  0.59067  0.48722  1.0000
  O   O137      1.0  0.94778  0.35712  0.48722  1.0000
  O   O138      1.0  0.40933  0.05222  0.48722  1.0000
  O   O139      1.0  0.05222  0.40933  0.01278  1.0000
  O   O140      1.0  0.59067  0.64288  0.01278  1.0000
  O   O141      1.0  0.35712  0.94778  0.01278  1.0000
  O   O142      1.0  0.97622  0.25733  0.15388  1.0000
  O   O143      1.0  0.28112  0.02378  0.15388  1.0000
  O   O144      1.0  0.74267  0.71888  0.15388  1.0000
