data_image0
_chemical_formula_structural       In4N16C16H8C8H8C16O16C8O16
_chemical_formula_sum              "In4 N16 C48 H16 O32"
_cell_length_a       12.928
_cell_length_b       10.806
_cell_length_c       12.262
_cell_angle_alpha    90
_cell_angle_beta     90
_cell_angle_gamma    90

_space_group_name_H-M_alt    "P 1"
_space_group_IT_number       1

loop_
  _space_group_symop_operation_xyz
  'x, y, z'

loop_
  _atom_site_type_symbol
  _atom_site_label
  _atom_site_symmetry_multiplicity
  _atom_site_fract_x
  _atom_site_fract_y
  _atom_site_fract_z
  _atom_site_occupancy
  In  In1       1.0  0.50000  0.50000  0.82318  1.0000
  In  In2       1.0  0.00000  0.00000  0.82318  1.0000
  In  In3       1.0  0.50000  0.00000  0.32318  1.0000
  In  In4       1.0  0.00000  0.50000  0.32318  1.0000
  N   N1        1.0  0.41140  0.41730  0.68120  1.0000
  N   N2        1.0  0.58860  0.58270  0.68120  1.0000
  N   N3        1.0  0.08860  0.91730  0.68120  1.0000
  N   N4        1.0  0.91140  0.08270  0.68120  1.0000
  N   N5        1.0  0.41140  0.91730  0.18120  1.0000
  N   N6        1.0  0.58860  0.08270  0.18120  1.0000
  N   N7        1.0  0.08860  0.41730  0.18120  1.0000
  N   N8        1.0  0.91140  0.58270  0.18120  1.0000
  N   N9        1.0  0.31850  0.46110  0.62980  1.0000
  N   N10       1.0  0.68150  0.53890  0.62980  1.0000
  N   N11       1.0  0.18150  0.96110  0.62980  1.0000
  N   N12       1.0  0.81850  0.03890  0.62980  1.0000
  N   N13       1.0  0.31850  0.96110  0.12980  1.0000
  N   N14       1.0  0.68150  0.03890  0.12980  1.0000
  N   N15       1.0  0.18150  0.46110  0.12980  1.0000
  N   N16       1.0  0.81850  0.53890  0.12980  1.0000
  C   C1        1.0  0.28320  0.41430  0.54080  1.0000
  C   C2        1.0  0.71680  0.58570  0.54080  1.0000
  C   C3        1.0  0.21680  0.91430  0.54080  1.0000
  C   C4        1.0  0.78320  0.08570  0.54080  1.0000
  C   C5        1.0  0.28320  0.91430  0.04080  1.0000
  C   C6        1.0  0.71680  0.08570  0.04080  1.0000
  C   C7        1.0  0.21680  0.41430  0.04080  1.0000
  C   C8        1.0  0.78320  0.58570  0.04080  1.0000
  C   C9        1.0  0.34380  0.32210  0.50070  1.0000
  C   C10       1.0  0.65620  0.67790  0.50070  1.0000
  C   C11       1.0  0.15620  0.82210  0.50070  1.0000
  C   C12       1.0  0.84380  0.17790  0.50070  1.0000
  C   C13       1.0  0.34380  0.82210  0.00070  1.0000
  C   C14       1.0  0.65620  0.17790  0.00070  1.0000
  C   C15       1.0  0.15620  0.32210  0.00070  1.0000
  C   C16       1.0  0.84380  0.67790  0.00070  1.0000
  H   H1        1.0  0.32380  0.28320  0.43640  1.0000
  H   H2        1.0  0.67620  0.71680  0.43640  1.0000
  H   H3        1.0  0.17620  0.78320  0.43640  1.0000
  H   H4        1.0  0.82380  0.21680  0.43640  1.0000
  H   H5        1.0  0.32380  0.78320  0.93640  1.0000
  H   H6        1.0  0.67620  0.21680  0.93640  1.0000
  H   H7        1.0  0.17620  0.28320  0.93640  1.0000
  H   H8        1.0  0.82380  0.71680  0.93640  1.0000
  C   C17       1.0  0.44090  0.28050  0.55530  1.0000
  C   C18       1.0  0.55910  0.71950  0.55530  1.0000
  C   C19       1.0  0.05910  0.78050  0.55530  1.0000
  C   C20       1.0  0.94090  0.21950  0.55530  1.0000
  C   C21       1.0  0.44090  0.78050  0.05530  1.0000
  C   C22       1.0  0.55910  0.21950  0.05530  1.0000
  C   C23       1.0  0.05910  0.28050  0.05530  1.0000
  C   C24       1.0  0.94090  0.71950  0.05530  1.0000
  H   H9        1.0  0.48050  0.21840  0.52340  1.0000
  H   H10       1.0  0.51950  0.78160  0.52340  1.0000
  H   H11       1.0  0.01950  0.71840  0.52340  1.0000
  H   H12       1.0  0.98050  0.28160  0.52340  1.0000
  H   H13       1.0  0.48050  0.71840  0.02340  1.0000
  H   H14       1.0  0.51950  0.28160  0.02340  1.0000
  H   H15       1.0  0.01950  0.21840  0.02340  1.0000
  H   H16       1.0  0.98050  0.78160  0.02340  1.0000
  C   C25       1.0  0.47160  0.32990  0.64780  1.0000
  C   C26       1.0  0.52840  0.67010  0.64780  1.0000
  C   C27       1.0  0.02840  0.82990  0.64780  1.0000
  C   C28       1.0  0.97160  0.17010  0.64780  1.0000
  C   C29       1.0  0.47160  0.82990  0.14780  1.0000
  C   C30       1.0  0.52840  0.17010  0.14780  1.0000
  C   C31       1.0  0.02840  0.32990  0.14780  1.0000
  C   C32       1.0  0.97160  0.67010  0.14780  1.0000
  C   C33       1.0  0.17570  0.46750  0.48840  1.0000
  C   C34       1.0  0.82430  0.53250  0.48840  1.0000
  C   C35       1.0  0.32430  0.96750  0.48840  1.0000
  C   C36       1.0  0.67570  0.03250  0.48840  1.0000
  C   C37       1.0  0.17570  0.96750  0.98840  1.0000
  C   C38       1.0  0.82430  0.03250  0.98840  1.0000
  C   C39       1.0  0.32430  0.46750  0.98840  1.0000
  C   C40       1.0  0.67570  0.53250  0.98840  1.0000
  O   O1        1.0  0.12600  0.54770  0.52450  1.0000
  O   O2        1.0  0.87400  0.45230  0.52450  1.0000
  O   O3        1.0  0.37400  0.04770  0.52450  1.0000
  O   O4        1.0  0.62600  0.95230  0.52450  1.0000
  O   O5        1.0  0.12600  0.04770  0.02450  1.0000
  O   O6        1.0  0.87400  0.95230  0.02450  1.0000
  O   O7        1.0  0.37400  0.54770  0.02450  1.0000
  O   O8        1.0  0.62600  0.45230  0.02450  1.0000
  O   O9        1.0  0.14270  0.41920  0.40320  1.0000
  O   O10       1.0  0.85730  0.58080  0.40320  1.0000
  O   O11       1.0  0.35730  0.91920  0.40320  1.0000
  O   O12       1.0  0.64270  0.08080  0.40320  1.0000
  O   O13       1.0  0.14270  0.91920  0.90320  1.0000
  O   O14       1.0  0.85730  0.08080  0.90320  1.0000
  O   O15       1.0  0.35730  0.41920  0.90320  1.0000
  O   O16       1.0  0.64270  0.58080  0.90320  1.0000
  C   C41       1.0  0.57430  0.29030  0.71860  1.0000
  C   C42       1.0  0.42570  0.70970  0.71860  1.0000
  C   C43       1.0  0.92570  0.79030  0.71860  1.0000
  C   C44       1.0  0.07430  0.20970  0.71860  1.0000
  C   C45       1.0  0.57430  0.79030  0.21860  1.0000
  C   C46       1.0  0.42570  0.20970  0.21860  1.0000
  C   C47       1.0  0.92570  0.29030  0.21860  1.0000
  C   C48       1.0  0.07430  0.70970  0.21860  1.0000
  O   O17       1.0  0.60220  0.35160  0.79590  1.0000
  O   O18       1.0  0.39780  0.64840  0.79590  1.0000
  O   O19       1.0  0.89780  0.85160  0.79590  1.0000
  O   O20       1.0  0.10220  0.14840  0.79590  1.0000
  O   O21       1.0  0.60220  0.85160  0.29590  1.0000
  O   O22       1.0  0.39780  0.14840  0.29590  1.0000
  O   O23       1.0  0.89780  0.35160  0.29590  1.0000
  O   O24       1.0  0.10220  0.64840  0.29590  1.0000
  O   O25       1.0  0.62410  0.20230  0.69760  1.0000
  O   O26       1.0  0.37590  0.79770  0.69760  1.0000
  O   O27       1.0  0.87590  0.70230  0.69760  1.0000
  O   O28       1.0  0.12410  0.29770  0.69760  1.0000
  O   O29       1.0  0.62410  0.70230  0.19760  1.0000
  O   O30       1.0  0.37590  0.29770  0.19760  1.0000
  O   O31       1.0  0.87590  0.20230  0.19760  1.0000
  O   O32       1.0  0.12410  0.79770  0.19760  1.0000
