data_image0
_chemical_formula_structural       Zn6O36C18H18
_chemical_formula_sum              "Zn6 O36 C18 H18"
_cell_length_a       8.1913
_cell_length_b       8.1913
_cell_length_c       22.2659
_cell_angle_alpha    90
_cell_angle_beta     90
_cell_angle_gamma    120

_space_group_name_H-M_alt    "P 1"
_space_group_IT_number       1

loop_
  _space_group_symop_operation_xyz
  'x, y, z'

loop_
  _atom_site_type_symbol
  _atom_site_label
  _atom_site_symmetry_multiplicity
  _atom_site_fract_x
  _atom_site_fract_y
  _atom_site_fract_z
  _atom_site_occupancy
  Zn  Zn1       1.0  0.00000  0.00000  0.00000  1.0000
  Zn  Zn2       1.0  0.00000  0.00000  0.50000  1.0000
  Zn  Zn3       1.0  0.66667  0.33333  0.33333  1.0000
  Zn  Zn4       1.0  0.66667  0.33333  0.83333  1.0000
  Zn  Zn5       1.0  0.33333  0.66667  0.66667  1.0000
  Zn  Zn6       1.0  0.33333  0.66667  0.16667  1.0000
  O   O1        1.0  0.21600  0.20830  0.05362  1.0000
  O   O2        1.0  0.79170  0.00770  0.05362  1.0000
  O   O3        1.0  0.99230  0.78400  0.05362  1.0000
  O   O4        1.0  0.20830  0.21600  0.44638  1.0000
  O   O5        1.0  0.00770  0.79170  0.44638  1.0000
  O   O6        1.0  0.78400  0.99230  0.44638  1.0000
  O   O7        1.0  0.88267  0.54163  0.38695  1.0000
  O   O8        1.0  0.45837  0.34103  0.38695  1.0000
  O   O9        1.0  0.65897  0.11733  0.38695  1.0000
  O   O10       1.0  0.87497  0.54933  0.77971  1.0000
  O   O11       1.0  0.67437  0.12503  0.77971  1.0000
  O   O12       1.0  0.45067  0.32563  0.77971  1.0000
  O   O13       1.0  0.54933  0.87497  0.72029  1.0000
  O   O14       1.0  0.12503  0.67437  0.72029  1.0000
  O   O15       1.0  0.32563  0.45067  0.72029  1.0000
  O   O16       1.0  0.54163  0.88267  0.11305  1.0000
  O   O17       1.0  0.34103  0.45837  0.11305  1.0000
  O   O18       1.0  0.11733  0.65897  0.11305  1.0000
  O   O19       1.0  0.78400  0.79170  0.94638  1.0000
  O   O20       1.0  0.20830  0.99230  0.94638  1.0000
  O   O21       1.0  0.00770  0.21600  0.94638  1.0000
  O   O22       1.0  0.79170  0.78400  0.55362  1.0000
  O   O23       1.0  0.99230  0.20830  0.55362  1.0000
  O   O24       1.0  0.21600  0.00770  0.55362  1.0000
  O   O25       1.0  0.11733  0.45837  0.61305  1.0000
  O   O26       1.0  0.54163  0.65897  0.61305  1.0000
  O   O27       1.0  0.34103  0.88267  0.61305  1.0000
  O   O28       1.0  0.12503  0.45067  0.22029  1.0000
  O   O29       1.0  0.32563  0.87497  0.22029  1.0000
  O   O30       1.0  0.54933  0.67437  0.22029  1.0000
  O   O31       1.0  0.45067  0.12503  0.27971  1.0000
  O   O32       1.0  0.87497  0.32563  0.27971  1.0000
  O   O33       1.0  0.67437  0.54933  0.27971  1.0000
  O   O34       1.0  0.45837  0.11733  0.88695  1.0000
  O   O35       1.0  0.65897  0.54163  0.88695  1.0000
  O   O36       1.0  0.88267  0.34103  0.88695  1.0000
  C   C1        1.0  0.20930  0.33330  0.08330  1.0000
  C   C2        1.0  0.66670  0.87600  0.08330  1.0000
  C   C3        1.0  0.12400  0.79070  0.08330  1.0000
  C   C4        1.0  0.33330  0.20930  0.41670  1.0000
  C   C5        1.0  0.87600  0.66670  0.41670  1.0000
  C   C6        1.0  0.79070  0.12400  0.41670  1.0000
  C   C7        1.0  0.99997  0.54263  0.75003  1.0000
  C   C8        1.0  0.54267  0.00003  0.75003  1.0000
  C   C9        1.0  0.45737  0.45733  0.75003  1.0000
  C   C10       1.0  0.79070  0.66670  0.91670  1.0000
  C   C11       1.0  0.33330  0.12400  0.91670  1.0000
  C   C12       1.0  0.87600  0.20930  0.91670  1.0000
  C   C13       1.0  0.66670  0.79070  0.58330  1.0000
  C   C14       1.0  0.12400  0.33330  0.58330  1.0000
  C   C15       1.0  0.20930  0.87600  0.58330  1.0000
  C   C16       1.0  0.00003  0.45737  0.24997  1.0000
  C   C17       1.0  0.45733  0.99997  0.24997  1.0000
  C   C18       1.0  0.54263  0.54267  0.24997  1.0000
  H   H1        1.0  0.09580  0.33330  0.08330  1.0000
  H   H2        1.0  0.66670  0.76250  0.08330  1.0000
  H   H3        1.0  0.23750  0.90420  0.08330  1.0000
  H   H4        1.0  0.33330  0.09580  0.41670  1.0000
  H   H5        1.0  0.76250  0.66670  0.41670  1.0000
  H   H6        1.0  0.90420  0.23750  0.41670  1.0000
  H   H7        1.0  0.99997  0.42913  0.75003  1.0000
  H   H8        1.0  0.42917  0.00003  0.75003  1.0000
  H   H9        1.0  0.57087  0.57083  0.75003  1.0000
  H   H10       1.0  0.90420  0.66670  0.91670  1.0000
  H   H11       1.0  0.33330  0.23750  0.91670  1.0000
  H   H12       1.0  0.76250  0.09580  0.91670  1.0000
  H   H13       1.0  0.66670  0.90420  0.58330  1.0000
  H   H14       1.0  0.23750  0.33330  0.58330  1.0000
  H   H15       1.0  0.09580  0.76250  0.58330  1.0000
  H   H16       1.0  0.00003  0.57087  0.24997  1.0000
  H   H17       1.0  0.57083  0.99997  0.24997  1.0000
  H   H18       1.0  0.42913  0.42917  0.24997  1.0000
