data_image0
_chemical_formula_structural       Zn6O6P6O12C24O6C12H12C6H18C6H6C6H18C6H6C6H12C6H12P6H12O36Zn6C12H12C12H12C6H12C6H12O12
_chemical_formula_sum              "Zn12 O72 P12 C108 H144"
_cell_length_a       11.4033
_cell_length_b       11.4033
_cell_length_c       46.317
_cell_angle_alpha    90
_cell_angle_beta     90
_cell_angle_gamma    120

_space_group_name_H-M_alt    "P 1"
_space_group_IT_number       1

loop_
  _space_group_symop_operation_xyz
  'x, y, z'

loop_
  _atom_site_type_symbol
  _atom_site_label
  _atom_site_symmetry_multiplicity
  _atom_site_fract_x
  _atom_site_fract_y
  _atom_site_fract_z
  _atom_site_occupancy
  Zn  Zn1       1.0  0.35442  0.67413  0.57870  1.0000
  Zn  Zn2       1.0  0.32587  0.68029  0.24537  1.0000
  Zn  Zn3       1.0  0.31971  0.64558  0.91203  1.0000
  Zn  Zn4       1.0  0.64558  0.32587  0.07870  1.0000
  Zn  Zn5       1.0  0.67413  0.31971  0.74537  1.0000
  Zn  Zn6       1.0  0.68029  0.35442  0.41203  1.0000
  O   O1        1.0  0.27790  0.77030  0.55622  1.0000
  O   O2        1.0  0.22970  0.50760  0.22289  1.0000
  O   O3        1.0  0.49240  0.72210  0.88955  1.0000
  O   O4        1.0  0.72210  0.22970  0.05622  1.0000
  O   O5        1.0  0.77030  0.49240  0.72289  1.0000
  O   O6        1.0  0.50760  0.27790  0.38955  1.0000
  P   P1        1.0  0.34455  0.65850  0.62936  1.0000
  P   P2        1.0  0.34150  0.68605  0.29603  1.0000
  P   P3        1.0  0.31395  0.65545  0.96269  1.0000
  P   P4        1.0  0.65545  0.34150  0.12936  1.0000
  P   P5        1.0  0.65850  0.31395  0.79603  1.0000
  P   P6        1.0  0.68605  0.34455  0.46269  1.0000
  O   O7        1.0  0.53630  0.75910  0.55992  1.0000
  O   O8        1.0  0.24090  0.77720  0.22659  1.0000
  O   O9        1.0  0.22280  0.46370  0.89325  1.0000
  O   O10       1.0  0.46370  0.24090  0.05992  1.0000
  O   O11       1.0  0.75910  0.22280  0.72659  1.0000
  O   O12       1.0  0.77720  0.53630  0.39325  1.0000
  O   O13       1.0  0.26630  0.48930  0.56185  1.0000
  O   O14       1.0  0.51070  0.77700  0.22852  1.0000
  O   O15       1.0  0.22300  0.73370  0.89518  1.0000
  O   O16       1.0  0.73370  0.51070  0.06185  1.0000
  O   O17       1.0  0.48930  0.22300  0.72852  1.0000
  O   O18       1.0  0.77700  0.26630  0.39518  1.0000
  C   C1        1.0  0.30190  0.88450  0.56622  1.0000
  C   C2        1.0  0.11550  0.41740  0.23289  1.0000
  C   C3        1.0  0.58260  0.69810  0.89955  1.0000
  C   C4        1.0  0.69810  0.11550  0.06622  1.0000
  C   C5        1.0  0.88450  0.58260  0.73289  1.0000
  C   C6        1.0  0.41740  0.30190  0.39955  1.0000
  C   C7        1.0  0.50030  0.69500  0.64734  1.0000
  C   C8        1.0  0.30500  0.80530  0.31401  1.0000
  C   C9        1.0  0.19470  0.49970  0.98067  1.0000
  C   C10       1.0  0.49970  0.30500  0.14734  1.0000
  C   C11       1.0  0.69500  0.19470  0.81401  1.0000
  C   C12       1.0  0.80530  0.50030  0.48067  1.0000
  C   C13       1.0  0.22240  0.49350  0.64406  1.0000
  C   C14       1.0  0.50650  0.72890  0.31073  1.0000
  C   C15       1.0  0.27110  0.77760  0.97739  1.0000
  C   C16       1.0  0.77760  0.50650  0.14406  1.0000
  C   C17       1.0  0.49350  0.27110  0.81073  1.0000
  C   C18       1.0  0.72890  0.22240  0.47739  1.0000
  C   C19       1.0  0.29960  0.77170  0.64723  1.0000
  C   C20       1.0  0.22830  0.52790  0.31390  1.0000
  C   C21       1.0  0.47210  0.70040  0.98056  1.0000
  C   C22       1.0  0.70040  0.22830  0.14723  1.0000
  C   C23       1.0  0.77170  0.47210  0.81390  1.0000
  C   C24       1.0  0.52790  0.29960  0.48056  1.0000
  O   O19       1.0  0.37510  0.93900  0.58802  1.0000
  O   O20       1.0  0.06100  0.43610  0.25469  1.0000
  O   O21       1.0  0.56390  0.62490  0.92135  1.0000
  O   O22       1.0  0.62490  0.06100  0.08802  1.0000
  O   O23       1.0  0.93900  0.56390  0.75469  1.0000
  O   O24       1.0  0.43610  0.37510  0.42135  1.0000
  C   C25       1.0  0.23470  0.95430  0.55131  1.0000
  C   C26       1.0  0.04570  0.28040  0.21798  1.0000
  C   C27       1.0  0.71960  0.76530  0.88464  1.0000
  C   C28       1.0  0.76530  0.04570  0.05131  1.0000
  C   C29       1.0  0.95430  0.71960  0.71798  1.0000
  C   C30       1.0  0.28040  0.23470  0.38464  1.0000
  C   C31       1.0  0.61260  0.83990  0.64271  1.0000
  C   C32       1.0  0.16010  0.77270  0.30938  1.0000
  C   C33       1.0  0.22730  0.38740  0.97604  1.0000
  C   C34       1.0  0.38740  0.16010  0.14271  1.0000
  C   C35       1.0  0.83990  0.22730  0.80938  1.0000
  C   C36       1.0  0.77270  0.61260  0.47604  1.0000
  H   H1        1.0  0.53027  0.63270  0.63999  1.0000
  H   H2        1.0  0.36730  0.89757  0.30666  1.0000
  H   H3        1.0  0.10243  0.46973  0.97332  1.0000
  H   H4        1.0  0.46973  0.36730  0.13999  1.0000
  H   H5        1.0  0.63270  0.10243  0.80666  1.0000
  H   H6        1.0  0.89757  0.53027  0.47332  1.0000
  H   H7        1.0  0.48295  0.67830  0.66830  1.0000
  H   H8        1.0  0.32170  0.80465  0.33497  1.0000
  H   H9        1.0  0.19535  0.51705  0.00163  1.0000
  H   H10       1.0  0.51705  0.32170  0.16830  1.0000
  H   H11       1.0  0.67830  0.19535  0.83497  1.0000
  H   H12       1.0  0.80465  0.48295  0.50163  1.0000
  C   C37       1.0  0.25800  0.38420  0.63874  1.0000
  C   C38       1.0  0.61580  0.87380  0.30541  1.0000
  C   C39       1.0  0.12620  0.74200  0.97207  1.0000
  C   C40       1.0  0.74200  0.61580  0.13874  1.0000
  C   C41       1.0  0.38420  0.12620  0.80541  1.0000
  C   C42       1.0  0.87380  0.25800  0.47207  1.0000
  H   H13       1.0  0.13262  0.46482  0.63543  1.0000
  H   H14       1.0  0.53518  0.66780  0.30210  1.0000
  H   H15       1.0  0.33220  0.86738  0.96876  1.0000
  H   H16       1.0  0.86738  0.53518  0.13543  1.0000
  H   H17       1.0  0.46482  0.33220  0.80210  1.0000
  H   H18       1.0  0.66780  0.13262  0.46876  1.0000
  H   H19       1.0  0.21488  0.50272  0.66513  1.0000
  H   H20       1.0  0.49728  0.71216  0.33180  1.0000
  H   H21       1.0  0.28784  0.78512  0.99846  1.0000
  H   H22       1.0  0.78512  0.49728  0.16513  1.0000
  H   H23       1.0  0.50272  0.28784  0.83180  1.0000
  H   H24       1.0  0.71216  0.21488  0.49846  1.0000
  H   H25       1.0  0.30599  0.76378  0.66838  1.0000
  H   H26       1.0  0.23622  0.54221  0.33505  1.0000
  H   H27       1.0  0.45779  0.69401  0.00171  1.0000
  H   H28       1.0  0.69401  0.23622  0.16838  1.0000
  H   H29       1.0  0.76378  0.45779  0.83505  1.0000
  H   H30       1.0  0.54221  0.30599  0.50171  1.0000
  C   C43       1.0  0.15740  0.74140  0.63961  1.0000
  C   C44       1.0  0.25860  0.41600  0.30628  1.0000
  C   C45       1.0  0.58400  0.84260  0.97294  1.0000
  C   C46       1.0  0.84260  0.25860  0.13961  1.0000
  C   C47       1.0  0.74140  0.58400  0.80628  1.0000
  C   C48       1.0  0.41600  0.15740  0.47294  1.0000
  H   H31       1.0  0.36527  0.86616  0.64167  1.0000
  H   H32       1.0  0.13384  0.49911  0.30834  1.0000
  H   H33       1.0  0.50089  0.63473  0.97500  1.0000
  H   H34       1.0  0.63473  0.13384  0.14167  1.0000
  H   H35       1.0  0.86616  0.50089  0.80834  1.0000
  H   H36       1.0  0.49911  0.36527  0.47500  1.0000
  C   C49       1.0  0.10640  0.92870  0.56722  1.0000
  C   C50       1.0  0.07130  0.17770  0.23389  1.0000
  C   C51       1.0  0.82230  0.89360  0.90055  1.0000
  C   C52       1.0  0.89360  0.07130  0.06722  1.0000
  C   C53       1.0  0.92870  0.82230  0.73389  1.0000
  C   C54       1.0  0.17770  0.10640  0.40055  1.0000
  H   H37       1.0  0.21127  0.92052  0.53126  1.0000
  H   H38       1.0  0.07948  0.29075  0.19793  1.0000
  H   H39       1.0  0.70925  0.78873  0.86459  1.0000
  H   H40       1.0  0.78873  0.07948  0.03126  1.0000
  H   H41       1.0  0.92052  0.70925  0.69793  1.0000
  H   H42       1.0  0.29075  0.21127  0.36459  1.0000
  H   H43       1.0  0.29915  0.05299  0.55048  1.0000
  H   H44       1.0  0.94701  0.24616  0.21715  1.0000
  H   H45       1.0  0.75384  0.70085  0.88381  1.0000
  H   H46       1.0  0.70085  0.94701  0.05048  1.0000
  H   H47       1.0  0.05299  0.75384  0.71715  1.0000
  H   H48       1.0  0.24616  0.29915  0.38381  1.0000
  H   H49       1.0  0.62436  0.85907  0.62173  1.0000
  H   H50       1.0  0.14093  0.76529  0.28840  1.0000
  H   H51       1.0  0.23471  0.37564  0.95506  1.0000
  H   H52       1.0  0.37564  0.14093  0.12173  1.0000
  H   H53       1.0  0.85907  0.23471  0.78840  1.0000
  H   H54       1.0  0.76529  0.62436  0.45506  1.0000
  C   C55       1.0  0.74660  0.86780  0.65550  1.0000
  C   C56       1.0  0.13220  0.87880  0.32217  1.0000
  C   C57       1.0  0.12120  0.25340  0.98883  1.0000
  C   C58       1.0  0.25340  0.13220  0.15550  1.0000
  C   C59       1.0  0.86780  0.12120  0.82217  1.0000
  C   C60       1.0  0.87880  0.74660  0.48883  1.0000
  H   H55       1.0  0.58586  0.90205  0.65159  1.0000
  H   H56       1.0  0.09795  0.68381  0.31826  1.0000
  H   H57       1.0  0.31619  0.41414  0.98492  1.0000
  H   H58       1.0  0.41414  0.09795  0.15159  1.0000
  H   H59       1.0  0.90205  0.31619  0.81826  1.0000
  H   H60       1.0  0.68381  0.58586  0.48492  1.0000
  C   C61       1.0  0.15750  0.25030  0.65243  1.0000
  C   C62       1.0  0.74970  0.90720  0.31910  1.0000
  C   C63       1.0  0.09280  0.84250  0.98576  1.0000
  C   C64       1.0  0.84250  0.74970  0.15243  1.0000
  C   C65       1.0  0.25030  0.09280  0.81910  1.0000
  C   C66       1.0  0.90720  0.15750  0.48576  1.0000
  H   H61       1.0  0.26096  0.37126  0.61767  1.0000
  H   H62       1.0  0.62874  0.88970  0.28434  1.0000
  H   H63       1.0  0.11030  0.73904  0.95100  1.0000
  H   H64       1.0  0.73904  0.62874  0.11767  1.0000
  H   H65       1.0  0.37126  0.11030  0.78434  1.0000
  H   H66       1.0  0.88970  0.26096  0.45100  1.0000
  H   H67       1.0  0.34932  0.41400  0.64663  1.0000
  H   H68       1.0  0.58600  0.93532  0.31330  1.0000
  H   H69       1.0  0.06468  0.65068  0.97996  1.0000
  H   H70       1.0  0.65068  0.58600  0.14663  1.0000
  H   H71       1.0  0.41400  0.06468  0.81330  1.0000
  H   H72       1.0  0.93532  0.34932  0.47996  1.0000
  C   C67       1.0  0.12730  0.84410  0.65308  1.0000
  C   C68       1.0  0.15590  0.28320  0.31975  1.0000
  C   C69       1.0  0.71680  0.87270  0.98641  1.0000
  C   C70       1.0  0.87270  0.15590  0.15308  1.0000
  C   C71       1.0  0.84410  0.71680  0.81975  1.0000
  C   C72       1.0  0.28320  0.12730  0.48641  1.0000
  H   H73       1.0  0.14847  0.74282  0.61836  1.0000
  H   H74       1.0  0.25718  0.40565  0.28503  1.0000
  H   H75       1.0  0.59435  0.85153  0.95169  1.0000
  H   H76       1.0  0.85153  0.25718  0.11836  1.0000
  H   H77       1.0  0.74282  0.59435  0.78503  1.0000
  H   H78       1.0  0.40565  0.14847  0.45169  1.0000
  H   H79       1.0  0.09069  0.64968  0.64655  1.0000
  H   H80       1.0  0.35032  0.44101  0.31322  1.0000
  H   H81       1.0  0.55899  0.90931  0.97988  1.0000
  H   H82       1.0  0.90931  0.35032  0.14655  1.0000
  H   H83       1.0  0.64968  0.55899  0.81322  1.0000
  H   H84       1.0  0.44101  0.09069  0.47988  1.0000
  P   P7        1.0  0.02303  0.01411  0.55070  1.0000
  P   P8        1.0  0.98589  0.00892  0.21737  1.0000
  P   P9        1.0  0.99108  0.97697  0.88403  1.0000
  P   P10       1.0  0.97697  0.98589  0.05070  1.0000
  P   P11       1.0  0.01411  0.99108  0.71737  1.0000
  P   P12       1.0  0.00892  0.02303  0.38403  1.0000
  H   H85       1.0  0.13016  0.96004  0.58743  1.0000
  H   H86       1.0  0.03996  0.17012  0.25410  1.0000
  H   H87       1.0  0.82988  0.86984  0.92076  1.0000
  H   H88       1.0  0.86984  0.03996  0.08743  1.0000
  H   H89       1.0  0.96004  0.82988  0.75410  1.0000
  H   H90       1.0  0.17012  0.13016  0.42076  1.0000
  H   H91       1.0  0.04188  0.83004  0.56766  1.0000
  H   H92       1.0  0.16996  0.21184  0.23433  1.0000
  H   H93       1.0  0.78816  0.95812  0.90099  1.0000
  H   H94       1.0  0.95812  0.16996  0.06766  1.0000
  H   H95       1.0  0.83004  0.78816  0.73433  1.0000
  H   H96       1.0  0.21184  0.04188  0.40099  1.0000
  O   O25       1.0  0.85110  0.97600  0.64706  1.0000
  O   O26       1.0  0.02400  0.87510  0.31373  1.0000
  O   O27       1.0  0.12490  0.14890  0.98039  1.0000
  O   O28       1.0  0.14890  0.02400  0.14706  1.0000
  O   O29       1.0  0.97600  0.12490  0.81373  1.0000
  O   O30       1.0  0.87510  0.85110  0.48039  1.0000
  O   O31       1.0  0.75180  0.78970  0.67337  1.0000
  O   O32       1.0  0.21030  0.96210  0.34004  1.0000
  O   O33       1.0  0.03790  0.24820  0.00670  1.0000
  O   O34       1.0  0.24820  0.21030  0.17337  1.0000
  O   O35       1.0  0.78970  0.03790  0.84004  1.0000
  O   O36       1.0  0.96210  0.75180  0.50670  1.0000
  O   O37       1.0  0.07510  0.24390  0.67076  1.0000
  O   O38       1.0  0.75610  0.83120  0.33743  1.0000
  O   O39       1.0  0.16880  0.92490  0.00409  1.0000
  O   O40       1.0  0.92490  0.75610  0.17076  1.0000
  O   O41       1.0  0.24390  0.16880  0.83743  1.0000
  O   O42       1.0  0.83120  0.07510  0.50409  1.0000
  O   O43       1.0  0.16470  0.14750  0.64462  1.0000
  O   O44       1.0  0.85250  0.01720  0.31129  1.0000
  O   O45       1.0  0.98280  0.83530  0.97795  1.0000
  O   O46       1.0  0.83530  0.85250  0.14462  1.0000
  O   O47       1.0  0.14750  0.98280  0.81129  1.0000
  O   O48       1.0  0.01720  0.16470  0.47795  1.0000
  O   O49       1.0  0.02060  0.84270  0.64438  1.0000
  O   O50       1.0  0.15730  0.17790  0.31105  1.0000
  O   O51       1.0  0.82210  0.97940  0.97771  1.0000
  O   O52       1.0  0.97940  0.15730  0.14438  1.0000
  O   O53       1.0  0.84270  0.82210  0.81105  1.0000
  O   O54       1.0  0.17790  0.02060  0.47771  1.0000
  O   O55       1.0  0.20180  0.92280  0.67250  1.0000
  O   O56       1.0  0.07720  0.27900  0.33917  1.0000
  O   O57       1.0  0.72100  0.79820  0.00583  1.0000
  O   O58       1.0  0.79820  0.07720  0.17250  1.0000
  O   O59       1.0  0.92280  0.72100  0.83917  1.0000
  O   O60       1.0  0.27900  0.20180  0.50583  1.0000
  Zn  Zn7       1.0  0.02325  0.01456  0.49967  1.0000
  Zn  Zn8       1.0  0.98544  0.00869  0.16634  1.0000
  Zn  Zn9       1.0  0.99131  0.97675  0.83300  1.0000
  Zn  Zn10      1.0  0.97675  0.98544  0.99967  1.0000
  Zn  Zn11      1.0  0.01456  0.99131  0.66634  1.0000
  Zn  Zn12      1.0  0.00869  0.02325  0.33300  1.0000
  C   C73       1.0  0.85470  0.93120  0.56708  1.0000
  C   C74       1.0  0.06880  0.92350  0.23375  1.0000
  C   C75       1.0  0.07650  0.14530  0.90041  1.0000
  C   C76       1.0  0.14530  0.06880  0.06708  1.0000
  C   C77       1.0  0.93120  0.07650  0.73375  1.0000
  C   C78       1.0  0.92350  0.85470  0.40041  1.0000
  C   C79       1.0  0.10830  0.18240  0.56688  1.0000
  C   C80       1.0  0.81760  0.92590  0.23355  1.0000
  C   C81       1.0  0.07410  0.89170  0.90021  1.0000
  C   C82       1.0  0.89170  0.81760  0.06688  1.0000
  C   C83       1.0  0.18240  0.07410  0.73355  1.0000
  C   C84       1.0  0.92590  0.10830  0.40021  1.0000
  H   H97       1.0  0.86327  0.91883  0.58798  1.0000
  H   H98       1.0  0.08117  0.94444  0.25465  1.0000
  H   H99       1.0  0.05556  0.13673  0.92131  1.0000
  H   H100      1.0  0.13673  0.08117  0.08798  1.0000
  H   H101      1.0  0.91883  0.05556  0.75465  1.0000
  H   H102      1.0  0.94444  0.86327  0.42131  1.0000
  H   H103      1.0  0.81502  0.99068  0.56498  1.0000
  H   H104      1.0  0.00932  0.82434  0.23165  1.0000
  H   H105      1.0  0.17566  0.18498  0.89831  1.0000
  H   H106      1.0  0.18498  0.00932  0.06498  1.0000
  H   H107      1.0  0.99068  0.17566  0.73165  1.0000
  H   H108      1.0  0.82434  0.81502  0.39831  1.0000
  C   C85       1.0  0.75840  0.79280  0.55343  1.0000
  C   C86       1.0  0.20720  0.96560  0.22010  1.0000
  C   C87       1.0  0.03440  0.24160  0.88676  1.0000
  C   C88       1.0  0.24160  0.20720  0.05343  1.0000
  C   C89       1.0  0.79280  0.03440  0.72010  1.0000
  C   C90       1.0  0.96560  0.75840  0.38676  1.0000
  C   C91       1.0  0.06430  0.27830  0.55350  1.0000
  C   C92       1.0  0.72170  0.78600  0.22017  1.0000
  C   C93       1.0  0.21400  0.93570  0.88683  1.0000
  C   C94       1.0  0.93570  0.72170  0.05350  1.0000
  C   C95       1.0  0.27830  0.21400  0.72017  1.0000
  C   C96       1.0  0.78600  0.06430  0.38683  1.0000
  H   H109      1.0  0.08878  0.17399  0.58784  1.0000
  H   H110      1.0  0.82601  0.91479  0.25451  1.0000
  H   H111      1.0  0.08521  0.91122  0.92117  1.0000
  H   H112      1.0  0.91122  0.82601  0.08784  1.0000
  H   H113      1.0  0.17399  0.08521  0.75451  1.0000
  H   H114      1.0  0.91479  0.08878  0.42117  1.0000
  H   H115      1.0  0.20732  0.22263  0.56445  1.0000
  H   H116      1.0  0.77737  0.98469  0.23112  1.0000
  H   H117      1.0  0.01531  0.79268  0.89778  1.0000
  H   H118      1.0  0.79268  0.77737  0.06445  1.0000
  H   H119      1.0  0.22263  0.01531  0.73112  1.0000
  H   H120      1.0  0.98469  0.20732  0.39778  1.0000
  C   C97       1.0  0.62190  0.72450  0.56811  1.0000
  C   C98       1.0  0.27550  0.89740  0.23478  1.0000
  C   C99       1.0  0.10260  0.37810  0.90144  1.0000
  C   C100      1.0  0.37810  0.27550  0.06811  1.0000
  C   C101      1.0  0.72450  0.10260  0.73478  1.0000
  C   C102      1.0  0.89740  0.62190  0.40144  1.0000
  H   H121      1.0  0.74650  0.80524  0.53269  1.0000
  H   H122      1.0  0.19476  0.94126  0.19936  1.0000
  H   H123      1.0  0.05874  0.25350  0.86602  1.0000
  H   H124      1.0  0.25350  0.19476  0.03269  1.0000
  H   H125      1.0  0.80524  0.05874  0.69936  1.0000
  H   H126      1.0  0.94126  0.74650  0.36602  1.0000
  H   H127      1.0  0.79910  0.73404  0.55491  1.0000
  H   H128      1.0  0.26596  0.06506  0.22158  1.0000
  H   H129      1.0  0.93494  0.20090  0.88824  1.0000
  H   H130      1.0  0.20090  0.26596  0.05491  1.0000
  H   H131      1.0  0.73404  0.93494  0.72158  1.0000
  H   H132      1.0  0.06506  0.79910  0.38824  1.0000
  C   C103      1.0  0.13770  0.41900  0.56615  1.0000
  C   C104      1.0  0.58100  0.71870  0.23282  1.0000
  C   C105      1.0  0.28130  0.86230  0.89948  1.0000
  C   C106      1.0  0.86230  0.58100  0.06615  1.0000
  C   C107      1.0  0.41900  0.28130  0.73282  1.0000
  C   C108      1.0  0.71870  0.13770  0.39948  1.0000
  H   H133      1.0  0.08106  0.28427  0.53244  1.0000
  H   H134      1.0  0.71573  0.79679  0.19911  1.0000
  H   H135      1.0  0.20321  0.91894  0.86577  1.0000
  H   H136      1.0  0.91894  0.71573  0.03244  1.0000
  H   H137      1.0  0.28427  0.20321  0.69911  1.0000
  H   H138      1.0  0.79679  0.08106  0.36577  1.0000
  H   H139      1.0  0.96580  0.23942  0.55649  1.0000
  H   H140      1.0  0.76058  0.72638  0.22316  1.0000
  H   H141      1.0  0.27362  0.03420  0.88982  1.0000
  H   H142      1.0  0.03420  0.76058  0.05649  1.0000
  H   H143      1.0  0.23942  0.27362  0.72316  1.0000
  H   H144      1.0  0.72638  0.96580  0.38982  1.0000
  O   O61       1.0  0.59810  0.64190  0.58807  1.0000
  O   O62       1.0  0.35810  0.95620  0.25474  1.0000
  O   O63       1.0  0.04380  0.40190  0.92140  1.0000
  O   O64       1.0  0.40190  0.35810  0.08807  1.0000
  O   O65       1.0  0.64190  0.04380  0.75474  1.0000
  O   O66       1.0  0.95620  0.59810  0.42140  1.0000
  O   O67       1.0  0.07760  0.46690  0.57966  1.0000
  O   O68       1.0  0.53310  0.61070  0.24633  1.0000
  O   O69       1.0  0.38930  0.92240  0.91299  1.0000
  O   O70       1.0  0.92240  0.53310  0.07966  1.0000
  O   O71       1.0  0.46690  0.38930  0.74633  1.0000
  O   O72       1.0  0.61070  0.07760  0.41299  1.0000
