data_image0
_chemical_formula_structural       Zn4P4O8C4O12C4H8
_chemical_formula_sum              "Zn4 P4 O20 C8 H8"
_cell_length_a       9.5524
_cell_length_b       12.5921
_cell_length_c       5.1876
_cell_angle_alpha    90
_cell_angle_beta     90
_cell_angle_gamma    90

_space_group_name_H-M_alt    "P 1"
_space_group_IT_number       1

loop_
  _space_group_symop_operation_xyz
  'x, y, z'

loop_
  _atom_site_type_symbol
  _atom_site_label
  _atom_site_symmetry_multiplicity
  _atom_site_fract_x
  _atom_site_fract_y
  _atom_site_fract_z
  _atom_site_occupancy
  Zn  Zn1       1.0  0.10731  0.61520  0.27072  1.0000
  Zn  Zn2       1.0  0.89269  0.38480  0.77072  1.0000
  Zn  Zn3       1.0  0.60731  0.88480  0.27072  1.0000
  Zn  Zn4       1.0  0.39269  0.11520  0.77072  1.0000
  P   P1        1.0  0.30323  0.99520  0.27010  1.0000
  P   P2        1.0  0.69677  0.00480  0.77010  1.0000
  P   P3        1.0  0.80323  0.50480  0.27010  1.0000
  P   P4        1.0  0.19677  0.49520  0.77010  1.0000
  O   O1        1.0  0.13690  0.75790  0.13650  1.0000
  O   O2        1.0  0.86310  0.24210  0.63650  1.0000
  O   O3        1.0  0.63690  0.74210  0.13650  1.0000
  O   O4        1.0  0.36310  0.25790  0.63650  1.0000
  O   O5        1.0  0.40820  0.90720  0.21120  1.0000
  O   O6        1.0  0.59180  0.09280  0.71120  1.0000
  O   O7        1.0  0.90820  0.59280  0.21120  1.0000
  O   O8        1.0  0.09180  0.40720  0.71120  1.0000
  C   C1        1.0  0.10180  0.83870  0.27030  1.0000
  C   C2        1.0  0.89820  0.16130  0.77030  1.0000
  C   C3        1.0  0.60180  0.66130  0.27030  1.0000
  C   C4        1.0  0.39820  0.33870  0.77030  1.0000
  O   O9        1.0  0.29030  0.01420  0.55810  1.0000
  O   O10       1.0  0.70970  0.98580  0.05810  1.0000
  O   O11       1.0  0.79030  0.48580  0.55810  1.0000
  O   O12       1.0  0.20970  0.51420  0.05810  1.0000
  O   O13       1.0  0.33580  0.09804  0.12800  1.0000
  O   O14       1.0  0.66420  0.90196  0.62800  1.0000
  O   O15       1.0  0.83580  0.40196  0.12800  1.0000
  O   O16       1.0  0.16420  0.59804  0.62800  1.0000
  O   O17       1.0  0.05220  0.83270  0.48760  1.0000
  O   O18       1.0  0.94780  0.16730  0.98760  1.0000
  O   O19       1.0  0.55220  0.66730  0.48760  1.0000
  O   O20       1.0  0.44780  0.33270  0.98760  1.0000
  C   C5        1.0  0.13710  0.94600  0.15630  1.0000
  C   C6        1.0  0.86290  0.05400  0.65630  1.0000
  C   C7        1.0  0.63710  0.55400  0.15630  1.0000
  C   C8        1.0  0.36290  0.44600  0.65630  1.0000
  H   H1        1.0  0.06410  0.99630  0.20130  1.0000
  H   H2        1.0  0.93590  0.00370  0.70130  1.0000
  H   H3        1.0  0.56410  0.50370  0.20130  1.0000
  H   H4        1.0  0.43590  0.49630  0.70130  1.0000
  H   H5        1.0  0.13970  0.94030  0.96990  1.0000
  H   H6        1.0  0.86030  0.05970  0.46990  1.0000
  H   H7        1.0  0.63970  0.55970  0.96990  1.0000
  H   H8        1.0  0.36030  0.44030  0.46990  1.0000
