data_image0
_chemical_formula_structural       Ga4P6F2O18C2H4C2H4C2H4
_chemical_formula_sum              "Ga4 P6 F2 O18 C6 H12"
_cell_length_a       8.67
_cell_length_b       9.742
_cell_length_c       10.406
_cell_angle_alpha    81.44
_cell_angle_beta     65.83
_cell_angle_gamma    67.16

_space_group_name_H-M_alt    "P 1"
_space_group_IT_number       1

loop_
  _space_group_symop_operation_xyz
  'x, y, z'

loop_
  _atom_site_type_symbol
  _atom_site_label
  _atom_site_symmetry_multiplicity
  _atom_site_fract_x
  _atom_site_fract_y
  _atom_site_fract_z
  _atom_site_occupancy
  Ga  Ga1       1.0  0.13242  0.14930  0.86246  1.0000
  Ga  Ga2       1.0  0.86758  0.85070  0.13754  1.0000
  Ga  Ga3       1.0  0.11989  0.54631  0.84910  1.0000
  Ga  Ga4       1.0  0.88011  0.45369  0.15090  1.0000
  P   P1        1.0  0.24120  0.80290  0.88240  1.0000
  P   P2        1.0  0.75880  0.19710  0.11760  1.0000
  P   P3        1.0  0.19940  0.35790  0.59080  1.0000
  P   P4        1.0  0.80060  0.64210  0.40920  1.0000
  P   P5        1.0  0.71230  0.71930  0.99010  1.0000
  P   P6        1.0  0.28770  0.28070  0.00990  1.0000
  F   F1        1.0  0.00100  0.39280  0.93710  1.0000
  F   F2        1.0  0.99900  0.60720  0.06290  1.0000
  O   O1        1.0  0.24000  0.94810  0.80190  1.0000
  O   O2        1.0  0.76000  0.05190  0.19810  1.0000
  O   O3        1.0  0.10390  0.84030  0.03650  1.0000
  O   O4        1.0  0.89610  0.15970  0.96350  1.0000
  O   O5        1.0  0.20180  0.70820  0.80520  1.0000
  O   O6        1.0  0.79820  0.29180  0.19480  1.0000
  O   O7        1.0  0.71460  0.84980  0.05680  1.0000
  O   O8        1.0  0.28540  0.15020  0.94320  1.0000
  O   O9        1.0  0.68880  0.59350  0.09650  1.0000
  O   O10       1.0  0.31120  0.40650  0.90350  1.0000
  O   O11       1.0  0.87950  0.66530  0.85340  1.0000
  O   O12       1.0  0.12050  0.33470  0.14660  1.0000
  O   O13       1.0  0.36230  0.30430  0.45550  1.0000
  O   O14       1.0  0.63770  0.69570  0.54450  1.0000
  O   O15       1.0  0.17220  0.22490  0.68720  1.0000
  O   O16       1.0  0.82780  0.77510  0.31280  1.0000
  O   O17       1.0  0.21470  0.47430  0.66540  1.0000
  O   O18       1.0  0.78530  0.52570  0.33460  1.0000
  C   C1        1.0  0.51330  0.80510  0.95150  1.0000
  C   C2        1.0  0.48670  0.19490  0.04850  1.0000
  H   H1        1.0  0.41030  0.85080  0.03970  1.0000
  H   H2        1.0  0.58970  0.14920  0.96030  1.0000
  H   H3        1.0  0.52980  0.88700  0.88490  1.0000
  H   H4        1.0  0.47020  0.11300  0.11510  1.0000
  C   C3        1.0  0.99570  0.44030  0.55610  1.0000
  C   C4        1.0  0.00430  0.55970  0.44390  1.0000
  H   H5        1.0  0.97280  0.36110  0.52550  1.0000
  H   H6        1.0  0.02720  0.63890  0.47450  1.0000
  H   H7        1.0  0.89230  0.48480  0.64450  1.0000
  H   H8        1.0  0.10770  0.51520  0.35550  1.0000
  C   C5        1.0  0.45860  0.70630  0.88900  1.0000
  C   C6        1.0  0.54140  0.29370  0.11100  1.0000
  H   H9        1.0  0.45730  0.61620  0.94720  1.0000
  H   H10       1.0  0.54270  0.38380  0.05280  1.0000
  H   H11       1.0  0.54960  0.67380  0.79270  1.0000
  H   H12       1.0  0.45040  0.32620  0.20730  1.0000
