data_image0
_chemical_formula_structural       U8O64C16H16C8H16C8H16C8H16C8H16C8H16C8H16C8H16C8H16C8H16C8H16C8H16C8H16C24H16C8H16C8H16C8H16C8H16C8H16C4H8
_chemical_formula_sum              "U8 O64 C180 H312"
_cell_length_a       33.683
_cell_length_b       13.1767
_cell_length_c       16.5993
_cell_angle_alpha    90
_cell_angle_beta     108.896
_cell_angle_gamma    90

_space_group_name_H-M_alt    "P 1"
_space_group_IT_number       1

loop_
  _space_group_symop_operation_xyz
  'x, y, z'

loop_
  _atom_site_type_symbol
  _atom_site_label
  _atom_site_symmetry_multiplicity
  _atom_site_fract_x
  _atom_site_fract_y
  _atom_site_fract_z
  _atom_site_occupancy
  U   U1        1.0  0.25006  0.09948  0.86186  1.0000
  U   U2        1.0  0.74994  0.09948  0.63814  1.0000
  U   U3        1.0  0.75006  0.59948  0.86186  1.0000
  U   U4        1.0  0.24994  0.59948  0.63814  1.0000
  U   U5        1.0  0.74994  0.90052  0.13814  1.0000
  U   U6        1.0  0.25006  0.90052  0.36186  1.0000
  U   U7        1.0  0.24994  0.40052  0.13814  1.0000
  U   U8        1.0  0.75006  0.40052  0.36186  1.0000
  O   O1        1.0  0.21929  0.13490  0.92490  1.0000
  O   O2        1.0  0.78071  0.13490  0.57510  1.0000
  O   O3        1.0  0.71929  0.63490  0.92490  1.0000
  O   O4        1.0  0.28071  0.63490  0.57510  1.0000
  O   O5        1.0  0.78071  0.86510  0.07510  1.0000
  O   O6        1.0  0.21929  0.86510  0.42490  1.0000
  O   O7        1.0  0.28071  0.36510  0.07510  1.0000
  O   O8        1.0  0.71929  0.36510  0.42490  1.0000
  O   O9        1.0  0.28081  0.06180  0.79940  1.0000
  O   O10       1.0  0.71919  0.06180  0.70060  1.0000
  O   O11       1.0  0.78081  0.56180  0.79940  1.0000
  O   O12       1.0  0.21919  0.56180  0.70060  1.0000
  O   O13       1.0  0.71919  0.93820  0.20060  1.0000
  O   O14       1.0  0.28081  0.93820  0.29940  1.0000
  O   O15       1.0  0.21919  0.43820  0.20060  1.0000
  O   O16       1.0  0.78081  0.43820  0.29940  1.0000
  O   O17       1.0  0.30224  0.22830  0.92910  1.0000
  O   O18       1.0  0.69776  0.22830  0.57090  1.0000
  O   O19       1.0  0.80224  0.72830  0.92910  1.0000
  O   O20       1.0  0.19776  0.72830  0.57090  1.0000
  O   O21       1.0  0.69776  0.77170  0.07090  1.0000
  O   O22       1.0  0.30224  0.77170  0.42910  1.0000
  O   O23       1.0  0.19776  0.27170  0.07090  1.0000
  O   O24       1.0  0.80224  0.27170  0.42910  1.0000
  O   O25       1.0  0.31148  0.08020  0.99340  1.0000
  O   O26       1.0  0.68852  0.08020  0.50660  1.0000
  O   O27       1.0  0.81148  0.58020  0.99340  1.0000
  O   O28       1.0  0.18852  0.58020  0.50660  1.0000
  O   O29       1.0  0.68852  0.91980  0.00660  1.0000
  O   O30       1.0  0.31148  0.91980  0.49340  1.0000
  O   O31       1.0  0.18852  0.41980  0.00660  1.0000
  O   O32       1.0  0.81148  0.41980  0.49340  1.0000
  O   O33       1.0  0.75081  0.42680  0.91980  1.0000
  O   O34       1.0  0.24919  0.42680  0.58020  1.0000
  O   O35       1.0  0.25081  0.92680  0.91980  1.0000
  O   O36       1.0  0.74919  0.92680  0.58020  1.0000
  O   O37       1.0  0.24919  0.57320  0.08020  1.0000
  O   O38       1.0  0.75081  0.57320  0.41980  1.0000
  O   O39       1.0  0.74919  0.07320  0.08020  1.0000
  O   O40       1.0  0.25081  0.07320  0.41980  1.0000
  O   O41       1.0  0.70457  0.45610  0.79410  1.0000
  O   O42       1.0  0.29543  0.45610  0.70590  1.0000
  O   O43       1.0  0.20457  0.95610  0.79410  1.0000
  O   O44       1.0  0.79543  0.95610  0.70590  1.0000
  O   O45       1.0  0.29543  0.54390  0.20590  1.0000
  O   O46       1.0  0.70457  0.54390  0.29410  1.0000
  O   O47       1.0  0.79543  0.04390  0.20590  1.0000
  O   O48       1.0  0.20457  0.04390  0.29410  1.0000
  O   O49       1.0  0.19241  0.14670  0.73230  1.0000
  O   O50       1.0  0.80759  0.14670  0.76770  1.0000
  O   O51       1.0  0.69241  0.64670  0.73230  1.0000
  O   O52       1.0  0.30759  0.64670  0.76770  1.0000
  O   O53       1.0  0.80759  0.85330  0.26770  1.0000
  O   O54       1.0  0.19241  0.85330  0.23230  1.0000
  O   O55       1.0  0.30759  0.35330  0.26770  1.0000
  O   O56       1.0  0.69241  0.35330  0.23230  1.0000
  O   O57       1.0  0.23588  0.26780  0.79240  1.0000
  O   O58       1.0  0.76412  0.26780  0.70760  1.0000
  O   O59       1.0  0.73588  0.76780  0.79240  1.0000
  O   O60       1.0  0.26412  0.76780  0.70760  1.0000
  O   O61       1.0  0.76412  0.73220  0.20760  1.0000
  O   O62       1.0  0.23588  0.73220  0.29240  1.0000
  O   O63       1.0  0.26412  0.23220  0.20760  1.0000
  O   O64       1.0  0.73588  0.23220  0.29240  1.0000
  C   C1        1.0  0.32240  0.17150  0.99120  1.0000
  C   C2        1.0  0.67760  0.17150  0.50880  1.0000
  C   C3        1.0  0.82240  0.67150  0.99120  1.0000
  C   C4        1.0  0.17760  0.67150  0.50880  1.0000
  C   C5        1.0  0.67760  0.82850  0.00880  1.0000
  C   C6        1.0  0.32240  0.82850  0.49120  1.0000
  C   C7        1.0  0.17760  0.32850  0.00880  1.0000
  C   C8        1.0  0.82240  0.32850  0.49120  1.0000
  C   C9        1.0  0.35813  0.21820  0.06140  1.0000
  C   C10       1.0  0.64187  0.21820  0.43860  1.0000
  C   C11       1.0  0.85813  0.71820  0.06140  1.0000
  C   C12       1.0  0.14187  0.71820  0.43860  1.0000
  C   C13       1.0  0.64187  0.78180  0.93860  1.0000
  C   C14       1.0  0.35813  0.78180  0.56140  1.0000
  C   C15       1.0  0.14187  0.28180  0.93860  1.0000
  C   C16       1.0  0.85813  0.28180  0.56140  1.0000
  H   H1        1.0  0.37790  0.24860  0.03520  1.0000
  H   H2        1.0  0.62210  0.24860  0.46480  1.0000
  H   H3        1.0  0.87790  0.74860  0.03520  1.0000
  H   H4        1.0  0.12210  0.74860  0.46480  1.0000
  H   H5        1.0  0.62210  0.75140  0.96480  1.0000
  H   H6        1.0  0.37790  0.75140  0.53520  1.0000
  H   H7        1.0  0.12210  0.25140  0.96480  1.0000
  H   H8        1.0  0.87790  0.25140  0.53520  1.0000
  H   H9        1.0  0.34660  0.27430  0.08670  1.0000
  H   H10       1.0  0.65340  0.27430  0.41330  1.0000
  H   H11       1.0  0.84660  0.77430  0.08670  1.0000
  H   H12       1.0  0.15340  0.77430  0.41330  1.0000
  H   H13       1.0  0.65340  0.72570  0.91330  1.0000
  H   H14       1.0  0.34660  0.72570  0.58670  1.0000
  H   H15       1.0  0.15340  0.22570  0.91330  1.0000
  H   H16       1.0  0.84660  0.22570  0.58670  1.0000
  C   C17       1.0  0.38279  0.14990  0.13240  1.0000
  C   C18       1.0  0.61721  0.14990  0.36760  1.0000
  C   C19       1.0  0.88279  0.64990  0.13240  1.0000
  C   C20       1.0  0.11721  0.64990  0.36760  1.0000
  C   C21       1.0  0.61721  0.85010  0.86760  1.0000
  C   C22       1.0  0.38279  0.85010  0.63240  1.0000
  C   C23       1.0  0.11721  0.35010  0.86760  1.0000
  C   C24       1.0  0.88279  0.35010  0.63240  1.0000
  H   H17       1.0  0.39800  0.09900  0.10970  1.0000
  H   H18       1.0  0.60200  0.09900  0.39030  1.0000
  H   H19       1.0  0.89800  0.59900  0.10970  1.0000
  H   H20       1.0  0.10200  0.59900  0.39030  1.0000
  H   H21       1.0  0.60200  0.90100  0.89030  1.0000
  H   H22       1.0  0.39800  0.90100  0.60970  1.0000
  H   H23       1.0  0.10200  0.40100  0.89030  1.0000
  H   H24       1.0  0.89800  0.40100  0.60970  1.0000
  H   H25       1.0  0.36330  0.11320  0.15560  1.0000
  H   H26       1.0  0.63670  0.11320  0.34440  1.0000
  H   H27       1.0  0.86330  0.61320  0.15560  1.0000
  H   H28       1.0  0.13670  0.61320  0.34440  1.0000
  H   H29       1.0  0.63670  0.88680  0.84440  1.0000
  H   H30       1.0  0.36330  0.88680  0.65560  1.0000
  H   H31       1.0  0.13670  0.38680  0.84440  1.0000
  H   H32       1.0  0.86330  0.38680  0.65560  1.0000
  C   C25       1.0  0.41435  0.20970  0.20420  1.0000
  C   C26       1.0  0.58565  0.20970  0.29580  1.0000
  C   C27       1.0  0.91435  0.70970  0.20420  1.0000
  C   C28       1.0  0.08565  0.70970  0.29580  1.0000
  C   C29       1.0  0.58565  0.79030  0.79580  1.0000
  C   C30       1.0  0.41435  0.79030  0.70420  1.0000
  C   C31       1.0  0.08565  0.29030  0.79580  1.0000
  C   C32       1.0  0.91435  0.29030  0.70420  1.0000
  H   H33       1.0  0.43240  0.24980  0.17930  1.0000
  H   H34       1.0  0.56760  0.24980  0.32070  1.0000
  H   H35       1.0  0.93240  0.74980  0.17930  1.0000
  H   H36       1.0  0.06760  0.74980  0.32070  1.0000
  H   H37       1.0  0.56760  0.75020  0.82070  1.0000
  H   H38       1.0  0.43240  0.75020  0.67930  1.0000
  H   H39       1.0  0.06760  0.25020  0.82070  1.0000
  H   H40       1.0  0.93240  0.25020  0.67930  1.0000
  H   H41       1.0  0.39860  0.25830  0.22790  1.0000
  H   H42       1.0  0.60140  0.25830  0.27210  1.0000
  H   H43       1.0  0.89860  0.75830  0.22790  1.0000
  H   H44       1.0  0.10140  0.75830  0.27210  1.0000
  H   H45       1.0  0.60140  0.74170  0.77210  1.0000
  H   H46       1.0  0.39860  0.74170  0.72790  1.0000
  H   H47       1.0  0.10140  0.24170  0.77210  1.0000
  H   H48       1.0  0.89860  0.24170  0.72790  1.0000
  C   C33       1.0  0.44230  0.14680  0.27640  1.0000
  C   C34       1.0  0.55770  0.14680  0.22360  1.0000
  C   C35       1.0  0.94230  0.64680  0.27640  1.0000
  C   C36       1.0  0.05770  0.64680  0.22360  1.0000
  C   C37       1.0  0.55770  0.85320  0.72360  1.0000
  C   C38       1.0  0.44230  0.85320  0.77640  1.0000
  C   C39       1.0  0.05770  0.35320  0.72360  1.0000
  C   C40       1.0  0.94230  0.35320  0.77640  1.0000
  H   H49       1.0  0.42430  0.10540  0.30050  1.0000
  H   H50       1.0  0.57570  0.10540  0.19950  1.0000
  H   H51       1.0  0.92430  0.60540  0.30050  1.0000
  H   H52       1.0  0.07570  0.60540  0.19950  1.0000
  H   H53       1.0  0.57570  0.89460  0.69950  1.0000
  H   H54       1.0  0.42430  0.89460  0.80050  1.0000
  H   H55       1.0  0.07570  0.39460  0.69950  1.0000
  H   H56       1.0  0.92430  0.39460  0.80050  1.0000
  H   H57       1.0  0.45870  0.09950  0.25320  1.0000
  H   H58       1.0  0.54130  0.09950  0.24680  1.0000
  H   H59       1.0  0.95870  0.59950  0.25320  1.0000
  H   H60       1.0  0.04130  0.59950  0.24680  1.0000
  H   H61       1.0  0.54130  0.90050  0.74680  1.0000
  H   H62       1.0  0.45870  0.90050  0.75320  1.0000
  H   H63       1.0  0.04130  0.40050  0.74680  1.0000
  H   H64       1.0  0.95870  0.40050  0.75320  1.0000
  C   C41       1.0  0.47230  0.20690  0.34730  1.0000
  C   C42       1.0  0.52770  0.20690  0.15270  1.0000
  C   C43       1.0  0.97230  0.70690  0.34730  1.0000
  C   C44       1.0  0.02770  0.70690  0.15270  1.0000
  C   C45       1.0  0.52770  0.79310  0.65270  1.0000
  C   C46       1.0  0.47230  0.79310  0.84730  1.0000
  C   C47       1.0  0.02770  0.29310  0.65270  1.0000
  C   C48       1.0  0.97230  0.29310  0.84730  1.0000
  H   H65       1.0  0.45590  0.25160  0.37280  1.0000
  H   H66       1.0  0.54410  0.25160  0.12720  1.0000
  H   H67       1.0  0.95590  0.75160  0.37280  1.0000
  H   H68       1.0  0.04410  0.75160  0.12720  1.0000
  H   H69       1.0  0.54410  0.74840  0.62720  1.0000
  H   H70       1.0  0.45590  0.74840  0.87280  1.0000
  H   H71       1.0  0.04410  0.24840  0.62720  1.0000
  H   H72       1.0  0.95590  0.24840  0.87280  1.0000
  H   H73       1.0  0.48930  0.25100  0.32290  1.0000
  H   H74       1.0  0.51070  0.25100  0.17710  1.0000
  H   H75       1.0  0.98930  0.75100  0.32290  1.0000
  H   H76       1.0  0.01070  0.75100  0.17710  1.0000
  H   H77       1.0  0.51070  0.74900  0.67710  1.0000
  H   H78       1.0  0.48930  0.74900  0.82290  1.0000
  H   H79       1.0  0.01070  0.24900  0.67710  1.0000
  H   H80       1.0  0.98930  0.24900  0.82290  1.0000
  C   C49       1.0  0.50140  0.14280  0.41660  1.0000
  C   C50       1.0  0.49860  0.14280  0.08340  1.0000
  C   C51       1.0  0.00140  0.64280  0.41660  1.0000
  C   C52       1.0  0.99860  0.64280  0.08340  1.0000
  C   C53       1.0  0.49860  0.85720  0.58340  1.0000
  C   C54       1.0  0.50140  0.85720  0.91660  1.0000
  C   C55       1.0  0.99860  0.35720  0.58340  1.0000
  C   C56       1.0  0.00140  0.35720  0.91660  1.0000
  H   H81       1.0  0.51880  0.10090  0.39140  1.0000
  H   H82       1.0  0.48120  0.10090  0.10860  1.0000
  H   H83       1.0  0.01880  0.60090  0.39140  1.0000
  H   H84       1.0  0.98120  0.60090  0.10860  1.0000
  H   H85       1.0  0.48120  0.89910  0.60860  1.0000
  H   H86       1.0  0.51880  0.89910  0.89140  1.0000
  H   H87       1.0  0.98120  0.39910  0.60860  1.0000
  H   H88       1.0  0.01880  0.39910  0.89140  1.0000
  H   H89       1.0  0.48430  0.09590  0.43840  1.0000
  H   H90       1.0  0.51570  0.09590  0.06160  1.0000
  H   H91       1.0  0.98430  0.59590  0.43840  1.0000
  H   H92       1.0  0.01570  0.59590  0.06160  1.0000
  H   H93       1.0  0.51570  0.90410  0.56160  1.0000
  H   H94       1.0  0.48430  0.90410  0.93840  1.0000
  H   H95       1.0  0.01570  0.40410  0.56160  1.0000
  H   H96       1.0  0.98430  0.40410  0.93840  1.0000
  C   C57       1.0  0.53062  0.20230  0.49180  1.0000
  C   C58       1.0  0.46938  0.20230  0.00820  1.0000
  C   C59       1.0  0.03062  0.70230  0.49180  1.0000
  C   C60       1.0  0.96938  0.70230  0.00820  1.0000
  C   C61       1.0  0.46938  0.79770  0.50820  1.0000
  C   C62       1.0  0.53062  0.79770  0.99180  1.0000
  C   C63       1.0  0.96938  0.29770  0.50820  1.0000
  C   C64       1.0  0.03062  0.29770  0.99180  1.0000
  H   H97       1.0  0.54770  0.24930  0.47010  1.0000
  H   H98       1.0  0.45230  0.24930  0.02990  1.0000
  H   H99       1.0  0.04770  0.74930  0.47010  1.0000
  H   H100      1.0  0.95230  0.74930  0.02990  1.0000
  H   H101      1.0  0.45230  0.75070  0.52990  1.0000
  H   H102      1.0  0.54770  0.75070  0.97010  1.0000
  H   H103      1.0  0.95230  0.25070  0.52990  1.0000
  H   H104      1.0  0.04770  0.25070  0.97010  1.0000
  H   H105      1.0  0.51330  0.24390  0.51730  1.0000
  H   H106      1.0  0.48670  0.24390  0.98270  1.0000
  H   H107      1.0  0.01330  0.74390  0.51730  1.0000
  H   H108      1.0  0.98670  0.74390  0.98270  1.0000
  H   H109      1.0  0.48670  0.75610  0.48270  1.0000
  H   H110      1.0  0.51330  0.75610  0.01730  1.0000
  H   H111      1.0  0.98670  0.25610  0.48270  1.0000
  H   H112      1.0  0.01330  0.25610  0.01730  1.0000
  C   C65       1.0  0.55970  0.13740  0.56070  1.0000
  C   C66       1.0  0.44030  0.13740  0.93930  1.0000
  C   C67       1.0  0.05970  0.63740  0.56070  1.0000
  C   C68       1.0  0.94030  0.63740  0.93930  1.0000
  C   C69       1.0  0.44030  0.86260  0.43930  1.0000
  C   C70       1.0  0.55970  0.86260  0.06070  1.0000
  C   C71       1.0  0.94030  0.36260  0.43930  1.0000
  C   C72       1.0  0.05970  0.36260  0.06070  1.0000
  H   H113      1.0  0.57740  0.09750  0.53500  1.0000
  H   H114      1.0  0.42260  0.09750  0.96500  1.0000
  H   H115      1.0  0.07740  0.59750  0.53500  1.0000
  H   H116      1.0  0.92260  0.59750  0.96500  1.0000
  H   H117      1.0  0.42260  0.90250  0.46500  1.0000
  H   H118      1.0  0.57740  0.90250  0.03500  1.0000
  H   H119      1.0  0.92260  0.40250  0.46500  1.0000
  H   H120      1.0  0.07740  0.40250  0.03500  1.0000
  H   H121      1.0  0.54240  0.08870  0.58030  1.0000
  H   H122      1.0  0.45760  0.08870  0.91970  1.0000
  H   H123      1.0  0.04240  0.58870  0.58030  1.0000
  H   H124      1.0  0.95760  0.58870  0.91970  1.0000
  H   H125      1.0  0.45760  0.91130  0.41970  1.0000
  H   H126      1.0  0.54240  0.91130  0.08030  1.0000
  H   H127      1.0  0.95760  0.41130  0.41970  1.0000
  H   H128      1.0  0.04240  0.41130  0.08030  1.0000
  C   C73       1.0  0.58840  0.19220  0.63820  1.0000
  C   C74       1.0  0.41160  0.19220  0.86180  1.0000
  C   C75       1.0  0.08840  0.69220  0.63820  1.0000
  C   C76       1.0  0.91160  0.69220  0.86180  1.0000
  C   C77       1.0  0.41160  0.80780  0.36180  1.0000
  C   C78       1.0  0.58840  0.80780  0.13820  1.0000
  C   C79       1.0  0.91160  0.30780  0.36180  1.0000
  C   C80       1.0  0.08840  0.30780  0.13820  1.0000
  H   H129      1.0  0.60500  0.24310  0.61900  1.0000
  H   H130      1.0  0.39500  0.24310  0.88100  1.0000
  H   H131      1.0  0.10500  0.74310  0.61900  1.0000
  H   H132      1.0  0.89500  0.74310  0.88100  1.0000
  H   H133      1.0  0.39500  0.75690  0.38100  1.0000
  H   H134      1.0  0.60500  0.75690  0.11900  1.0000
  H   H135      1.0  0.89500  0.25690  0.38100  1.0000
  H   H136      1.0  0.10500  0.25690  0.11900  1.0000
  H   H137      1.0  0.57090  0.22920  0.66630  1.0000
  H   H138      1.0  0.42910  0.22920  0.83370  1.0000
  H   H139      1.0  0.07090  0.72920  0.66630  1.0000
  H   H140      1.0  0.92910  0.72920  0.83370  1.0000
  H   H141      1.0  0.42910  0.77080  0.33370  1.0000
  H   H142      1.0  0.57090  0.77080  0.16630  1.0000
  H   H143      1.0  0.92910  0.27080  0.33370  1.0000
  H   H144      1.0  0.07090  0.27080  0.16630  1.0000
  C   C81       1.0  0.61820  0.12300  0.70290  1.0000
  C   C82       1.0  0.38180  0.12300  0.79710  1.0000
  C   C83       1.0  0.11820  0.62300  0.70290  1.0000
  C   C84       1.0  0.88180  0.62300  0.79710  1.0000
  C   C85       1.0  0.38180  0.87700  0.29710  1.0000
  C   C86       1.0  0.61820  0.87700  0.20290  1.0000
  C   C87       1.0  0.88180  0.37700  0.29710  1.0000
  C   C88       1.0  0.11820  0.37700  0.20290  1.0000
  H   H145      1.0  0.60170  0.06660  0.71520  1.0000
  H   H146      1.0  0.39830  0.06660  0.78480  1.0000
  H   H147      1.0  0.10170  0.56660  0.71520  1.0000
  H   H148      1.0  0.89830  0.56660  0.78480  1.0000
  H   H149      1.0  0.39830  0.93340  0.28480  1.0000
  H   H150      1.0  0.60170  0.93340  0.21520  1.0000
  H   H151      1.0  0.89830  0.43340  0.28480  1.0000
  H   H152      1.0  0.10170  0.43340  0.21520  1.0000
  H   H153      1.0  0.63790  0.09320  0.67630  1.0000
  H   H154      1.0  0.36210  0.09320  0.82370  1.0000
  H   H155      1.0  0.13790  0.59320  0.67630  1.0000
  H   H156      1.0  0.86210  0.59320  0.82370  1.0000
  H   H157      1.0  0.36210  0.90680  0.32370  1.0000
  H   H158      1.0  0.63790  0.90680  0.17630  1.0000
  H   H159      1.0  0.86210  0.40680  0.32370  1.0000
  H   H160      1.0  0.13790  0.40680  0.17630  1.0000
  C   C89       1.0  0.64370  0.17050  0.78650  1.0000
  C   C90       1.0  0.35630  0.17050  0.71350  1.0000
  C   C91       1.0  0.14370  0.67050  0.78650  1.0000
  C   C92       1.0  0.85630  0.67050  0.71350  1.0000
  C   C93       1.0  0.35630  0.82950  0.21350  1.0000
  C   C94       1.0  0.64370  0.82950  0.28650  1.0000
  C   C95       1.0  0.85630  0.32950  0.21350  1.0000
  C   C96       1.0  0.14370  0.32950  0.28650  1.0000
  H   H161      1.0  0.62430  0.19320  0.81690  1.0000
  H   H162      1.0  0.37570  0.19320  0.68310  1.0000
  H   H163      1.0  0.12430  0.69320  0.81690  1.0000
  H   H164      1.0  0.87570  0.69320  0.68310  1.0000
  H   H165      1.0  0.37570  0.80680  0.18310  1.0000
  H   H166      1.0  0.62430  0.80680  0.31690  1.0000
  H   H167      1.0  0.87570  0.30680  0.18310  1.0000
  H   H168      1.0  0.12430  0.30680  0.31690  1.0000
  H   H169      1.0  0.66230  0.11810  0.82210  1.0000
  H   H170      1.0  0.33770  0.11810  0.67790  1.0000
  H   H171      1.0  0.16230  0.61810  0.82210  1.0000
  H   H172      1.0  0.83770  0.61810  0.67790  1.0000
  H   H173      1.0  0.33770  0.88190  0.17790  1.0000
  H   H174      1.0  0.66230  0.88190  0.32210  1.0000
  H   H175      1.0  0.83770  0.38190  0.17790  1.0000
  H   H176      1.0  0.16230  0.38190  0.32210  1.0000
  C   C97       1.0  0.66970  0.25860  0.77750  1.0000
  C   C98       1.0  0.33030  0.25860  0.72250  1.0000
  C   C99       1.0  0.16970  0.75860  0.77750  1.0000
  C   C100      1.0  0.83030  0.75860  0.72250  1.0000
  C   C101      1.0  0.33030  0.74140  0.22250  1.0000
  C   C102      1.0  0.66970  0.74140  0.27750  1.0000
  C   C103      1.0  0.83030  0.24140  0.22250  1.0000
  C   C104      1.0  0.16970  0.24140  0.27750  1.0000
  H   H177      1.0  0.65100  0.31350  0.74620  1.0000
  H   H178      1.0  0.34900  0.31350  0.75380  1.0000
  H   H179      1.0  0.15100  0.81350  0.74620  1.0000
  H   H180      1.0  0.84900  0.81350  0.75380  1.0000
  H   H181      1.0  0.34900  0.68650  0.25380  1.0000
  H   H182      1.0  0.65100  0.68650  0.24620  1.0000
  H   H183      1.0  0.84900  0.18650  0.25380  1.0000
  H   H184      1.0  0.15100  0.18650  0.24620  1.0000
  H   H185      1.0  0.68750  0.23750  0.74310  1.0000
  H   H186      1.0  0.31250  0.23750  0.75690  1.0000
  H   H187      1.0  0.18750  0.73750  0.74310  1.0000
  H   H188      1.0  0.81250  0.73750  0.75690  1.0000
  H   H189      1.0  0.31250  0.76250  0.25690  1.0000
  H   H190      1.0  0.68750  0.76250  0.24310  1.0000
  H   H191      1.0  0.81250  0.26250  0.25690  1.0000
  H   H192      1.0  0.18750  0.26250  0.24310  1.0000
  C   C105      1.0  0.69820  0.30040  0.86380  1.0000
  C   C106      1.0  0.30180  0.30040  0.63620  1.0000
  C   C107      1.0  0.19820  0.80040  0.86380  1.0000
  C   C108      1.0  0.80180  0.80040  0.63620  1.0000
  C   C109      1.0  0.30180  0.69960  0.13620  1.0000
  C   C110      1.0  0.69820  0.69960  0.36380  1.0000
  C   C111      1.0  0.80180  0.19960  0.13620  1.0000
  C   C112      1.0  0.19820  0.19960  0.36380  1.0000
  H   H193      1.0  0.68110  0.30870  0.90180  1.0000
  H   H194      1.0  0.31890  0.30870  0.59820  1.0000
  H   H195      1.0  0.18110  0.80870  0.90180  1.0000
  H   H196      1.0  0.81890  0.80870  0.59820  1.0000
  H   H197      1.0  0.31890  0.69130  0.09820  1.0000
  H   H198      1.0  0.68110  0.69130  0.40180  1.0000
  H   H199      1.0  0.81890  0.19130  0.09820  1.0000
  H   H200      1.0  0.18110  0.19130  0.40180  1.0000
  H   H201      1.0  0.72010  0.24920  0.89000  1.0000
  H   H202      1.0  0.27990  0.24920  0.61000  1.0000
  H   H203      1.0  0.22010  0.74920  0.89000  1.0000
  H   H204      1.0  0.77990  0.74920  0.61000  1.0000
  H   H205      1.0  0.27990  0.75080  0.11000  1.0000
  H   H206      1.0  0.72010  0.75080  0.39000  1.0000
  H   H207      1.0  0.77990  0.25080  0.11000  1.0000
  H   H208      1.0  0.22010  0.25080  0.39000  1.0000
  C   C113      1.0  0.71930  0.39900  0.85980  1.0000
  C   C114      1.0  0.28070  0.39900  0.64020  1.0000
  C   C115      1.0  0.21930  0.89900  0.85980  1.0000
  C   C116      1.0  0.78070  0.89900  0.64020  1.0000
  C   C117      1.0  0.28070  0.60100  0.14020  1.0000
  C   C118      1.0  0.71930  0.60100  0.35980  1.0000
  C   C119      1.0  0.78070  0.10100  0.14020  1.0000
  C   C120      1.0  0.21930  0.10100  0.35980  1.0000
  C   C121      1.0  0.20290  0.23980  0.73590  1.0000
  C   C122      1.0  0.79710  0.23980  0.76410  1.0000
  C   C123      1.0  0.70290  0.73980  0.73590  1.0000
  C   C124      1.0  0.29710  0.73980  0.76410  1.0000
  C   C125      1.0  0.79710  0.76020  0.26410  1.0000
  C   C126      1.0  0.20290  0.76020  0.23590  1.0000
  C   C127      1.0  0.29710  0.26020  0.26410  1.0000
  C   C128      1.0  0.70290  0.26020  0.23590  1.0000
  C   C129      1.0  0.17620  0.31620  0.67500  1.0000
  C   C130      1.0  0.82380  0.31620  0.82500  1.0000
  C   C131      1.0  0.67620  0.81620  0.67500  1.0000
  C   C132      1.0  0.32380  0.81620  0.82500  1.0000
  C   C133      1.0  0.82380  0.68380  0.32500  1.0000
  C   C134      1.0  0.17620  0.68380  0.17500  1.0000
  C   C135      1.0  0.32380  0.18380  0.32500  1.0000
  C   C136      1.0  0.67620  0.18380  0.17500  1.0000
  H   H209      1.0  0.16200  0.35970  0.70600  1.0000
  H   H210      1.0  0.83800  0.35970  0.79400  1.0000
  H   H211      1.0  0.66200  0.85970  0.70600  1.0000
  H   H212      1.0  0.33800  0.85970  0.79400  1.0000
  H   H213      1.0  0.83800  0.64030  0.29400  1.0000
  H   H214      1.0  0.16200  0.64030  0.20600  1.0000
  H   H215      1.0  0.33800  0.14030  0.29400  1.0000
  H   H216      1.0  0.66200  0.14030  0.20600  1.0000
  H   H217      1.0  0.19450  0.36030  0.65400  1.0000
  H   H218      1.0  0.80550  0.36030  0.84600  1.0000
  H   H219      1.0  0.69450  0.86030  0.65400  1.0000
  H   H220      1.0  0.30550  0.86030  0.84600  1.0000
  H   H221      1.0  0.80550  0.63970  0.34600  1.0000
  H   H222      1.0  0.19450  0.63970  0.15400  1.0000
  H   H223      1.0  0.30550  0.13970  0.34600  1.0000
  H   H224      1.0  0.69450  0.13970  0.15400  1.0000
  C   C137      1.0  0.14410  0.26960  0.60120  1.0000
  C   C138      1.0  0.85590  0.26960  0.89880  1.0000
  C   C139      1.0  0.64410  0.76960  0.60120  1.0000
  C   C140      1.0  0.35590  0.76960  0.89880  1.0000
  C   C141      1.0  0.85590  0.73040  0.39880  1.0000
  C   C142      1.0  0.14410  0.73040  0.10120  1.0000
  C   C143      1.0  0.35590  0.23040  0.39880  1.0000
  C   C144      1.0  0.64410  0.23040  0.10120  1.0000
  H   H225      1.0  0.12540  0.22670  0.62220  1.0000
  H   H226      1.0  0.87460  0.22670  0.87780  1.0000
  H   H227      1.0  0.62540  0.72670  0.62220  1.0000
  H   H228      1.0  0.37460  0.72670  0.87780  1.0000
  H   H229      1.0  0.87460  0.77330  0.37780  1.0000
  H   H230      1.0  0.12540  0.77330  0.12220  1.0000
  H   H231      1.0  0.37460  0.27330  0.37780  1.0000
  H   H232      1.0  0.62540  0.27330  0.12220  1.0000
  H   H233      1.0  0.15830  0.22500  0.57110  1.0000
  H   H234      1.0  0.84170  0.22500  0.92890  1.0000
  H   H235      1.0  0.65830  0.72500  0.57110  1.0000
  H   H236      1.0  0.34170  0.72500  0.92890  1.0000
  H   H237      1.0  0.84170  0.77500  0.42890  1.0000
  H   H238      1.0  0.15830  0.77500  0.07110  1.0000
  H   H239      1.0  0.34170  0.27500  0.42890  1.0000
  H   H240      1.0  0.65830  0.27500  0.07110  1.0000
  C   C145      1.0  0.11690  0.34860  0.53680  1.0000
  C   C146      1.0  0.88310  0.34860  0.96320  1.0000
  C   C147      1.0  0.61690  0.84860  0.53680  1.0000
  C   C148      1.0  0.38310  0.84860  0.96320  1.0000
  C   C149      1.0  0.88310  0.65140  0.46320  1.0000
  C   C150      1.0  0.11690  0.65140  0.03680  1.0000
  C   C151      1.0  0.38310  0.15140  0.46320  1.0000
  C   C152      1.0  0.61690  0.15140  0.03680  1.0000
  H   H241      1.0  0.10220  0.39310  0.56600  1.0000
  H   H242      1.0  0.89780  0.39310  0.93400  1.0000
  H   H243      1.0  0.60220  0.89310  0.56600  1.0000
  H   H244      1.0  0.39780  0.89310  0.93400  1.0000
  H   H245      1.0  0.89780  0.60690  0.43400  1.0000
  H   H246      1.0  0.10220  0.60690  0.06600  1.0000
  H   H247      1.0  0.39780  0.10690  0.43400  1.0000
  H   H248      1.0  0.60220  0.10690  0.06600  1.0000
  H   H249      1.0  0.13520  0.39170  0.51490  1.0000
  H   H250      1.0  0.86480  0.39170  0.98510  1.0000
  H   H251      1.0  0.63520  0.89170  0.51490  1.0000
  H   H252      1.0  0.36480  0.89170  0.98510  1.0000
  H   H253      1.0  0.86480  0.60830  0.48510  1.0000
  H   H254      1.0  0.13520  0.60830  0.01490  1.0000
  H   H255      1.0  0.36480  0.10830  0.48510  1.0000
  H   H256      1.0  0.63520  0.10830  0.01490  1.0000
  C   C153      1.0  0.08544  0.29560  0.46410  1.0000
  C   C154      1.0  0.91456  0.29560  0.03590  1.0000
  C   C155      1.0  0.58544  0.79560  0.46410  1.0000
  C   C156      1.0  0.41456  0.79560  0.03590  1.0000
  C   C157      1.0  0.91456  0.70440  0.53590  1.0000
  C   C158      1.0  0.08544  0.70440  0.96410  1.0000
  C   C159      1.0  0.41456  0.20440  0.53590  1.0000
  C   C160      1.0  0.58544  0.20440  0.96410  1.0000
  H   H257      1.0  0.06720  0.25350  0.48690  1.0000
  H   H258      1.0  0.93280  0.25350  0.01310  1.0000
  H   H259      1.0  0.56720  0.75350  0.48690  1.0000
  H   H260      1.0  0.43280  0.75350  0.01310  1.0000
  H   H261      1.0  0.93280  0.74650  0.51310  1.0000
  H   H262      1.0  0.06720  0.74650  0.98690  1.0000
  H   H263      1.0  0.43280  0.24650  0.51310  1.0000
  H   H264      1.0  0.56720  0.24650  0.98690  1.0000
  H   H265      1.0  0.10060  0.24920  0.43720  1.0000
  H   H266      1.0  0.89940  0.24920  0.06280  1.0000
  H   H267      1.0  0.60060  0.74920  0.43720  1.0000
  H   H268      1.0  0.39940  0.74920  0.06280  1.0000
  H   H269      1.0  0.89940  0.75080  0.56280  1.0000
  H   H270      1.0  0.10060  0.75080  0.93720  1.0000
  H   H271      1.0  0.39940  0.25080  0.56280  1.0000
  H   H272      1.0  0.60060  0.25080  0.93720  1.0000
  C   C161      1.0  0.05787  0.36520  0.39590  1.0000
  C   C162      1.0  0.94213  0.36520  0.10410  1.0000
  C   C163      1.0  0.55787  0.86520  0.39590  1.0000
  C   C164      1.0  0.44213  0.86520  0.10410  1.0000
  C   C165      1.0  0.94213  0.63480  0.60410  1.0000
  C   C166      1.0  0.05787  0.63480  0.89590  1.0000
  C   C167      1.0  0.44213  0.13480  0.60410  1.0000
  C   C168      1.0  0.55787  0.13480  0.89590  1.0000
  H   H273      1.0  0.07580  0.40950  0.37410  1.0000
  H   H274      1.0  0.92420  0.40950  0.12590  1.0000
  H   H275      1.0  0.57580  0.90950  0.37410  1.0000
  H   H276      1.0  0.42420  0.90950  0.12590  1.0000
  H   H277      1.0  0.92420  0.59050  0.62590  1.0000
  H   H278      1.0  0.07580  0.59050  0.87410  1.0000
  H   H279      1.0  0.42420  0.09050  0.62590  1.0000
  H   H280      1.0  0.57580  0.09050  0.87410  1.0000
  H   H281      1.0  0.04120  0.40910  0.42130  1.0000
  H   H282      1.0  0.95880  0.40910  0.07870  1.0000
  H   H283      1.0  0.54120  0.90910  0.42130  1.0000
  H   H284      1.0  0.45880  0.90910  0.07870  1.0000
  H   H285      1.0  0.95880  0.59090  0.57870  1.0000
  H   H286      1.0  0.04120  0.59090  0.92130  1.0000
  H   H287      1.0  0.45880  0.09090  0.57870  1.0000
  H   H288      1.0  0.54120  0.09090  0.92130  1.0000
  C   C169      1.0  0.02813  0.30540  0.32190  1.0000
  C   C170      1.0  0.97187  0.30540  0.17810  1.0000
  C   C171      1.0  0.52813  0.80540  0.32190  1.0000
  C   C172      1.0  0.47187  0.80540  0.17810  1.0000
  C   C173      1.0  0.97187  0.69460  0.67810  1.0000
  C   C174      1.0  0.02813  0.69460  0.82190  1.0000
  C   C175      1.0  0.47187  0.19460  0.67810  1.0000
  C   C176      1.0  0.52813  0.19460  0.82190  1.0000
  H   H289      1.0  0.04520  0.26000  0.29860  1.0000
  H   H290      1.0  0.95480  0.26000  0.20140  1.0000
  H   H291      1.0  0.54520  0.76000  0.29860  1.0000
  H   H292      1.0  0.45480  0.76000  0.20140  1.0000
  H   H293      1.0  0.95480  0.74000  0.70140  1.0000
  H   H294      1.0  0.04520  0.74000  0.79860  1.0000
  H   H295      1.0  0.45480  0.24000  0.70140  1.0000
  H   H296      1.0  0.54520  0.24000  0.79860  1.0000
  H   H297      1.0  0.01030  0.26180  0.34460  1.0000
  H   H298      1.0  0.98970  0.26180  0.15540  1.0000
  H   H299      1.0  0.51030  0.76180  0.34460  1.0000
  H   H300      1.0  0.48970  0.76180  0.15540  1.0000
  H   H301      1.0  0.98970  0.73820  0.65540  1.0000
  H   H302      1.0  0.01030  0.73820  0.84460  1.0000
  H   H303      1.0  0.48970  0.23820  0.65540  1.0000
  H   H304      1.0  0.51030  0.23820  0.84460  1.0000
  C   C177      1.0  0.00000  0.36760  0.25000  1.0000
  C   C178      1.0  0.50000  0.86760  0.25000  1.0000
  C   C179      1.0  0.00000  0.63240  0.75000  1.0000
  C   C180      1.0  0.50000  0.13240  0.75000  1.0000
  H   H305      1.0  0.98240  0.41180  0.27280  1.0000
  H   H306      1.0  0.01760  0.41180  0.22720  1.0000
  H   H307      1.0  0.48240  0.91180  0.27280  1.0000
  H   H308      1.0  0.51760  0.91180  0.22720  1.0000
  H   H309      1.0  0.01760  0.58820  0.72720  1.0000
  H   H310      1.0  0.98240  0.58820  0.77280  1.0000
  H   H311      1.0  0.51760  0.08820  0.72720  1.0000
  H   H312      1.0  0.48240  0.08820  0.77280  1.0000
