data_image0
_chemical_formula_structural       Zn4O24C12H12
_chemical_formula_sum              "Zn4 O24 C12 H12"
_cell_length_a       8.717
_cell_length_b       11.617
_cell_length_c       8.289
_cell_angle_alpha    90
_cell_angle_beta     90
_cell_angle_gamma    90

_space_group_name_H-M_alt    "P 1"
_space_group_IT_number       1

loop_
  _space_group_symop_operation_xyz
  'x, y, z'

loop_
  _atom_site_type_symbol
  _atom_site_label
  _atom_site_symmetry_multiplicity
  _atom_site_fract_x
  _atom_site_fract_y
  _atom_site_fract_z
  _atom_site_occupancy
  Zn  Zn1       1.0  0.23547  0.25000  0.25000  1.0000
  Zn  Zn2       1.0  0.26453  0.75000  0.25000  1.0000
  Zn  Zn3       1.0  0.76453  0.75000  0.75000  1.0000
  Zn  Zn4       1.0  0.73547  0.25000  0.75000  1.0000
  O   O1        1.0  0.41277  0.31678  0.10538  1.0000
  O   O2        1.0  0.08723  0.68322  0.10538  1.0000
  O   O3        1.0  0.41277  0.18322  0.39462  1.0000
  O   O4        1.0  0.08723  0.81678  0.39462  1.0000
  O   O5        1.0  0.58723  0.68322  0.89462  1.0000
  O   O6        1.0  0.91277  0.31678  0.89462  1.0000
  O   O7        1.0  0.58723  0.81678  0.60538  1.0000
  O   O8        1.0  0.91277  0.18322  0.60538  1.0000
  O   O9        1.0  0.08376  0.17654  0.41138  1.0000
  O   O10       1.0  0.41624  0.82346  0.41138  1.0000
  O   O11       1.0  0.08376  0.32346  0.08862  1.0000
  O   O12       1.0  0.41624  0.67654  0.08862  1.0000
  O   O13       1.0  0.91624  0.82346  0.58862  1.0000
  O   O14       1.0  0.58376  0.17654  0.58862  1.0000
  O   O15       1.0  0.91624  0.67654  0.91138  1.0000
  O   O16       1.0  0.58376  0.32346  0.91138  1.0000
  O   O17       1.0  0.23734  0.40508  0.38366  1.0000
  O   O18       1.0  0.26266  0.59492  0.38366  1.0000
  O   O19       1.0  0.23734  0.09492  0.11634  1.0000
  O   O20       1.0  0.26266  0.90508  0.11634  1.0000
  O   O21       1.0  0.76266  0.59492  0.61634  1.0000
  O   O22       1.0  0.73734  0.40508  0.61634  1.0000
  O   O23       1.0  0.76266  0.90508  0.88366  1.0000
  O   O24       1.0  0.73734  0.09492  0.88366  1.0000
  C   C1        1.0  0.47011  0.28029  0.97767  1.0000
  C   C2        1.0  0.02989  0.71971  0.97767  1.0000
  C   C3        1.0  0.47011  0.21971  0.52233  1.0000
  C   C4        1.0  0.02989  0.78029  0.52233  1.0000
  C   C5        1.0  0.52989  0.71971  0.02233  1.0000
  C   C6        1.0  0.97011  0.28029  0.02233  1.0000
  C   C7        1.0  0.52989  0.78029  0.47767  1.0000
  C   C8        1.0  0.97011  0.21971  0.47767  1.0000
  C   C9        1.0  0.25000  0.50000  0.31394  1.0000
  C   C10       1.0  0.25000  0.00000  0.18606  1.0000
  C   C11       1.0  0.75000  0.50000  0.68606  1.0000
  C   C12       1.0  0.75000  0.00000  0.81394  1.0000
  H   H1        1.0  0.42500  0.21300  0.93800  1.0000
  H   H2        1.0  0.07500  0.78700  0.93800  1.0000
  H   H3        1.0  0.42500  0.28700  0.56200  1.0000
  H   H4        1.0  0.07500  0.71300  0.56200  1.0000
  H   H5        1.0  0.57500  0.78700  0.06200  1.0000
  H   H6        1.0  0.92500  0.21300  0.06200  1.0000
  H   H7        1.0  0.57500  0.71300  0.43800  1.0000
  H   H8        1.0  0.92500  0.28700  0.43800  1.0000
  H   H9        1.0  0.25000  0.50000  0.19000  1.0000
  H   H10       1.0  0.25000  0.00000  0.31000  1.0000
  H   H11       1.0  0.75000  0.50000  0.81000  1.0000
  H   H12       1.0  0.75000  0.00000  0.69000  1.0000
