data_image0
_chemical_formula_structural       Co8Mg4O64C24H8C8H8C16H8C8H8C16H8C8H8C16H8C8H8C32H8C8H8C16H8C8H8C24H8C8H8C16H8C8H8
_chemical_formula_sum              "Co8 Mg4 O64 C224 H128"
_cell_length_a       26.0566
_cell_length_b       22.3986
_cell_length_c       13.8669
_cell_angle_alpha    90
_cell_angle_beta     90
_cell_angle_gamma    90

_space_group_name_H-M_alt    "P 1"
_space_group_IT_number       1

loop_
  _space_group_symop_operation_xyz
  'x, y, z'

loop_
  _atom_site_type_symbol
  _atom_site_label
  _atom_site_symmetry_multiplicity
  _atom_site_fract_x
  _atom_site_fract_y
  _atom_site_fract_z
  _atom_site_occupancy
  Co  Co1       1.0  0.09392  0.41065  0.27299  1.0000
  Co  Co2       1.0  0.40608  0.58935  0.27299  1.0000
  Co  Co3       1.0  0.09392  0.08935  0.22701  1.0000
  Co  Co4       1.0  0.40608  0.91065  0.22701  1.0000
  Co  Co5       1.0  0.90608  0.58935  0.72701  1.0000
  Co  Co6       1.0  0.59392  0.41065  0.72701  1.0000
  Co  Co7       1.0  0.90608  0.91065  0.77299  1.0000
  Co  Co8       1.0  0.59392  0.08935  0.77299  1.0000
  Mg  Mg1       1.0  0.09439  0.25000  0.25000  1.0000
  Mg  Mg2       1.0  0.40561  0.75000  0.25000  1.0000
  Mg  Mg3       1.0  0.90561  0.75000  0.75000  1.0000
  Mg  Mg4       1.0  0.59439  0.25000  0.75000  1.0000
  O   O1        1.0  0.15844  0.39074  0.20498  1.0000
  O   O2        1.0  0.34156  0.60926  0.20498  1.0000
  O   O3        1.0  0.15844  0.10926  0.29502  1.0000
  O   O4        1.0  0.34156  0.89074  0.29502  1.0000
  O   O5        1.0  0.84156  0.60926  0.79502  1.0000
  O   O6        1.0  0.65844  0.39074  0.79502  1.0000
  O   O7        1.0  0.84156  0.89074  0.70498  1.0000
  O   O8        1.0  0.65844  0.10926  0.70498  1.0000
  O   O9        1.0  0.15021  0.29287  0.17554  1.0000
  O   O10       1.0  0.34979  0.70713  0.17554  1.0000
  O   O11       1.0  0.15021  0.20713  0.32446  1.0000
  O   O12       1.0  0.34979  0.79287  0.32446  1.0000
  O   O13       1.0  0.84979  0.70713  0.82446  1.0000
  O   O14       1.0  0.65021  0.29287  0.82446  1.0000
  O   O15       1.0  0.84979  0.79287  0.67554  1.0000
  O   O16       1.0  0.65021  0.20713  0.67554  1.0000
  O   O17       1.0  0.53048  0.38969  0.79557  1.0000
  O   O18       1.0  0.96952  0.61031  0.79557  1.0000
  O   O19       1.0  0.53048  0.11031  0.70443  1.0000
  O   O20       1.0  0.96952  0.88969  0.70443  1.0000
  O   O21       1.0  0.46952  0.61031  0.20443  1.0000
  O   O22       1.0  0.03048  0.38969  0.20443  1.0000
  O   O23       1.0  0.46952  0.88969  0.29557  1.0000
  O   O24       1.0  0.03048  0.11031  0.29557  1.0000
  O   O25       1.0  0.53862  0.29223  0.82648  1.0000
  O   O26       1.0  0.96138  0.70777  0.82648  1.0000
  O   O27       1.0  0.53862  0.20777  0.67352  1.0000
  O   O28       1.0  0.96138  0.79223  0.67352  1.0000
  O   O29       1.0  0.46138  0.70777  0.17352  1.0000
  O   O30       1.0  0.03862  0.29223  0.17352  1.0000
  O   O31       1.0  0.46138  0.79223  0.32648  1.0000
  O   O32       1.0  0.03862  0.20777  0.32648  1.0000
  O   O33       1.0  0.09907  0.49750  0.24851  1.0000
  O   O34       1.0  0.40093  0.50250  0.24851  1.0000
  O   O35       1.0  0.09907  0.00250  0.25149  1.0000
  O   O36       1.0  0.40093  0.99750  0.25149  1.0000
  O   O37       1.0  0.90093  0.50250  0.75149  1.0000
  O   O38       1.0  0.59907  0.49750  0.75149  1.0000
  O   O39       1.0  0.90093  0.99750  0.74851  1.0000
  O   O40       1.0  0.59907  0.00250  0.74851  1.0000
  O   O41       1.0  0.02754  0.50172  0.32590  1.0000
  O   O42       1.0  0.47246  0.49828  0.32590  1.0000
  O   O43       1.0  0.02754  0.99828  0.17410  1.0000
  O   O44       1.0  0.47246  0.00172  0.17410  1.0000
  O   O45       1.0  0.97246  0.49828  0.67410  1.0000
  O   O46       1.0  0.52754  0.50172  0.67410  1.0000
  O   O47       1.0  0.97246  0.00172  0.82590  1.0000
  O   O48       1.0  0.52754  0.99828  0.82590  1.0000
  O   O49       1.0  0.10745  0.40427  0.41831  1.0000
  O   O50       1.0  0.39255  0.59573  0.41831  1.0000
  O   O51       1.0  0.10745  0.09573  0.08169  1.0000
  O   O52       1.0  0.39255  0.90427  0.08169  1.0000
  O   O53       1.0  0.89255  0.59573  0.58169  1.0000
  O   O54       1.0  0.60745  0.40427  0.58169  1.0000
  O   O55       1.0  0.89255  0.90427  0.91831  1.0000
  O   O56       1.0  0.60745  0.09573  0.91831  1.0000
  O   O57       1.0  0.09317  0.31858  0.34988  1.0000
  O   O58       1.0  0.40683  0.68142  0.34988  1.0000
  O   O59       1.0  0.09317  0.18142  0.15012  1.0000
  O   O60       1.0  0.40683  0.81858  0.15012  1.0000
  O   O61       1.0  0.90683  0.68142  0.65012  1.0000
  O   O62       1.0  0.59317  0.31858  0.65012  1.0000
  O   O63       1.0  0.90683  0.81858  0.84988  1.0000
  O   O64       1.0  0.59317  0.18142  0.84988  1.0000
  C   C1        1.0  0.17303  0.34149  0.16980  1.0000
  C   C2        1.0  0.32697  0.65851  0.16980  1.0000
  C   C3        1.0  0.17303  0.15851  0.33020  1.0000
  C   C4        1.0  0.32697  0.84149  0.33020  1.0000
  C   C5        1.0  0.82697  0.65851  0.83020  1.0000
  C   C6        1.0  0.67303  0.34149  0.83020  1.0000
  C   C7        1.0  0.82697  0.84149  0.66980  1.0000
  C   C8        1.0  0.67303  0.15851  0.66980  1.0000
  C   C9        1.0  0.22289  0.34193  0.11563  1.0000
  C   C10       1.0  0.27711  0.65807  0.11563  1.0000
  C   C11       1.0  0.22289  0.15807  0.38437  1.0000
  C   C12       1.0  0.27711  0.84193  0.38437  1.0000
  C   C13       1.0  0.77711  0.65807  0.88437  1.0000
  C   C14       1.0  0.72289  0.34193  0.88437  1.0000
  C   C15       1.0  0.77711  0.84193  0.61563  1.0000
  C   C16       1.0  0.72289  0.15807  0.61563  1.0000
  C   C17       1.0  0.24822  0.39527  0.09580  1.0000
  C   C18       1.0  0.25178  0.60473  0.09580  1.0000
  C   C19       1.0  0.24822  0.10473  0.40420  1.0000
  C   C20       1.0  0.25178  0.89527  0.40420  1.0000
  C   C21       1.0  0.75178  0.60473  0.90420  1.0000
  C   C22       1.0  0.74822  0.39527  0.90420  1.0000
  C   C23       1.0  0.75178  0.89527  0.59580  1.0000
  C   C24       1.0  0.74822  0.10473  0.59580  1.0000
  H   H1        1.0  0.23389  0.43129  0.11550  1.0000
  H   H2        1.0  0.26611  0.56871  0.11550  1.0000
  H   H3        1.0  0.23389  0.06871  0.38450  1.0000
  H   H4        1.0  0.26611  0.93129  0.38450  1.0000
  H   H5        1.0  0.76611  0.56871  0.88450  1.0000
  H   H6        1.0  0.73389  0.43129  0.88450  1.0000
  H   H7        1.0  0.76611  0.93129  0.61550  1.0000
  H   H8        1.0  0.73389  0.06871  0.61550  1.0000
  C   C25       1.0  0.29465  0.39507  0.04710  1.0000
  C   C26       1.0  0.20535  0.60493  0.04710  1.0000
  C   C27       1.0  0.29465  0.10493  0.45290  1.0000
  C   C28       1.0  0.20535  0.89507  0.45290  1.0000
  C   C29       1.0  0.70535  0.60493  0.95290  1.0000
  C   C30       1.0  0.79465  0.39507  0.95290  1.0000
  C   C31       1.0  0.70535  0.89507  0.54710  1.0000
  C   C32       1.0  0.79465  0.10493  0.54710  1.0000
  H   H9        1.0  0.31106  0.43105  0.03405  1.0000
  H   H10       1.0  0.18894  0.56895  0.03405  1.0000
  H   H11       1.0  0.31106  0.06895  0.46595  1.0000
  H   H12       1.0  0.18894  0.93105  0.46595  1.0000
  H   H13       1.0  0.68894  0.56895  0.96595  1.0000
  H   H14       1.0  0.81106  0.43105  0.96595  1.0000
  H   H15       1.0  0.68894  0.93105  0.53405  1.0000
  H   H16       1.0  0.81106  0.06895  0.53405  1.0000
  C   C33       1.0  0.31691  0.34215  0.01750  1.0000
  C   C34       1.0  0.18309  0.65785  0.01750  1.0000
  C   C35       1.0  0.31691  0.15785  0.48250  1.0000
  C   C36       1.0  0.18309  0.84215  0.48250  1.0000
  C   C37       1.0  0.68309  0.65785  0.98250  1.0000
  C   C38       1.0  0.81691  0.34215  0.98250  1.0000
  C   C39       1.0  0.68309  0.84215  0.51750  1.0000
  C   C40       1.0  0.81691  0.15785  0.51750  1.0000
  C   C41       1.0  0.29101  0.28899  0.03630  1.0000
  C   C42       1.0  0.20899  0.71101  0.03630  1.0000
  C   C43       1.0  0.29101  0.21101  0.46370  1.0000
  C   C44       1.0  0.20899  0.78899  0.46370  1.0000
  C   C45       1.0  0.70899  0.71101  0.96370  1.0000
  C   C46       1.0  0.79101  0.28899  0.96370  1.0000
  C   C47       1.0  0.70899  0.78899  0.53630  1.0000
  C   C48       1.0  0.79101  0.21101  0.53630  1.0000
  H   H17       1.0  0.30533  0.25293  0.01671  1.0000
  H   H18       1.0  0.19467  0.74707  0.01671  1.0000
  H   H19       1.0  0.30533  0.24707  0.48329  1.0000
  H   H20       1.0  0.19467  0.75293  0.48329  1.0000
  H   H21       1.0  0.69467  0.74707  0.98329  1.0000
  H   H22       1.0  0.80533  0.25293  0.98329  1.0000
  H   H23       1.0  0.69467  0.75293  0.51671  1.0000
  H   H24       1.0  0.80533  0.24707  0.51671  1.0000
  C   C49       1.0  0.24430  0.28914  0.08360  1.0000
  C   C50       1.0  0.25570  0.71086  0.08360  1.0000
  C   C51       1.0  0.24430  0.21086  0.41640  1.0000
  C   C52       1.0  0.25570  0.78914  0.41640  1.0000
  C   C53       1.0  0.75570  0.71086  0.91640  1.0000
  C   C54       1.0  0.74430  0.28914  0.91640  1.0000
  C   C55       1.0  0.75570  0.78914  0.58360  1.0000
  C   C56       1.0  0.74430  0.21086  0.58360  1.0000
  H   H25       1.0  0.22712  0.25332  0.09388  1.0000
  H   H26       1.0  0.27288  0.74668  0.09388  1.0000
  H   H27       1.0  0.22712  0.24668  0.40612  1.0000
  H   H28       1.0  0.27288  0.75332  0.40612  1.0000
  H   H29       1.0  0.77288  0.74668  0.90612  1.0000
  H   H30       1.0  0.72712  0.25332  0.90612  1.0000
  H   H31       1.0  0.77288  0.75332  0.59388  1.0000
  H   H32       1.0  0.72712  0.24668  0.59388  1.0000
  C   C57       1.0  0.36788  0.34137  0.96840  1.0000
  C   C58       1.0  0.13212  0.65863  0.96840  1.0000
  C   C59       1.0  0.36788  0.15863  0.53160  1.0000
  C   C60       1.0  0.13212  0.84137  0.53160  1.0000
  C   C61       1.0  0.63212  0.65863  0.03160  1.0000
  C   C62       1.0  0.86788  0.34137  0.03160  1.0000
  C   C63       1.0  0.63212  0.84137  0.46840  1.0000
  C   C64       1.0  0.86788  0.15863  0.46840  1.0000
  C   C65       1.0  0.38316  0.38858  0.91090  1.0000
  C   C66       1.0  0.11684  0.61142  0.91090  1.0000
  C   C67       1.0  0.38316  0.11142  0.58910  1.0000
  C   C68       1.0  0.11684  0.88858  0.58910  1.0000
  C   C69       1.0  0.61684  0.61142  0.08910  1.0000
  C   C70       1.0  0.88316  0.38858  0.08910  1.0000
  C   C71       1.0  0.61684  0.88858  0.41090  1.0000
  C   C72       1.0  0.88316  0.11142  0.41090  1.0000
  H   H33       1.0  0.36140  0.42110  0.90279  1.0000
  H   H34       1.0  0.13860  0.57890  0.90279  1.0000
  H   H35       1.0  0.36140  0.07890  0.59721  1.0000
  H   H36       1.0  0.13860  0.92110  0.59721  1.0000
  H   H37       1.0  0.63860  0.57890  0.09721  1.0000
  H   H38       1.0  0.86140  0.42110  0.09721  1.0000
  H   H39       1.0  0.63860  0.92110  0.40279  1.0000
  H   H40       1.0  0.86140  0.07890  0.40279  1.0000
  C   C73       1.0  0.43036  0.38812  0.86510  1.0000
  C   C74       1.0  0.06964  0.61188  0.86510  1.0000
  C   C75       1.0  0.43036  0.11188  0.63490  1.0000
  C   C76       1.0  0.06964  0.88812  0.63490  1.0000
  C   C77       1.0  0.56964  0.61188  0.13490  1.0000
  C   C78       1.0  0.93036  0.38812  0.13490  1.0000
  C   C79       1.0  0.56964  0.88812  0.36510  1.0000
  C   C80       1.0  0.93036  0.11188  0.36510  1.0000
  H   H41       1.0  0.43976  0.41980  0.82550  1.0000
  H   H42       1.0  0.06024  0.58020  0.82550  1.0000
  H   H43       1.0  0.43976  0.08020  0.67450  1.0000
  H   H44       1.0  0.06024  0.91980  0.67450  1.0000
  H   H45       1.0  0.56024  0.58020  0.17450  1.0000
  H   H46       1.0  0.93976  0.41980  0.17450  1.0000
  H   H47       1.0  0.56024  0.91980  0.32550  1.0000
  H   H48       1.0  0.93976  0.08020  0.32550  1.0000
  C   C81       1.0  0.46366  0.34052  0.87810  1.0000
  C   C82       1.0  0.03634  0.65948  0.87810  1.0000
  C   C83       1.0  0.46366  0.15948  0.62190  1.0000
  C   C84       1.0  0.03634  0.84052  0.62190  1.0000
  C   C85       1.0  0.53634  0.65948  0.12190  1.0000
  C   C86       1.0  0.96366  0.34052  0.12190  1.0000
  C   C87       1.0  0.53634  0.84052  0.37810  1.0000
  C   C88       1.0  0.96366  0.15948  0.37810  1.0000
  C   C89       1.0  0.44817  0.29346  0.93200  1.0000
  C   C90       1.0  0.05183  0.70654  0.93200  1.0000
  C   C91       1.0  0.44817  0.20654  0.56800  1.0000
  C   C92       1.0  0.05183  0.79346  0.56800  1.0000
  C   C93       1.0  0.55183  0.70654  0.06800  1.0000
  C   C94       1.0  0.94817  0.29346  0.06800  1.0000
  C   C95       1.0  0.55183  0.79346  0.43200  1.0000
  C   C96       1.0  0.94817  0.20654  0.43200  1.0000
  H   H49       1.0  0.46959  0.26048  0.93834  1.0000
  H   H50       1.0  0.03041  0.73952  0.93834  1.0000
  H   H51       1.0  0.46959  0.23952  0.56166  1.0000
  H   H52       1.0  0.03041  0.76048  0.56166  1.0000
  H   H53       1.0  0.53041  0.73952  0.06166  1.0000
  H   H54       1.0  0.96959  0.26048  0.06166  1.0000
  H   H55       1.0  0.53041  0.76048  0.43834  1.0000
  H   H56       1.0  0.96959  0.23952  0.43834  1.0000
  C   C97       1.0  0.40087  0.29366  0.97780  1.0000
  C   C98       1.0  0.09913  0.70634  0.97780  1.0000
  C   C99       1.0  0.40087  0.20634  0.52220  1.0000
  C   C100      1.0  0.09913  0.79366  0.52220  1.0000
  C   C101      1.0  0.59913  0.70634  0.02220  1.0000
  C   C102      1.0  0.90087  0.29366  0.02220  1.0000
  C   C103      1.0  0.59913  0.79366  0.47780  1.0000
  C   C104      1.0  0.90087  0.20634  0.47780  1.0000
  H   H57       1.0  0.39129  0.26113  0.01542  1.0000
  H   H58       1.0  0.10871  0.73887  0.01542  1.0000
  H   H59       1.0  0.39129  0.23887  0.48458  1.0000
  H   H60       1.0  0.10871  0.76113  0.48458  1.0000
  H   H61       1.0  0.60871  0.73887  0.98458  1.0000
  H   H62       1.0  0.89129  0.26113  0.98458  1.0000
  H   H63       1.0  0.60871  0.76113  0.51542  1.0000
  H   H64       1.0  0.89129  0.23887  0.51542  1.0000
  C   C105      1.0  0.51543  0.34029  0.82949  1.0000
  C   C106      1.0  0.98457  0.65971  0.82949  1.0000
  C   C107      1.0  0.51543  0.15971  0.67051  1.0000
  C   C108      1.0  0.98457  0.84029  0.67051  1.0000
  C   C109      1.0  0.48457  0.65971  0.17051  1.0000
  C   C110      1.0  0.01543  0.34029  0.17051  1.0000
  C   C111      1.0  0.48457  0.84029  0.32949  1.0000
  C   C112      1.0  0.01543  0.15971  0.32949  1.0000
  C   C113      1.0  0.06367  0.52577  0.28300  1.0000
  C   C114      1.0  0.43633  0.47423  0.28300  1.0000
  C   C115      1.0  0.06367  0.97423  0.21700  1.0000
  C   C116      1.0  0.43633  0.02577  0.21700  1.0000
  C   C117      1.0  0.93633  0.47423  0.71700  1.0000
  C   C118      1.0  0.56367  0.52577  0.71700  1.0000
  C   C119      1.0  0.93633  0.02577  0.78300  1.0000
  C   C120      1.0  0.56367  0.97423  0.78300  1.0000
  C   C121      1.0  0.06417  0.59319  0.27250  1.0000
  C   C122      1.0  0.43583  0.40681  0.27250  1.0000
  C   C123      1.0  0.06417  0.90681  0.22750  1.0000
  C   C124      1.0  0.43583  0.09319  0.22750  1.0000
  C   C125      1.0  0.93583  0.40681  0.72750  1.0000
  C   C126      1.0  0.56417  0.59319  0.72750  1.0000
  C   C127      1.0  0.93583  0.09319  0.77250  1.0000
  C   C128      1.0  0.56417  0.90681  0.77250  1.0000
  C   C129      1.0  0.02211  0.62626  0.29800  1.0000
  C   C130      1.0  0.47789  0.37374  0.29800  1.0000
  C   C131      1.0  0.02211  0.87374  0.20200  1.0000
  C   C132      1.0  0.47789  0.12626  0.20200  1.0000
  C   C133      1.0  0.97789  0.37374  0.70200  1.0000
  C   C134      1.0  0.52211  0.62626  0.70200  1.0000
  C   C135      1.0  0.97789  0.12626  0.79800  1.0000
  C   C136      1.0  0.52211  0.87374  0.79800  1.0000
  H   H65       1.0  0.99309  0.60732  0.32221  1.0000
  H   H66       1.0  0.50691  0.39268  0.32221  1.0000
  H   H67       1.0  0.99309  0.89268  0.17779  1.0000
  H   H68       1.0  0.50691  0.10732  0.17779  1.0000
  H   H69       1.0  0.00691  0.39268  0.67779  1.0000
  H   H70       1.0  0.49309  0.60732  0.67779  1.0000
  H   H71       1.0  0.00691  0.10732  0.82221  1.0000
  H   H72       1.0  0.49309  0.89268  0.82221  1.0000
  C   C137      1.0  0.02253  0.68736  0.28780  1.0000
  C   C138      1.0  0.47747  0.31264  0.28780  1.0000
  C   C139      1.0  0.02253  0.81264  0.21220  1.0000
  C   C140      1.0  0.47747  0.18736  0.21220  1.0000
  C   C141      1.0  0.97747  0.31264  0.71220  1.0000
  C   C142      1.0  0.52253  0.68736  0.71220  1.0000
  C   C143      1.0  0.97747  0.18736  0.78780  1.0000
  C   C144      1.0  0.52253  0.81264  0.78780  1.0000
  H   H73       1.0  0.99333  0.70942  0.30256  1.0000
  H   H74       1.0  0.50667  0.29058  0.30256  1.0000
  H   H75       1.0  0.99333  0.79058  0.19744  1.0000
  H   H76       1.0  0.50667  0.20942  0.19744  1.0000
  H   H77       1.0  0.00667  0.29058  0.69744  1.0000
  H   H78       1.0  0.49333  0.70942  0.69744  1.0000
  H   H79       1.0  0.00667  0.20942  0.80256  1.0000
  H   H80       1.0  0.49333  0.79058  0.80256  1.0000
  C   C145      1.0  0.06783  0.71698  0.25460  1.0000
  C   C146      1.0  0.43217  0.28302  0.25460  1.0000
  C   C147      1.0  0.06783  0.78302  0.24540  1.0000
  C   C148      1.0  0.43217  0.21698  0.24540  1.0000
  C   C149      1.0  0.93217  0.28302  0.74540  1.0000
  C   C150      1.0  0.56783  0.71698  0.74540  1.0000
  C   C151      1.0  0.93217  0.21698  0.75460  1.0000
  C   C152      1.0  0.56783  0.78302  0.75460  1.0000
  C   C153      1.0  0.10849  0.68299  0.23190  1.0000
  C   C154      1.0  0.39151  0.31701  0.23190  1.0000
  C   C155      1.0  0.10849  0.81701  0.26810  1.0000
  C   C156      1.0  0.39151  0.18299  0.26810  1.0000
  C   C157      1.0  0.89151  0.31701  0.76810  1.0000
  C   C158      1.0  0.60849  0.68299  0.76810  1.0000
  C   C159      1.0  0.89151  0.18299  0.73190  1.0000
  C   C160      1.0  0.60849  0.81701  0.73190  1.0000
  H   H81       1.0  0.13838  0.70139  0.21047  1.0000
  H   H82       1.0  0.36162  0.29861  0.21047  1.0000
  H   H83       1.0  0.13838  0.79861  0.28953  1.0000
  H   H84       1.0  0.36162  0.20139  0.28953  1.0000
  H   H85       1.0  0.86162  0.29861  0.78953  1.0000
  H   H86       1.0  0.63838  0.70139  0.78953  1.0000
  H   H87       1.0  0.86162  0.20139  0.71047  1.0000
  H   H88       1.0  0.63838  0.79861  0.71047  1.0000
  C   C161      1.0  0.10730  0.62031  0.23970  1.0000
  C   C162      1.0  0.39270  0.37969  0.23970  1.0000
  C   C163      1.0  0.10730  0.87969  0.26030  1.0000
  C   C164      1.0  0.39270  0.12031  0.26030  1.0000
  C   C165      1.0  0.89270  0.37969  0.76030  1.0000
  C   C166      1.0  0.60730  0.62031  0.76030  1.0000
  C   C167      1.0  0.89270  0.12031  0.73970  1.0000
  C   C168      1.0  0.60730  0.87969  0.73970  1.0000
  H   H89       1.0  0.13581  0.59774  0.22242  1.0000
  H   H90       1.0  0.36419  0.40226  0.22242  1.0000
  H   H91       1.0  0.13581  0.90226  0.27758  1.0000
  H   H92       1.0  0.36419  0.09774  0.27758  1.0000
  H   H93       1.0  0.86419  0.40226  0.77758  1.0000
  H   H94       1.0  0.63581  0.59774  0.77758  1.0000
  H   H95       1.0  0.86419  0.09774  0.72242  1.0000
  H   H96       1.0  0.63581  0.90226  0.72242  1.0000
  C   C169      1.0  0.10297  0.34818  0.42410  1.0000
  C   C170      1.0  0.39703  0.65182  0.42410  1.0000
  C   C171      1.0  0.10297  0.15182  0.07590  1.0000
  C   C172      1.0  0.39703  0.84818  0.07590  1.0000
  C   C173      1.0  0.89703  0.65182  0.57590  1.0000
  C   C174      1.0  0.60297  0.34818  0.57590  1.0000
  C   C175      1.0  0.89703  0.84818  0.92410  1.0000
  C   C176      1.0  0.60297  0.15182  0.92410  1.0000
  C   C177      1.0  0.10809  0.31852  0.52001  1.0000
  C   C178      1.0  0.39191  0.68148  0.52001  1.0000
  C   C179      1.0  0.10809  0.18148  0.97999  1.0000
  C   C180      1.0  0.39191  0.81852  0.97999  1.0000
  C   C181      1.0  0.89191  0.68148  0.47999  1.0000
  C   C182      1.0  0.60809  0.31852  0.47999  1.0000
  C   C183      1.0  0.89191  0.81852  0.02001  1.0000
  C   C184      1.0  0.60809  0.18148  0.02001  1.0000
  C   C185      1.0  0.12275  0.35150  0.60074  1.0000
  C   C186      1.0  0.37725  0.64850  0.60074  1.0000
  C   C187      1.0  0.12275  0.14850  0.89926  1.0000
  C   C188      1.0  0.37725  0.85150  0.89926  1.0000
  C   C189      1.0  0.87725  0.64850  0.39926  1.0000
  C   C190      1.0  0.62275  0.35150  0.39926  1.0000
  C   C191      1.0  0.87725  0.85150  0.10074  1.0000
  C   C192      1.0  0.62275  0.14850  0.10074  1.0000
  H   H97       1.0  0.13037  0.39187  0.59441  1.0000
  H   H98       1.0  0.36963  0.60813  0.59441  1.0000
  H   H99       1.0  0.13037  0.10813  0.90559  1.0000
  H   H100      1.0  0.36963  0.89187  0.90559  1.0000
  H   H101      1.0  0.86963  0.60813  0.40559  1.0000
  H   H102      1.0  0.63037  0.39187  0.40559  1.0000
  H   H103      1.0  0.86963  0.89187  0.09441  1.0000
  H   H104      1.0  0.63037  0.10813  0.09441  1.0000
  C   C193      1.0  0.12600  0.32443  0.69018  1.0000
  C   C194      1.0  0.37400  0.67557  0.69018  1.0000
  C   C195      1.0  0.12600  0.17557  0.80982  1.0000
  C   C196      1.0  0.37400  0.82443  0.80982  1.0000
  C   C197      1.0  0.87400  0.67557  0.30982  1.0000
  C   C198      1.0  0.62600  0.32443  0.30982  1.0000
  C   C199      1.0  0.87400  0.82443  0.19018  1.0000
  C   C200      1.0  0.62600  0.17557  0.19018  1.0000
  H   H105      1.0  0.13631  0.34668  0.74339  1.0000
  H   H106      1.0  0.36369  0.65332  0.74339  1.0000
  H   H107      1.0  0.13631  0.15332  0.75661  1.0000
  H   H108      1.0  0.36369  0.84668  0.75661  1.0000
  H   H109      1.0  0.86369  0.65332  0.25661  1.0000
  H   H110      1.0  0.63631  0.34668  0.25661  1.0000
  H   H111      1.0  0.86369  0.84668  0.24339  1.0000
  H   H112      1.0  0.63631  0.15332  0.24339  1.0000
  C   C201      1.0  0.11403  0.26429  0.70144  1.0000
  C   C202      1.0  0.38597  0.73571  0.70144  1.0000
  C   C203      1.0  0.11403  0.23571  0.79856  1.0000
  C   C204      1.0  0.38597  0.76429  0.79856  1.0000
  C   C205      1.0  0.88597  0.73571  0.29856  1.0000
  C   C206      1.0  0.61403  0.26429  0.29856  1.0000
  C   C207      1.0  0.88597  0.76429  0.20144  1.0000
  C   C208      1.0  0.61403  0.23571  0.20144  1.0000
  C   C209      1.0  0.10039  0.23150  0.61986  1.0000
  C   C210      1.0  0.39961  0.76850  0.61986  1.0000
  C   C211      1.0  0.10039  0.26850  0.88014  1.0000
  C   C212      1.0  0.39961  0.73150  0.88014  1.0000
  C   C213      1.0  0.89961  0.76850  0.38014  1.0000
  C   C214      1.0  0.60039  0.23150  0.38014  1.0000
  C   C215      1.0  0.89961  0.73150  0.11986  1.0000
  C   C216      1.0  0.60039  0.26850  0.11986  1.0000
  H   H113      1.0  0.09290  0.19108  0.62590  1.0000
  H   H114      1.0  0.40710  0.80892  0.62590  1.0000
  H   H115      1.0  0.09290  0.30892  0.87410  1.0000
  H   H116      1.0  0.40710  0.69108  0.87410  1.0000
  H   H117      1.0  0.90710  0.80892  0.37410  1.0000
  H   H118      1.0  0.59290  0.19108  0.37410  1.0000
  H   H119      1.0  0.90710  0.69108  0.12590  1.0000
  H   H120      1.0  0.59290  0.30892  0.12590  1.0000
  C   C217      1.0  0.09784  0.25833  0.52995  1.0000
  C   C218      1.0  0.40216  0.74167  0.52995  1.0000
  C   C219      1.0  0.09784  0.24167  0.97005  1.0000
  C   C220      1.0  0.40216  0.75833  0.97005  1.0000
  C   C221      1.0  0.90216  0.74167  0.47005  1.0000
  C   C222      1.0  0.59784  0.25833  0.47005  1.0000
  C   C223      1.0  0.90216  0.75833  0.02995  1.0000
  C   C224      1.0  0.59784  0.24167  0.02995  1.0000
  H   H121      1.0  0.08920  0.23572  0.47609  1.0000
  H   H122      1.0  0.41080  0.76428  0.47609  1.0000
  H   H123      1.0  0.08920  0.26428  0.02391  1.0000
  H   H124      1.0  0.41080  0.73572  0.02391  1.0000
  H   H125      1.0  0.91080  0.76428  0.52391  1.0000
  H   H126      1.0  0.58920  0.23572  0.52391  1.0000
  H   H127      1.0  0.91080  0.73572  0.97609  1.0000
  H   H128      1.0  0.58920  0.26428  0.97609  1.0000
