data_image0
_chemical_formula_structural       Co12O64C24H8C8H8C16H8C8H8C16H8C8H8C16H8C8H8C32H8C8H8C16H8C8H8C24H8C8H8C16H8C8H8
_chemical_formula_sum              "Co12 O64 C224 H128"
_cell_length_a       26.0789
_cell_length_b       22.3894
_cell_length_c       13.9388
_cell_angle_alpha    90
_cell_angle_beta     90
_cell_angle_gamma    90

_space_group_name_H-M_alt    "P 1"
_space_group_IT_number       1

loop_
  _space_group_symop_operation_xyz
  'x, y, z'

loop_
  _atom_site_type_symbol
  _atom_site_label
  _atom_site_symmetry_multiplicity
  _atom_site_fract_x
  _atom_site_fract_y
  _atom_site_fract_z
  _atom_site_occupancy
  Co  Co1       1.0  0.09447  0.40992  0.27329  1.0000
  Co  Co2       1.0  0.40553  0.59008  0.27329  1.0000
  Co  Co3       1.0  0.40553  0.90992  0.22671  1.0000
  Co  Co4       1.0  0.09447  0.09008  0.22671  1.0000
  Co  Co5       1.0  0.90553  0.59008  0.72671  1.0000
  Co  Co6       1.0  0.59447  0.40992  0.72671  1.0000
  Co  Co7       1.0  0.59447  0.09008  0.77329  1.0000
  Co  Co8       1.0  0.90553  0.90992  0.77329  1.0000
  Co  Co9       1.0  0.09461  0.25000  0.25000  1.0000
  Co  Co10      1.0  0.40539  0.75000  0.25000  1.0000
  Co  Co11      1.0  0.90539  0.75000  0.75000  1.0000
  Co  Co12      1.0  0.59461  0.25000  0.75000  1.0000
  O   O1        1.0  0.15900  0.38776  0.20613  1.0000
  O   O2        1.0  0.34100  0.61224  0.20613  1.0000
  O   O3        1.0  0.34100  0.88776  0.29387  1.0000
  O   O4        1.0  0.15900  0.11224  0.29387  1.0000
  O   O5        1.0  0.84100  0.61224  0.79387  1.0000
  O   O6        1.0  0.65900  0.38776  0.79387  1.0000
  O   O7        1.0  0.65900  0.11224  0.70613  1.0000
  O   O8        1.0  0.84100  0.88776  0.70613  1.0000
  O   O9        1.0  0.15138  0.29048  0.17325  1.0000
  O   O10       1.0  0.34862  0.70952  0.17325  1.0000
  O   O11       1.0  0.34862  0.79048  0.32675  1.0000
  O   O12       1.0  0.15138  0.20952  0.32675  1.0000
  O   O13       1.0  0.84862  0.70952  0.82675  1.0000
  O   O14       1.0  0.65138  0.29048  0.82675  1.0000
  O   O15       1.0  0.65138  0.20952  0.67325  1.0000
  O   O16       1.0  0.84862  0.79048  0.67325  1.0000
  O   O17       1.0  0.53163  0.38806  0.79766  1.0000
  O   O18       1.0  0.96837  0.61194  0.79766  1.0000
  O   O19       1.0  0.96837  0.88806  0.70234  1.0000
  O   O20       1.0  0.53163  0.11194  0.70234  1.0000
  O   O21       1.0  0.46837  0.61194  0.20234  1.0000
  O   O22       1.0  0.03163  0.38806  0.20234  1.0000
  O   O23       1.0  0.03163  0.11194  0.29766  1.0000
  O   O24       1.0  0.46837  0.88806  0.29766  1.0000
  O   O25       1.0  0.53831  0.29077  0.82814  1.0000
  O   O26       1.0  0.96169  0.70923  0.82814  1.0000
  O   O27       1.0  0.96169  0.79077  0.67186  1.0000
  O   O28       1.0  0.53831  0.20923  0.67186  1.0000
  O   O29       1.0  0.46169  0.70923  0.17186  1.0000
  O   O30       1.0  0.03831  0.29077  0.17186  1.0000
  O   O31       1.0  0.03831  0.20923  0.32814  1.0000
  O   O32       1.0  0.46169  0.79077  0.32814  1.0000
  O   O33       1.0  0.10309  0.49693  0.24733  1.0000
  O   O34       1.0  0.39691  0.50307  0.24733  1.0000
  O   O35       1.0  0.39691  0.99693  0.25267  1.0000
  O   O36       1.0  0.10309  0.00307  0.25267  1.0000
  O   O37       1.0  0.89691  0.50307  0.75267  1.0000
  O   O38       1.0  0.60309  0.49693  0.75267  1.0000
  O   O39       1.0  0.60309  0.00307  0.74733  1.0000
  O   O40       1.0  0.89691  0.99693  0.74733  1.0000
  O   O41       1.0  0.02997  0.50105  0.32030  1.0000
  O   O42       1.0  0.47003  0.49895  0.32030  1.0000
  O   O43       1.0  0.47003  0.00105  0.17970  1.0000
  O   O44       1.0  0.02997  0.99895  0.17970  1.0000
  O   O45       1.0  0.97003  0.49895  0.67970  1.0000
  O   O46       1.0  0.52997  0.50105  0.67970  1.0000
  O   O47       1.0  0.52997  0.99895  0.82030  1.0000
  O   O48       1.0  0.97003  0.00105  0.82030  1.0000
  O   O49       1.0  0.10831  0.40476  0.41953  1.0000
  O   O50       1.0  0.39169  0.59524  0.41953  1.0000
  O   O51       1.0  0.39169  0.90476  0.08047  1.0000
  O   O52       1.0  0.10831  0.09524  0.08047  1.0000
  O   O53       1.0  0.89169  0.59524  0.58047  1.0000
  O   O54       1.0  0.60831  0.40476  0.58047  1.0000
  O   O55       1.0  0.60831  0.09524  0.91953  1.0000
  O   O56       1.0  0.89169  0.90476  0.91953  1.0000
  O   O57       1.0  0.09231  0.32061  0.35214  1.0000
  O   O58       1.0  0.40769  0.67939  0.35214  1.0000
  O   O59       1.0  0.40769  0.82061  0.14786  1.0000
  O   O60       1.0  0.09231  0.17939  0.14786  1.0000
  O   O61       1.0  0.90769  0.67939  0.64786  1.0000
  O   O62       1.0  0.59231  0.32061  0.64786  1.0000
  O   O63       1.0  0.59231  0.17939  0.85214  1.0000
  O   O64       1.0  0.90769  0.82061  0.85214  1.0000
  C   C1        1.0  0.17389  0.33929  0.17039  1.0000
  C   C2        1.0  0.32611  0.66071  0.17039  1.0000
  C   C3        1.0  0.32611  0.83929  0.32961  1.0000
  C   C4        1.0  0.17389  0.16071  0.32961  1.0000
  C   C5        1.0  0.82611  0.66071  0.82961  1.0000
  C   C6        1.0  0.67389  0.33929  0.82961  1.0000
  C   C7        1.0  0.67389  0.16071  0.67039  1.0000
  C   C8        1.0  0.82611  0.83929  0.67039  1.0000
  C   C9        1.0  0.22436  0.34057  0.11830  1.0000
  C   C10       1.0  0.27564  0.65943  0.11830  1.0000
  C   C11       1.0  0.27564  0.84057  0.38170  1.0000
  C   C12       1.0  0.22436  0.15943  0.38170  1.0000
  C   C13       1.0  0.77564  0.65943  0.88170  1.0000
  C   C14       1.0  0.72436  0.34057  0.88170  1.0000
  C   C15       1.0  0.72436  0.15943  0.61830  1.0000
  C   C16       1.0  0.77564  0.84057  0.61830  1.0000
  C   C17       1.0  0.24913  0.39389  0.09910  1.0000
  C   C18       1.0  0.25087  0.60611  0.09910  1.0000
  C   C19       1.0  0.25087  0.89389  0.40090  1.0000
  C   C20       1.0  0.24913  0.10611  0.40090  1.0000
  C   C21       1.0  0.75087  0.60611  0.90090  1.0000
  C   C22       1.0  0.74913  0.39389  0.90090  1.0000
  C   C23       1.0  0.74913  0.10611  0.59910  1.0000
  C   C24       1.0  0.75087  0.89389  0.59910  1.0000
  H   H1        1.0  0.23447  0.42980  0.11842  1.0000
  H   H2        1.0  0.26553  0.57020  0.11842  1.0000
  H   H3        1.0  0.26553  0.92980  0.38158  1.0000
  H   H4        1.0  0.23447  0.07020  0.38158  1.0000
  H   H5        1.0  0.76553  0.57020  0.88158  1.0000
  H   H6        1.0  0.73447  0.42980  0.88158  1.0000
  H   H7        1.0  0.73447  0.07020  0.61842  1.0000
  H   H8        1.0  0.76553  0.92980  0.61842  1.0000
  C   C25       1.0  0.29552  0.39397  0.05150  1.0000
  C   C26       1.0  0.20448  0.60603  0.05150  1.0000
  C   C27       1.0  0.20448  0.89397  0.44850  1.0000
  C   C28       1.0  0.29552  0.10603  0.44850  1.0000
  C   C29       1.0  0.70448  0.60603  0.94850  1.0000
  C   C30       1.0  0.79552  0.39397  0.94850  1.0000
  C   C31       1.0  0.79552  0.10603  0.55150  1.0000
  C   C32       1.0  0.70448  0.89397  0.55150  1.0000
  H   H9        1.0  0.31170  0.43014  0.03892  1.0000
  H   H10       1.0  0.18830  0.56986  0.03892  1.0000
  H   H11       1.0  0.18830  0.93014  0.46108  1.0000
  H   H12       1.0  0.31170  0.06986  0.46108  1.0000
  H   H13       1.0  0.68830  0.56986  0.96108  1.0000
  H   H14       1.0  0.81170  0.43014  0.96108  1.0000
  H   H15       1.0  0.81170  0.06986  0.53892  1.0000
  H   H16       1.0  0.68830  0.93014  0.53892  1.0000
  C   C33       1.0  0.31832  0.34162  0.02230  1.0000
  C   C34       1.0  0.18168  0.65838  0.02230  1.0000
  C   C35       1.0  0.18168  0.84162  0.47770  1.0000
  C   C36       1.0  0.31832  0.15838  0.47770  1.0000
  C   C37       1.0  0.68168  0.65838  0.97770  1.0000
  C   C38       1.0  0.81832  0.34162  0.97770  1.0000
  C   C39       1.0  0.81832  0.15838  0.52230  1.0000
  C   C40       1.0  0.68168  0.84162  0.52230  1.0000
  C   C41       1.0  0.29330  0.28847  0.04130  1.0000
  C   C42       1.0  0.20670  0.71153  0.04130  1.0000
  C   C43       1.0  0.20670  0.78847  0.45870  1.0000
  C   C44       1.0  0.29330  0.21153  0.45870  1.0000
  C   C45       1.0  0.70670  0.71153  0.95870  1.0000
  C   C46       1.0  0.79330  0.28847  0.95870  1.0000
  C   C47       1.0  0.79330  0.21153  0.54130  1.0000
  C   C48       1.0  0.70670  0.78847  0.54130  1.0000
  H   H17       1.0  0.30799  0.25266  0.02158  1.0000
  H   H18       1.0  0.19201  0.74734  0.02158  1.0000
  H   H19       1.0  0.19201  0.75266  0.47842  1.0000
  H   H20       1.0  0.30799  0.24734  0.47842  1.0000
  H   H21       1.0  0.69201  0.74734  0.97842  1.0000
  H   H22       1.0  0.80799  0.25266  0.97842  1.0000
  H   H23       1.0  0.80799  0.24734  0.52158  1.0000
  H   H24       1.0  0.69201  0.75266  0.52158  1.0000
  C   C49       1.0  0.24704  0.28764  0.08870  1.0000
  C   C50       1.0  0.25296  0.71236  0.08870  1.0000
  C   C51       1.0  0.25296  0.78764  0.41130  1.0000
  C   C52       1.0  0.24704  0.21236  0.41130  1.0000
  C   C53       1.0  0.75296  0.71236  0.91130  1.0000
  C   C54       1.0  0.74704  0.28764  0.91130  1.0000
  C   C55       1.0  0.74704  0.21236  0.58870  1.0000
  C   C56       1.0  0.75296  0.78764  0.58870  1.0000
  H   H25       1.0  0.23090  0.25140  0.10103  1.0000
  H   H26       1.0  0.26910  0.74860  0.10103  1.0000
  H   H27       1.0  0.26910  0.75140  0.39897  1.0000
  H   H28       1.0  0.23090  0.24860  0.39897  1.0000
  H   H29       1.0  0.76910  0.74860  0.89897  1.0000
  H   H30       1.0  0.73090  0.25140  0.89897  1.0000
  H   H31       1.0  0.73090  0.24860  0.60103  1.0000
  H   H32       1.0  0.76910  0.75140  0.60103  1.0000
  C   C57       1.0  0.36948  0.34169  0.97360  1.0000
  C   C58       1.0  0.13052  0.65831  0.97360  1.0000
  C   C59       1.0  0.13052  0.84169  0.52640  1.0000
  C   C60       1.0  0.36948  0.15831  0.52640  1.0000
  C   C61       1.0  0.63052  0.65831  0.02640  1.0000
  C   C62       1.0  0.86948  0.34169  0.02640  1.0000
  C   C63       1.0  0.86948  0.15831  0.47360  1.0000
  C   C64       1.0  0.63052  0.84169  0.47360  1.0000
  C   C65       1.0  0.38627  0.38843  0.92230  1.0000
  C   C66       1.0  0.11373  0.61157  0.92230  1.0000
  C   C67       1.0  0.11373  0.88843  0.57770  1.0000
  C   C68       1.0  0.38627  0.11157  0.57770  1.0000
  C   C69       1.0  0.61373  0.61157  0.07770  1.0000
  C   C70       1.0  0.88627  0.38843  0.07770  1.0000
  C   C71       1.0  0.88627  0.11157  0.42230  1.0000
  C   C72       1.0  0.61373  0.88843  0.42230  1.0000
  H   H33       1.0  0.36565  0.42221  0.91779  1.0000
  H   H34       1.0  0.13435  0.57779  0.91779  1.0000
  H   H35       1.0  0.13435  0.92221  0.58221  1.0000
  H   H36       1.0  0.36565  0.07779  0.58221  1.0000
  H   H37       1.0  0.63435  0.57779  0.08221  1.0000
  H   H38       1.0  0.86565  0.42221  0.08221  1.0000
  H   H39       1.0  0.86565  0.07779  0.41779  1.0000
  H   H40       1.0  0.63435  0.92221  0.41779  1.0000
  C   C73       1.0  0.43338  0.38822  0.87560  1.0000
  C   C74       1.0  0.06662  0.61178  0.87560  1.0000
  C   C75       1.0  0.06662  0.88822  0.62440  1.0000
  C   C76       1.0  0.43338  0.11178  0.62440  1.0000
  C   C77       1.0  0.56662  0.61178  0.12440  1.0000
  C   C78       1.0  0.93338  0.38822  0.12440  1.0000
  C   C79       1.0  0.93338  0.11178  0.37560  1.0000
  C   C80       1.0  0.56662  0.88822  0.37560  1.0000
  H   H41       1.0  0.44325  0.42128  0.83966  1.0000
  H   H42       1.0  0.05675  0.57872  0.83966  1.0000
  H   H43       1.0  0.05675  0.92128  0.66034  1.0000
  H   H44       1.0  0.44325  0.07872  0.66034  1.0000
  H   H45       1.0  0.55675  0.57872  0.16034  1.0000
  H   H46       1.0  0.94325  0.42128  0.16034  1.0000
  H   H47       1.0  0.94325  0.07872  0.33966  1.0000
  H   H48       1.0  0.55675  0.92128  0.33966  1.0000
  C   C81       1.0  0.46521  0.34022  0.88180  1.0000
  C   C82       1.0  0.03479  0.65978  0.88180  1.0000
  C   C83       1.0  0.03479  0.84022  0.61820  1.0000
  C   C84       1.0  0.46521  0.15978  0.61820  1.0000
  C   C85       1.0  0.53479  0.65978  0.11820  1.0000
  C   C86       1.0  0.96521  0.34022  0.11820  1.0000
  C   C87       1.0  0.96521  0.15978  0.38180  1.0000
  C   C88       1.0  0.53479  0.84022  0.38180  1.0000
  C   C89       1.0  0.44914  0.29346  0.93440  1.0000
  C   C90       1.0  0.05086  0.70654  0.93440  1.0000
  C   C91       1.0  0.05086  0.79346  0.56560  1.0000
  C   C92       1.0  0.44914  0.20654  0.56560  1.0000
  C   C93       1.0  0.55086  0.70654  0.06560  1.0000
  C   C94       1.0  0.94914  0.29346  0.06560  1.0000
  C   C95       1.0  0.94914  0.20654  0.43440  1.0000
  C   C96       1.0  0.55086  0.79346  0.43440  1.0000
  H   H49       1.0  0.46996  0.25992  0.94000  1.0000
  H   H50       1.0  0.03004  0.74008  0.94000  1.0000
  H   H51       1.0  0.03004  0.75992  0.56000  1.0000
  H   H52       1.0  0.46996  0.24008  0.56000  1.0000
  H   H53       1.0  0.53004  0.74008  0.06000  1.0000
  H   H54       1.0  0.96996  0.25992  0.06000  1.0000
  H   H55       1.0  0.96996  0.24008  0.44000  1.0000
  H   H56       1.0  0.53004  0.75992  0.44000  1.0000
  C   C97       1.0  0.40213  0.29448  0.98050  1.0000
  C   C98       1.0  0.09787  0.70552  0.98050  1.0000
  C   C99       1.0  0.09787  0.79448  0.51950  1.0000
  C   C100      1.0  0.40213  0.20552  0.51950  1.0000
  C   C101      1.0  0.59787  0.70552  0.01950  1.0000
  C   C102      1.0  0.90213  0.29448  0.01950  1.0000
  C   C103      1.0  0.90213  0.20552  0.48050  1.0000
  C   C104      1.0  0.59787  0.79448  0.48050  1.0000
  H   H57       1.0  0.39252  0.26174  0.01736  1.0000
  H   H58       1.0  0.10748  0.73826  0.01736  1.0000
  H   H59       1.0  0.10748  0.76174  0.48264  1.0000
  H   H60       1.0  0.39252  0.23826  0.48264  1.0000
  H   H61       1.0  0.60748  0.73826  0.98264  1.0000
  H   H62       1.0  0.89252  0.26174  0.98264  1.0000
  H   H63       1.0  0.89252  0.23826  0.51736  1.0000
  H   H64       1.0  0.60748  0.76174  0.51736  1.0000
  C   C105      1.0  0.51614  0.33941  0.83180  1.0000
  C   C106      1.0  0.98386  0.66059  0.83180  1.0000
  C   C107      1.0  0.98386  0.83941  0.66820  1.0000
  C   C108      1.0  0.51614  0.16059  0.66820  1.0000
  C   C109      1.0  0.48386  0.66059  0.16820  1.0000
  C   C110      1.0  0.01614  0.33941  0.16820  1.0000
  C   C111      1.0  0.01614  0.16059  0.33180  1.0000
  C   C112      1.0  0.48386  0.83941  0.33180  1.0000
  C   C113      1.0  0.06656  0.52484  0.27880  1.0000
  C   C114      1.0  0.43344  0.47516  0.27880  1.0000
  C   C115      1.0  0.43344  0.02484  0.22120  1.0000
  C   C116      1.0  0.06656  0.97516  0.22120  1.0000
  C   C117      1.0  0.93344  0.47516  0.72120  1.0000
  C   C118      1.0  0.56656  0.52484  0.72120  1.0000
  C   C119      1.0  0.56656  0.97516  0.77880  1.0000
  C   C120      1.0  0.93344  0.02484  0.77880  1.0000
  C   C121      1.0  0.06715  0.59296  0.26920  1.0000
  C   C122      1.0  0.43285  0.40704  0.26920  1.0000
  C   C123      1.0  0.43285  0.09296  0.23080  1.0000
  C   C124      1.0  0.06715  0.90704  0.23080  1.0000
  C   C125      1.0  0.93285  0.40704  0.73080  1.0000
  C   C126      1.0  0.56715  0.59296  0.73080  1.0000
  C   C127      1.0  0.56715  0.90704  0.76920  1.0000
  C   C128      1.0  0.93285  0.09296  0.76920  1.0000
  C   C129      1.0  0.02444  0.62584  0.29100  1.0000
  C   C130      1.0  0.47556  0.37416  0.29100  1.0000
  C   C131      1.0  0.47556  0.12584  0.20900  1.0000
  C   C132      1.0  0.02444  0.87416  0.20900  1.0000
  C   C133      1.0  0.97556  0.37416  0.70900  1.0000
  C   C134      1.0  0.52444  0.62584  0.70900  1.0000
  C   C135      1.0  0.52444  0.87416  0.79100  1.0000
  C   C136      1.0  0.97556  0.12584  0.79100  1.0000
  H   H65       1.0  0.99481  0.60689  0.31229  1.0000
  H   H66       1.0  0.50519  0.39311  0.31229  1.0000
  H   H67       1.0  0.50519  0.10689  0.18771  1.0000
  H   H68       1.0  0.99481  0.89311  0.18771  1.0000
  H   H69       1.0  0.00519  0.39311  0.68771  1.0000
  H   H70       1.0  0.49481  0.60689  0.68771  1.0000
  H   H71       1.0  0.49481  0.89311  0.81229  1.0000
  H   H72       1.0  0.00519  0.10689  0.81229  1.0000
  C   C137      1.0  0.02545  0.68712  0.28130  1.0000
  C   C138      1.0  0.47455  0.31288  0.28130  1.0000
  C   C139      1.0  0.47455  0.18712  0.21870  1.0000
  C   C140      1.0  0.02545  0.81288  0.21870  1.0000
  C   C141      1.0  0.97455  0.31288  0.71870  1.0000
  C   C142      1.0  0.52545  0.68712  0.71870  1.0000
  C   C143      1.0  0.52545  0.81288  0.78130  1.0000
  C   C144      1.0  0.97455  0.18712  0.78130  1.0000
  H   H73       1.0  0.99576  0.70900  0.29275  1.0000
  H   H74       1.0  0.50424  0.29100  0.29275  1.0000
  H   H75       1.0  0.50424  0.20900  0.20725  1.0000
  H   H76       1.0  0.99576  0.79100  0.20725  1.0000
  H   H77       1.0  0.00424  0.29100  0.70725  1.0000
  H   H78       1.0  0.49576  0.70900  0.70725  1.0000
  H   H79       1.0  0.49576  0.79100  0.79275  1.0000
  H   H80       1.0  0.00424  0.20900  0.79275  1.0000
  C   C145      1.0  0.07004  0.71676  0.25470  1.0000
  C   C146      1.0  0.42996  0.28324  0.25470  1.0000
  C   C147      1.0  0.42996  0.21676  0.24530  1.0000
  C   C148      1.0  0.07004  0.78324  0.24530  1.0000
  C   C149      1.0  0.92996  0.28324  0.74530  1.0000
  C   C150      1.0  0.57004  0.71676  0.74530  1.0000
  C   C151      1.0  0.57004  0.78324  0.75470  1.0000
  C   C152      1.0  0.92996  0.21676  0.75470  1.0000
  C   C153      1.0  0.11176  0.68341  0.23650  1.0000
  C   C154      1.0  0.38824  0.31659  0.23650  1.0000
  C   C155      1.0  0.38824  0.18341  0.26350  1.0000
  C   C156      1.0  0.11176  0.81659  0.26350  1.0000
  C   C157      1.0  0.88824  0.31659  0.76350  1.0000
  C   C158      1.0  0.61176  0.68341  0.76350  1.0000
  C   C159      1.0  0.61176  0.81659  0.73650  1.0000
  C   C160      1.0  0.88824  0.18341  0.73650  1.0000
  H   H81       1.0  0.14224  0.70215  0.21939  1.0000
  H   H82       1.0  0.35776  0.29785  0.21939  1.0000
  H   H83       1.0  0.35776  0.20215  0.28061  1.0000
  H   H84       1.0  0.14224  0.79785  0.28061  1.0000
  H   H85       1.0  0.85776  0.29785  0.78061  1.0000
  H   H86       1.0  0.64224  0.70215  0.78061  1.0000
  H   H87       1.0  0.64224  0.79785  0.71939  1.0000
  H   H88       1.0  0.85776  0.20215  0.71939  1.0000
  C   C161      1.0  0.11026  0.62029  0.24290  1.0000
  C   C162      1.0  0.38974  0.37971  0.24290  1.0000
  C   C163      1.0  0.38974  0.12029  0.25710  1.0000
  C   C164      1.0  0.11026  0.87971  0.25710  1.0000
  C   C165      1.0  0.88974  0.37971  0.75710  1.0000
  C   C166      1.0  0.61026  0.62029  0.75710  1.0000
  C   C167      1.0  0.61026  0.87971  0.74290  1.0000
  C   C168      1.0  0.88974  0.12029  0.74290  1.0000
  H   H89       1.0  0.13936  0.59796  0.22869  1.0000
  H   H90       1.0  0.36064  0.40204  0.22869  1.0000
  H   H91       1.0  0.36064  0.09796  0.27131  1.0000
  H   H92       1.0  0.13936  0.90204  0.27131  1.0000
  H   H93       1.0  0.86064  0.40204  0.77131  1.0000
  H   H94       1.0  0.63936  0.59796  0.77131  1.0000
  H   H95       1.0  0.63936  0.90204  0.72869  1.0000
  H   H96       1.0  0.86064  0.09796  0.72869  1.0000
  C   C169      1.0  0.10297  0.34918  0.42564  1.0000
  C   C170      1.0  0.39703  0.65082  0.42564  1.0000
  C   C171      1.0  0.39703  0.84918  0.07436  1.0000
  C   C172      1.0  0.10297  0.15082  0.07436  1.0000
  C   C173      1.0  0.89703  0.65082  0.57436  1.0000
  C   C174      1.0  0.60297  0.34918  0.57436  1.0000
  C   C175      1.0  0.60297  0.15082  0.92564  1.0000
  C   C176      1.0  0.89703  0.84918  0.92564  1.0000
  C   C177      1.0  0.10716  0.31913  0.52105  1.0000
  C   C178      1.0  0.39284  0.68087  0.52105  1.0000
  C   C179      1.0  0.39284  0.81913  0.97895  1.0000
  C   C180      1.0  0.10716  0.18087  0.97895  1.0000
  C   C181      1.0  0.89284  0.68087  0.47895  1.0000
  C   C182      1.0  0.60716  0.31913  0.47895  1.0000
  C   C183      1.0  0.60716  0.18087  0.02105  1.0000
  C   C184      1.0  0.89284  0.81913  0.02105  1.0000
  C   C185      1.0  0.11981  0.35115  0.60160  1.0000
  C   C186      1.0  0.38019  0.64885  0.60160  1.0000
  C   C187      1.0  0.38019  0.85115  0.89840  1.0000
  C   C188      1.0  0.11981  0.14885  0.89840  1.0000
  C   C189      1.0  0.88019  0.64885  0.39840  1.0000
  C   C190      1.0  0.61981  0.35115  0.39840  1.0000
  C   C191      1.0  0.61981  0.14885  0.10160  1.0000
  C   C192      1.0  0.88019  0.85115  0.10160  1.0000
  H   H97       1.0  0.12678  0.39174  0.59601  1.0000
  H   H98       1.0  0.37322  0.60826  0.59601  1.0000
  H   H99       1.0  0.37322  0.89174  0.90399  1.0000
  H   H100      1.0  0.12678  0.10826  0.90399  1.0000
  H   H101      1.0  0.87322  0.60826  0.40399  1.0000
  H   H102      1.0  0.62678  0.39174  0.40399  1.0000
  H   H103      1.0  0.62678  0.10826  0.09601  1.0000
  H   H104      1.0  0.87322  0.89174  0.09601  1.0000
  C   C193      1.0  0.12242  0.32447  0.69060  1.0000
  C   C194      1.0  0.37758  0.67553  0.69060  1.0000
  C   C195      1.0  0.37758  0.82447  0.80940  1.0000
  C   C196      1.0  0.12242  0.17553  0.80940  1.0000
  C   C197      1.0  0.87758  0.67553  0.30940  1.0000
  C   C198      1.0  0.62242  0.32447  0.30940  1.0000
  C   C199      1.0  0.62242  0.17553  0.19060  1.0000
  C   C200      1.0  0.87758  0.82447  0.19060  1.0000
  H   H105      1.0  0.13163  0.34713  0.74376  1.0000
  H   H106      1.0  0.36837  0.65287  0.74376  1.0000
  H   H107      1.0  0.36837  0.84713  0.75624  1.0000
  H   H108      1.0  0.13163  0.15287  0.75624  1.0000
  H   H109      1.0  0.86837  0.65287  0.25624  1.0000
  H   H110      1.0  0.63163  0.34713  0.25624  1.0000
  H   H111      1.0  0.63163  0.15287  0.24376  1.0000
  H   H112      1.0  0.86837  0.84713  0.24376  1.0000
  C   C201      1.0  0.11147  0.26425  0.70178  1.0000
  C   C202      1.0  0.38853  0.73575  0.70178  1.0000
  C   C203      1.0  0.38853  0.76425  0.79822  1.0000
  C   C204      1.0  0.11147  0.23575  0.79822  1.0000
  C   C205      1.0  0.88853  0.73575  0.29822  1.0000
  C   C206      1.0  0.61147  0.26425  0.29822  1.0000
  C   C207      1.0  0.61147  0.23575  0.20178  1.0000
  C   C208      1.0  0.88853  0.76425  0.20178  1.0000
  C   C209      1.0  0.09874  0.23233  0.62024  1.0000
  C   C210      1.0  0.40126  0.76767  0.62024  1.0000
  C   C211      1.0  0.40126  0.73233  0.87976  1.0000
  C   C212      1.0  0.09874  0.26767  0.87976  1.0000
  C   C213      1.0  0.90126  0.76767  0.37976  1.0000
  C   C214      1.0  0.59874  0.23233  0.37976  1.0000
  C   C215      1.0  0.59874  0.26767  0.12024  1.0000
  C   C216      1.0  0.90126  0.73233  0.12024  1.0000
  H   H113      1.0  0.09147  0.19180  0.62552  1.0000
  H   H114      1.0  0.40853  0.80820  0.62552  1.0000
  H   H115      1.0  0.40853  0.69180  0.87448  1.0000
  H   H116      1.0  0.09147  0.30820  0.87448  1.0000
  H   H117      1.0  0.90853  0.80820  0.37448  1.0000
  H   H118      1.0  0.59147  0.19180  0.37448  1.0000
  H   H119      1.0  0.59147  0.30820  0.12552  1.0000
  H   H120      1.0  0.90853  0.69180  0.12552  1.0000
  C   C217      1.0  0.09654  0.25932  0.53084  1.0000
  C   C218      1.0  0.40346  0.74068  0.53084  1.0000
  C   C219      1.0  0.40346  0.75932  0.96916  1.0000
  C   C220      1.0  0.09654  0.24068  0.96916  1.0000
  C   C221      1.0  0.90346  0.74068  0.46916  1.0000
  C   C222      1.0  0.59654  0.25932  0.46916  1.0000
  C   C223      1.0  0.59654  0.24068  0.03084  1.0000
  C   C224      1.0  0.90346  0.75932  0.03084  1.0000
  H   H121      1.0  0.08784  0.23681  0.47717  1.0000
  H   H122      1.0  0.41216  0.76319  0.47717  1.0000
  H   H123      1.0  0.41216  0.73681  0.02283  1.0000
  H   H124      1.0  0.08784  0.26319  0.02283  1.0000
  H   H125      1.0  0.91216  0.76319  0.52283  1.0000
  H   H126      1.0  0.58784  0.23681  0.52283  1.0000
  H   H127      1.0  0.58784  0.26319  0.97717  1.0000
  H   H128      1.0  0.91216  0.73681  0.97717  1.0000
