data_image0
_chemical_formula_structural       Sc2O8C12H4C4H4C8O16H8
_chemical_formula_sum              "Sc2 O24 C24 H16"
_cell_length_a       5.8778
_cell_length_b       11.4126
_cell_length_c       17.414
_cell_angle_alpha    90
_cell_angle_beta     90.385
_cell_angle_gamma    90

_space_group_name_H-M_alt    "P 1"
_space_group_IT_number       1

loop_
  _space_group_symop_operation_xyz
  'x, y, z'

loop_
  _atom_site_type_symbol
  _atom_site_label
  _atom_site_symmetry_multiplicity
  _atom_site_fract_x
  _atom_site_fract_y
  _atom_site_fract_z
  _atom_site_occupancy
  Sc  Sc1       1.0  0.50000  0.50000  0.50000  1.0000
  Sc  Sc2       1.0  0.50000  0.00000  0.00000  1.0000
  O   O1        1.0  0.59960  0.56053  0.60620  1.0000
  O   O2        1.0  0.40040  0.06053  0.89380  1.0000
  O   O3        1.0  0.40040  0.43947  0.39380  1.0000
  O   O4        1.0  0.59960  0.93947  0.10620  1.0000
  O   O5        1.0  0.94670  0.62223  0.63973  1.0000
  O   O6        1.0  0.05330  0.12223  0.86027  1.0000
  O   O7        1.0  0.05330  0.37777  0.36027  1.0000
  O   O8        1.0  0.94670  0.87777  0.13973  1.0000
  C   C1        1.0  0.74030  0.61100  0.65029  1.0000
  C   C2        1.0  0.25970  0.11100  0.84971  1.0000
  C   C3        1.0  0.25970  0.38900  0.34971  1.0000
  C   C4        1.0  0.74030  0.88900  0.15029  1.0000
  C   C5        1.0  0.63820  0.66130  0.72002  1.0000
  C   C6        1.0  0.36180  0.16130  0.77998  1.0000
  C   C7        1.0  0.36180  0.33870  0.27998  1.0000
  C   C8        1.0  0.63820  0.83870  0.22002  1.0000
  C   C9        1.0  0.42110  0.66870  0.74430  1.0000
  C   C10       1.0  0.57890  0.16870  0.75570  1.0000
  C   C11       1.0  0.57890  0.33130  0.25570  1.0000
  C   C12       1.0  0.42110  0.83130  0.24430  1.0000
  H   H1        1.0  0.29033  0.63769  0.71920  1.0000
  H   H2        1.0  0.70967  0.13769  0.78080  1.0000
  H   H3        1.0  0.70967  0.36231  0.28080  1.0000
  H   H4        1.0  0.29033  0.86231  0.21920  1.0000
  C   C13       1.0  0.42610  0.73160  0.81456  1.0000
  C   C14       1.0  0.57390  0.23160  0.68544  1.0000
  C   C15       1.0  0.57390  0.26840  0.18544  1.0000
  C   C16       1.0  0.42610  0.76840  0.31456  1.0000
  H   H5        1.0  0.29900  0.75207  0.84519  1.0000
  H   H6        1.0  0.70100  0.25207  0.65481  1.0000
  H   H7        1.0  0.70100  0.24793  0.15481  1.0000
  H   H8        1.0  0.29900  0.74793  0.34519  1.0000
  C   C17       1.0  0.64660  0.75680  0.82943  1.0000
  C   C18       1.0  0.35340  0.25680  0.67057  1.0000
  C   C19       1.0  0.35340  0.24320  0.17057  1.0000
  C   C20       1.0  0.64660  0.74320  0.32943  1.0000
  C   C21       1.0  0.75910  0.81760  0.89352  1.0000
  C   C22       1.0  0.24090  0.31760  0.60648  1.0000
  C   C23       1.0  0.24090  0.18240  0.10648  1.0000
  C   C24       1.0  0.75910  0.68240  0.39352  1.0000
  O   O9        1.0  0.78130  0.71560  0.77150  1.0000
  O   O10       1.0  0.21870  0.21560  0.72850  1.0000
  O   O11       1.0  0.21870  0.28440  0.22850  1.0000
  O   O12       1.0  0.78130  0.78440  0.27150  1.0000
  O   O13       1.0  0.62810  0.85401  0.94587  1.0000
  O   O14       1.0  0.37190  0.35401  0.55413  1.0000
  O   O15       1.0  0.37190  0.14599  0.05413  1.0000
  O   O16       1.0  0.62810  0.64599  0.44587  1.0000
  O   O17       1.0  0.96780  0.82710  0.89404  1.0000
  O   O18       1.0  0.03220  0.32710  0.60596  1.0000
  O   O19       1.0  0.03220  0.17290  0.10596  1.0000
  O   O20       1.0  0.96780  0.67290  0.39404  1.0000
  O   O21       1.0  0.80890  0.40802  0.48618  1.0000
  O   O22       1.0  0.19110  0.90802  0.01382  1.0000
  O   O23       1.0  0.19110  0.59198  0.51382  1.0000
  O   O24       1.0  0.80890  0.09198  0.98618  1.0000
  H   H9        1.0  0.89400  0.41300  0.44700  1.0000
  H   H10       1.0  0.10600  0.91300  0.05300  1.0000
  H   H11       1.0  0.10600  0.58700  0.55300  1.0000
  H   H12       1.0  0.89400  0.08700  0.94700  1.0000
  H   H13       1.0  0.88900  0.38540  0.52380  1.0000
  H   H14       1.0  0.11100  0.88540  0.97620  1.0000
  H   H15       1.0  0.11100  0.61460  0.47620  1.0000
  H   H16       1.0  0.88900  0.11460  0.02380  1.0000
