data_image0
_chemical_formula_structural       In4O40C12H4C8H4C8H4C8H8C6H8C8H4C8H4C8H4C8
_chemical_formula_sum              "In4 O40 C74 H40"
_cell_length_a       12.7321
_cell_length_b       13.5133
_cell_length_c       25.484
_cell_angle_alpha    90
_cell_angle_beta     90
_cell_angle_gamma    90

_space_group_name_H-M_alt    "P 1"
_space_group_IT_number       1

loop_
  _space_group_symop_operation_xyz
  'x, y, z'

loop_
  _atom_site_type_symbol
  _atom_site_label
  _atom_site_symmetry_multiplicity
  _atom_site_fract_x
  _atom_site_fract_y
  _atom_site_fract_z
  _atom_site_occupancy
  In  In1       1.0  0.00000  0.45818  0.75000  1.0000
  In  In2       1.0  0.00000  0.54182  0.25000  1.0000
  In  In3       1.0  0.50069  0.50000  0.50000  1.0000
  In  In4       1.0  0.49931  0.50000  0.00000  1.0000
  O   O1        1.0  0.87450  0.31890  0.75339  1.0000
  O   O2        1.0  0.12550  0.68110  0.25339  1.0000
  O   O3        1.0  0.87450  0.68110  0.24661  1.0000
  O   O4        1.0  0.12550  0.31890  0.74661  1.0000
  O   O5        1.0  0.90900  0.40300  0.68410  1.0000
  O   O6        1.0  0.09100  0.59700  0.18410  1.0000
  O   O7        1.0  0.90900  0.59700  0.31590  1.0000
  O   O8        1.0  0.09100  0.40300  0.81590  1.0000
  O   O9        1.0  0.63180  0.44510  0.54800  1.0000
  O   O10       1.0  0.36820  0.55490  0.04800  1.0000
  O   O11       1.0  0.63180  0.55490  0.45200  1.0000
  O   O12       1.0  0.36820  0.44510  0.95200  1.0000
  O   O13       1.0  0.49090  0.35870  0.55437  1.0000
  O   O14       1.0  0.50910  0.64130  0.05437  1.0000
  O   O15       1.0  0.49090  0.64130  0.44563  1.0000
  O   O16       1.0  0.50910  0.35870  0.94563  1.0000
  O   O17       1.0  0.51090  0.63860  0.56566  1.0000
  O   O18       1.0  0.48910  0.36140  0.06566  1.0000
  O   O19       1.0  0.51090  0.36140  0.43434  1.0000
  O   O20       1.0  0.48910  0.63860  0.93434  1.0000
  O   O21       1.0  0.37320  0.55210  0.54880  1.0000
  O   O22       1.0  0.62680  0.44790  0.04880  1.0000
  O   O23       1.0  0.37320  0.44790  0.45120  1.0000
  O   O24       1.0  0.62680  0.55210  0.95120  1.0000
  O   O25       1.0  0.10100  0.51480  0.68690  1.0000
  O   O26       1.0  0.89900  0.48520  0.18690  1.0000
  O   O27       1.0  0.10100  0.48520  0.31310  1.0000
  O   O28       1.0  0.89900  0.51480  0.81310  1.0000
  O   O29       1.0  0.11710  0.59630  0.75826  1.0000
  O   O30       1.0  0.88290  0.40370  0.25826  1.0000
  O   O31       1.0  0.11710  0.40370  0.24174  1.0000
  O   O32       1.0  0.88290  0.59630  0.74174  1.0000
  O   O33       1.0  0.55920  0.10390  0.69039  1.0000
  O   O34       1.0  0.44080  0.89610  0.19039  1.0000
  O   O35       1.0  0.55920  0.89610  0.30961  1.0000
  O   O36       1.0  0.44080  0.10390  0.80961  1.0000
  O   O37       1.0  0.38300  0.85690  0.72133  1.0000
  O   O38       1.0  0.61700  0.14310  0.22133  1.0000
  O   O39       1.0  0.38300  0.14310  0.27867  1.0000
  O   O40       1.0  0.61700  0.85690  0.77867  1.0000
  C   C1        1.0  0.85500  0.33920  0.70710  1.0000
  C   C2        1.0  0.14500  0.66080  0.20710  1.0000
  C   C3        1.0  0.85500  0.66080  0.29290  1.0000
  C   C4        1.0  0.14500  0.33920  0.79290  1.0000
  C   C5        1.0  0.76050  0.29840  0.67925  1.0000
  C   C6        1.0  0.23950  0.70160  0.17925  1.0000
  C   C7        1.0  0.76050  0.70160  0.32075  1.0000
  C   C8        1.0  0.23950  0.29840  0.82075  1.0000
  C   C9        1.0  0.72290  0.34700  0.63590  1.0000
  C   C10       1.0  0.27710  0.65300  0.13590  1.0000
  C   C11       1.0  0.72290  0.65300  0.36410  1.0000
  C   C12       1.0  0.27710  0.34700  0.86410  1.0000
  H   H1        1.0  0.75990  0.40020  0.62210  1.0000
  H   H2        1.0  0.24010  0.59980  0.12210  1.0000
  H   H3        1.0  0.75990  0.59980  0.37790  1.0000
  H   H4        1.0  0.24010  0.40020  0.87790  1.0000
  C   C13       1.0  0.62840  0.31660  0.61242  1.0000
  C   C14       1.0  0.37160  0.68340  0.11242  1.0000
  C   C15       1.0  0.62840  0.68340  0.38758  1.0000
  C   C16       1.0  0.37160  0.31660  0.88758  1.0000
  C   C17       1.0  0.57680  0.23630  0.63201  1.0000
  C   C18       1.0  0.42320  0.76370  0.13201  1.0000
  C   C19       1.0  0.57680  0.76370  0.36799  1.0000
  C   C20       1.0  0.42320  0.23630  0.86799  1.0000
  H   H5        1.0  0.51380  0.21640  0.61680  1.0000
  H   H6        1.0  0.48620  0.78360  0.11680  1.0000
  H   H7        1.0  0.51380  0.78360  0.38320  1.0000
  H   H8        1.0  0.48620  0.21640  0.88320  1.0000
  C   C21       1.0  0.61740  0.18280  0.67500  1.0000
  C   C22       1.0  0.38260  0.81720  0.17500  1.0000
  C   C23       1.0  0.61740  0.81720  0.32500  1.0000
  C   C24       1.0  0.38260  0.18280  0.82500  1.0000
  C   C25       1.0  0.70910  0.21520  0.69892  1.0000
  C   C26       1.0  0.29090  0.78480  0.19892  1.0000
  C   C27       1.0  0.70910  0.78480  0.30108  1.0000
  C   C28       1.0  0.29090  0.21520  0.80108  1.0000
  H   H9        1.0  0.73600  0.18170  0.72780  1.0000
  H   H10       1.0  0.26400  0.81830  0.22780  1.0000
  H   H11       1.0  0.73600  0.81830  0.27220  1.0000
  H   H12       1.0  0.26400  0.18170  0.77220  1.0000
  C   C29       1.0  0.58100  0.37720  0.56886  1.0000
  C   C30       1.0  0.41900  0.62280  0.06886  1.0000
  C   C31       1.0  0.58100  0.62280  0.43114  1.0000
  C   C32       1.0  0.41900  0.37720  0.93114  1.0000
  C   C33       1.0  0.59240  0.04870  0.73411  1.0000
  C   C34       1.0  0.40760  0.95130  0.23411  1.0000
  C   C35       1.0  0.59240  0.95130  0.26589  1.0000
  C   C36       1.0  0.40760  0.04870  0.76589  1.0000
  H   H13       1.0  0.61120  0.09240  0.76280  1.0000
  H   H14       1.0  0.38880  0.90760  0.26280  1.0000
  H   H15       1.0  0.61120  0.90760  0.23720  1.0000
  H   H16       1.0  0.38880  0.09240  0.73720  1.0000
  H   H17       1.0  0.65310  0.00880  0.72520  1.0000
  H   H18       1.0  0.34690  0.99120  0.22520  1.0000
  H   H19       1.0  0.65310  0.99120  0.27480  1.0000
  H   H20       1.0  0.34690  0.00880  0.77480  1.0000
  C   C37       1.0  0.50000  0.98210  0.75000  1.0000
  C   C38       1.0  0.50000  0.01790  0.25000  1.0000
  C   C39       1.0  0.46670  0.91710  0.70350  1.0000
  C   C40       1.0  0.53330  0.08290  0.20350  1.0000
  C   C41       1.0  0.46670  0.08290  0.29650  1.0000
  C   C42       1.0  0.53330  0.91710  0.79650  1.0000
  H   H21       1.0  0.44390  0.95800  0.67440  1.0000
  H   H22       1.0  0.55610  0.04200  0.17440  1.0000
  H   H23       1.0  0.44390  0.04200  0.32560  1.0000
  H   H24       1.0  0.55610  0.95800  0.82560  1.0000
  H   H25       1.0  0.52510  0.87640  0.69190  1.0000
  H   H26       1.0  0.47490  0.12360  0.19190  1.0000
  H   H27       1.0  0.52510  0.12360  0.30810  1.0000
  H   H28       1.0  0.47490  0.87640  0.80810  1.0000
  C   C43       1.0  0.35420  0.77650  0.69361  1.0000
  C   C44       1.0  0.64580  0.22350  0.19361  1.0000
  C   C45       1.0  0.35420  0.22350  0.30639  1.0000
  C   C46       1.0  0.64580  0.77650  0.80639  1.0000
  C   C47       1.0  0.40220  0.74380  0.64767  1.0000
  C   C48       1.0  0.59780  0.25620  0.14767  1.0000
  C   C49       1.0  0.40220  0.25620  0.35233  1.0000
  C   C50       1.0  0.59780  0.74380  0.85233  1.0000
  H   H29       1.0  0.45850  0.77840  0.63350  1.0000
  H   H30       1.0  0.54150  0.22160  0.13350  1.0000
  H   H31       1.0  0.45850  0.22160  0.36650  1.0000
  H   H32       1.0  0.54150  0.77840  0.86650  1.0000
  C   C51       1.0  0.36450  0.65750  0.62288  1.0000
  C   C52       1.0  0.63550  0.34250  0.12288  1.0000
  C   C53       1.0  0.36450  0.34250  0.37712  1.0000
  C   C54       1.0  0.63550  0.65750  0.87712  1.0000
  C   C55       1.0  0.27930  0.60880  0.64260  1.0000
  C   C56       1.0  0.72070  0.39120  0.14260  1.0000
  C   C57       1.0  0.27930  0.39120  0.35740  1.0000
  C   C58       1.0  0.72070  0.60880  0.85740  1.0000
  H   H33       1.0  0.25240  0.55440  0.62470  1.0000
  H   H34       1.0  0.74760  0.44560  0.12470  1.0000
  H   H35       1.0  0.25240  0.44560  0.37530  1.0000
  H   H36       1.0  0.74760  0.55440  0.87530  1.0000
  C   C59       1.0  0.23170  0.63980  0.68936  1.0000
  C   C60       1.0  0.76830  0.36020  0.18936  1.0000
  C   C61       1.0  0.23170  0.36020  0.31064  1.0000
  C   C62       1.0  0.76830  0.63980  0.81064  1.0000
  C   C63       1.0  0.26940  0.72310  0.71466  1.0000
  C   C64       1.0  0.73060  0.27690  0.21466  1.0000
  C   C65       1.0  0.26940  0.27690  0.28534  1.0000
  C   C66       1.0  0.73060  0.72310  0.78534  1.0000
  H   H37       1.0  0.23840  0.74380  0.74580  1.0000
  H   H38       1.0  0.76160  0.25620  0.24580  1.0000
  H   H39       1.0  0.23840  0.25620  0.25420  1.0000
  H   H40       1.0  0.76160  0.74380  0.75420  1.0000
  C   C67       1.0  0.41960  0.61500  0.57530  1.0000
  C   C68       1.0  0.58040  0.38500  0.07530  1.0000
  C   C69       1.0  0.41960  0.38500  0.42470  1.0000
  C   C70       1.0  0.58040  0.61500  0.92470  1.0000
  C   C71       1.0  0.14440  0.58230  0.71310  1.0000
  C   C72       1.0  0.85560  0.41770  0.21310  1.0000
  C   C73       1.0  0.14440  0.41770  0.28690  1.0000
  C   C74       1.0  0.85560  0.58230  0.78690  1.0000
