data_image0
_chemical_formula_structural       Eu2O2N2Sr2C2Eu2O2N2C2H2O2C2H2N2C2H2O2N4O2C4N2O2C2O4C4H2O2C2H2O4C2H2O2C4O2C2O2C2O2C2H2O2C2H2O2C2H2O2C2O2C2O2C2O2C2O2C2H2O2C2H2O4H4C2H2O2H4C2O2H4C2O2H4C2O2H4C4H2C2H2C2H2C10H2C2H2C2H2C6
_chemical_formula_sum              "Eu4 O58 N12 Sr2 C84 H56"
_cell_length_a       10.4001
_cell_length_b       11.0984
_cell_length_c       30.433
_cell_angle_alpha    88.442
_cell_angle_beta     87.604
_cell_angle_gamma    79.857

_space_group_name_H-M_alt    "P 1"
_space_group_IT_number       1

loop_
  _space_group_symop_operation_xyz
  'x, y, z'

loop_
  _atom_site_type_symbol
  _atom_site_label
  _atom_site_symmetry_multiplicity
  _atom_site_fract_x
  _atom_site_fract_y
  _atom_site_fract_z
  _atom_site_occupancy
  Eu  Eu1       1.0  0.94405  0.34522  0.87313  1.0000
  Eu  Eu2       1.0  0.05595  0.65478  0.12687  1.0000
  O   O1        1.0  0.03530  0.49150  0.82496  1.0000
  O   O2        1.0  0.96470  0.50850  0.17504  1.0000
  N   N1        1.0  0.18030  0.36260  0.88390  1.0000
  N   N2        1.0  0.81970  0.63740  0.11610  1.0000
  Sr  Sr1       1.0  0.22977  0.57090  0.71493  1.0000
  Sr  Sr2       1.0  0.77023  0.42910  0.28507  1.0000
  C   C1        1.0  0.23660  0.44290  0.85984  1.0000
  C   C2        1.0  0.76340  0.55710  0.14016  1.0000
  Eu  Eu3       1.0  0.37490  0.04530  0.64920  1.0000
  Eu  Eu4       1.0  0.62510  0.95470  0.35080  1.0000
  O   O3        1.0  0.20040  0.58320  0.79992  1.0000
  O   O4        1.0  0.79960  0.41680  0.20008  1.0000
  N   N3        1.0  0.79700  0.34070  0.94144  1.0000
  N   N4        1.0  0.20300  0.65930  0.05856  1.0000
  C   C3        1.0  0.36330  0.45680  0.86530  1.0000
  C   C4        1.0  0.63670  0.54320  0.13470  1.0000
  H   H1        1.0  0.39950  0.51510  0.84880  1.0000
  H   H2        1.0  0.60050  0.48490  0.15120  1.0000
  O   O5        1.0  0.06250  0.20230  0.92692  1.0000
  O   O6        1.0  0.93750  0.79770  0.07308  1.0000
  C   C5        1.0  0.43600  0.38310  0.89558  1.0000
  C   C6        1.0  0.56400  0.61690  0.10442  1.0000
  H   H3        1.0  0.52210  0.39110  0.89980  1.0000
  H   H4        1.0  0.47790  0.60890  0.10020  1.0000
  N   N5        1.0  0.86670  0.32930  0.79600  1.0000
  N   N6        1.0  0.13330  0.67070  0.20400  1.0000
  C   C7        1.0  0.38020  0.29770  0.91949  1.0000
  C   C8        1.0  0.61980  0.70230  0.08051  1.0000
  H   H5        1.0  0.42840  0.24580  0.93970  1.0000
  H   H6        1.0  0.57160  0.75420  0.06030  1.0000
  O   O7        1.0  0.24110  0.12300  0.96202  1.0000
  O   O8        1.0  0.75890  0.87700  0.03798  1.0000
  N   N7        1.0  0.13700  0.02780  0.64727  1.0000
  N   N8        1.0  0.86300  0.97220  0.35273  1.0000
  N   N9        1.0  0.52950  0.01790  0.58208  1.0000
  N   N10       1.0  0.47050  0.98210  0.41792  1.0000
  O   O9        1.0  0.93620  0.51310  0.92326  1.0000
  O   O10       1.0  0.06380  0.48690  0.07674  1.0000
  C   C9        1.0  0.25120  0.29010  0.91296  1.0000
  C   C10       1.0  0.74880  0.70990  0.08704  1.0000
  C   C11       1.0  0.15110  0.51300  0.82540  1.0000
  C   C12       1.0  0.84890  0.48700  0.17460  1.0000
  N   N11       1.0  0.46700  0.08850  0.72052  1.0000
  N   N12       1.0  0.53300  0.91150  0.27948  1.0000
  O   O11       1.0  0.86400  0.61160  0.98461  1.0000
  O   O12       1.0  0.13600  0.38840  0.01539  1.0000
  C   C13       1.0  0.18060  0.19770  0.93673  1.0000
  C   C14       1.0  0.81940  0.80230  0.06327  1.0000
  O   O13       1.0  0.81740  0.17700  0.87986  1.0000
  O   O14       1.0  0.18260  0.82300  0.12014  1.0000
  O   O15       1.0  0.68060  0.07330  0.91623  1.0000
  O   O16       1.0  0.31940  0.92670  0.08377  1.0000
  C   C15       1.0  0.79200  0.42720  0.97120  1.0000
  C   C16       1.0  0.20800  0.57280  0.02880  1.0000
  C   C17       1.0  0.71960  0.42440  0.01031  1.0000
  C   C18       1.0  0.28040  0.57560  0.98969  1.0000
  H   H7        1.0  0.71660  0.48570  0.03080  1.0000
  H   H8        1.0  0.28340  0.51430  0.96920  1.0000
  O   O17       1.0  0.74010  0.48020  0.85326  1.0000
  O   O18       1.0  0.25990  0.51980  0.14674  1.0000
  C   C19       1.0  0.65220  0.32940  0.01845  1.0000
  C   C20       1.0  0.34780  0.67060  0.98155  1.0000
  H   H9        1.0  0.60210  0.32630  0.04440  1.0000
  H   H10       1.0  0.39790  0.67370  0.95560  1.0000
  O   O19       1.0  0.59490  0.56690  0.80507  1.0000
  O   O20       1.0  0.40510  0.43310  0.19493  1.0000
  O   O21       1.0  0.07370  0.18910  0.82795  1.0000
  O   O22       1.0  0.92630  0.81090  0.17205  1.0000
  C   C21       1.0  0.65940  0.23950  0.98811  1.0000
  C   C22       1.0  0.34060  0.76050  0.01189  1.0000
  H   H11       1.0  0.61690  0.17320  0.99350  1.0000
  H   H12       1.0  0.38310  0.82680  0.00650  1.0000
  O   O23       1.0  0.12040  0.09030  0.76525  1.0000
  O   O24       1.0  0.87960  0.90970  0.23475  1.0000
  C   C23       1.0  0.73160  0.24920  0.94910  1.0000
  C   C24       1.0  0.26840  0.75080  0.05090  1.0000
  C   C25       1.0  0.87050  0.52580  0.95903  1.0000
  C   C26       1.0  0.12950  0.47420  0.04097  1.0000
  O   O25       1.0  0.29890  0.90300  0.70220  1.0000
  O   O26       1.0  0.70110  0.09700  0.29780  1.0000
  C   C27       1.0  0.74270  0.15780  0.91267  1.0000
  C   C28       1.0  0.25730  0.84220  0.08733  1.0000
  O   O27       1.0  0.14700  0.80270  0.73111  1.0000
  O   O28       1.0  0.85300  0.19730  0.26889  1.0000
  C   C29       1.0  0.93920  0.25200  0.76806  1.0000
  C   C30       1.0  0.06080  0.74800  0.23194  1.0000
  O   O29       1.0  0.25100  0.16190  0.59141  1.0000
  O   O30       1.0  0.74900  0.83810  0.40859  1.0000
  C   C31       1.0  0.90700  0.24570  0.72492  1.0000
  C   C32       1.0  0.09300  0.75430  0.27508  1.0000
  H   H13       1.0  0.95950  0.19210  0.70590  1.0000
  H   H14       1.0  0.04050  0.80790  0.29410  1.0000
  O   O31       1.0  0.06420  0.24570  0.56187  1.0000
  O   O32       1.0  0.93580  0.75430  0.43813  1.0000
  C   C33       1.0  0.79710  0.31920  0.71028  1.0000
  C   C34       1.0  0.20290  0.68080  0.28972  1.0000
  H   H15       1.0  0.77330  0.31580  0.68130  1.0000
  H   H16       1.0  0.22670  0.68420  0.31870  1.0000
  O   O33       1.0  0.37480  0.86120  0.60488  1.0000
  O   O34       1.0  0.62520  0.13880  0.39512  1.0000
  C   C35       1.0  0.72170  0.39860  0.73913  1.0000
  C   C36       1.0  0.27830  0.60140  0.26087  1.0000
  H   H17       1.0  0.64580  0.44850  0.72990  1.0000
  H   H18       1.0  0.35420  0.55150  0.27010  1.0000
  O   O35       1.0  0.48920  0.71810  0.56180  1.0000
  O   O36       1.0  0.51080  0.28190  0.43820  1.0000
  C   C37       1.0  0.76020  0.40320  0.78190  1.0000
  C   C38       1.0  0.23980  0.59680  0.21810  1.0000
  O   O37       1.0  0.50120  0.21050  0.63204  1.0000
  O   O38       1.0  0.49880  0.78950  0.36796  1.0000
  C   C39       1.0  0.05510  0.17110  0.78848  1.0000
  C   C40       1.0  0.94490  0.82890  0.21152  1.0000
  O   O39       1.0  0.63290  0.30110  0.58810  1.0000
  O   O40       1.0  0.36710  0.69890  0.41190  1.0000
  C   C41       1.0  0.69100  0.49130  0.81545  1.0000
  C   C42       1.0  0.30900  0.50870  0.18455  1.0000
  O   O41       1.0  0.56930  0.90590  0.67022  1.0000
  O   O42       1.0  0.43070  0.09410  0.32978  1.0000
  C   C43       1.0  0.08590  0.95360  0.67549  1.0000
  C   C44       1.0  0.91410  0.04640  0.32451  1.0000
  O   O43       1.0  0.70830  0.82570  0.72086  1.0000
  O   O44       1.0  0.29170  0.17430  0.27914  1.0000
  C   C45       1.0  0.95590  0.94340  0.67601  1.0000
  C   C46       1.0  0.04410  0.05660  0.32399  1.0000
  H   H19       1.0  0.92290  0.88930  0.69550  1.0000
  H   H20       1.0  0.07710  0.11070  0.30450  1.0000
  O   O45       1.0  0.25890  0.22310  0.68873  1.0000
  O   O46       1.0  0.74110  0.77690  0.31127  1.0000
  C   C47       1.0  0.87570  0.01530  0.64698  1.0000
  C   C48       1.0  0.12430  0.98470  0.35302  1.0000
  H   H21       1.0  0.78730  0.01070  0.64680  1.0000
  H   H22       1.0  0.21270  0.98930  0.35320  1.0000
  O   O47       1.0  0.23960  0.35460  0.74405  1.0000
  O   O48       1.0  0.76040  0.64540  0.25595  1.0000
  O   O49       1.0  0.44520  0.65680  0.72658  1.0000
  O   O50       1.0  0.55480  0.34320  0.27342  1.0000
  H   H23       1.0  0.42040  0.72780  0.71550  1.0000
  H   H24       1.0  0.57960  0.27220  0.28450  1.0000
  H   H25       1.0  0.48150  0.63100  0.75040  1.0000
  H   H26       1.0  0.51850  0.36900  0.24960  1.0000
  C   C49       1.0  0.92700  0.09370  0.61836  1.0000
  C   C50       1.0  0.07300  0.90630  0.38164  1.0000
  H   H27       1.0  0.87390  0.14410  0.59900  1.0000
  H   H28       1.0  0.12610  0.85590  0.40100  1.0000
  O   O51       1.0  0.23940  0.68130  0.64013  1.0000
  O   O52       1.0  0.76060  0.31870  0.35987  1.0000
  H   H29       1.0  0.27450  0.74410  0.63500  1.0000
  H   H30       1.0  0.72550  0.25590  0.36500  1.0000
  H   H31       1.0  0.17170  0.69390  0.62480  1.0000
  H   H32       1.0  0.82830  0.30610  0.37520  1.0000
  C   C51       1.0  0.06050  0.09610  0.61888  1.0000
  C   C52       1.0  0.93950  0.90390  0.38112  1.0000
  O   O53       1.0  0.42930  0.43710  0.67502  1.0000
  O   O54       1.0  0.57070  0.56290  0.32498  1.0000
  H   H33       1.0  0.47930  0.48130  0.66230  1.0000
  H   H34       1.0  0.52070  0.51870  0.33770  1.0000
  H   H35       1.0  0.43700  0.36500  0.66540  1.0000
  H   H36       1.0  0.56300  0.63500  0.33460  1.0000
  C   C53       1.0  0.18400  0.88020  0.70554  1.0000
  C   C54       1.0  0.81600  0.11980  0.29446  1.0000
  O   O55       1.0  0.12120  0.44640  0.65761  1.0000
  O   O56       1.0  0.87880  0.55360  0.34239  1.0000
  H   H37       1.0  0.17400  0.38450  0.64810  1.0000
  H   H38       1.0  0.82600  0.61550  0.35190  1.0000
  H   H39       1.0  0.10610  0.49750  0.63630  1.0000
  H   H40       1.0  0.89390  0.50250  0.36370  1.0000
  C   C55       1.0  0.12990  0.17440  0.58826  1.0000
  C   C56       1.0  0.87010  0.82560  0.41174  1.0000
  O   O57       1.0  0.98330  0.58980  0.73892  1.0000
  O   O58       1.0  0.01670  0.41020  0.26108  1.0000
  H   H41       1.0  0.98380  0.55680  0.76450  1.0000
  H   H42       1.0  0.01620  0.44320  0.23550  1.0000
  H   H43       1.0  0.92680  0.61280  0.71960  1.0000
  H   H44       1.0  0.07320  0.38720  0.28040  1.0000
  C   C57       1.0  0.54530  0.91460  0.55955  1.0000
  C   C58       1.0  0.45470  0.08540  0.44045  1.0000
  C   C59       1.0  0.63060  0.89560  0.52310  1.0000
  C   C60       1.0  0.36940  0.10440  0.47690  1.0000
  H   H45       1.0  0.64180  0.82260  0.50800  1.0000
  H   H46       1.0  0.35820  0.17740  0.49200  1.0000
  C   C61       1.0  0.69830  0.98680  0.50983  1.0000
  C   C62       1.0  0.30170  0.01320  0.49017  1.0000
  H   H47       1.0  0.75400  0.97720  0.48500  1.0000
  H   H48       1.0  0.24600  0.02280  0.51500  1.0000
  C   C63       1.0  0.68330  0.09140  0.53332  1.0000
  C   C64       1.0  0.31670  0.90860  0.46668  1.0000
  H   H49       1.0  0.72970  0.15330  0.52500  1.0000
  H   H50       1.0  0.27030  0.84670  0.47500  1.0000
  C   C65       1.0  0.59800  0.10440  0.56968  1.0000
  C   C66       1.0  0.40200  0.89560  0.43032  1.0000
  C   C67       1.0  0.46310  0.82280  0.57673  1.0000
  C   C68       1.0  0.53690  0.17720  0.42327  1.0000
  C   C69       1.0  0.57520  0.21540  0.59863  1.0000
  C   C70       1.0  0.42480  0.78460  0.40137  1.0000
  C   C71       1.0  0.57220  0.01520  0.73515  1.0000
  C   C72       1.0  0.42780  0.98480  0.26485  1.0000
  C   C73       1.0  0.63190  0.04050  0.77250  1.0000
  C   C74       1.0  0.36810  0.95950  0.22750  1.0000
  H   H51       1.0  0.70580  0.98850  0.78220  1.0000
  H   H52       1.0  0.29420  0.01150  0.21780  1.0000
  C   C75       1.0  0.57970  0.14460  0.79510  1.0000
  C   C76       1.0  0.42030  0.85540  0.20490  1.0000
  H   H53       1.0  0.61890  0.16390  0.82030  1.0000
  H   H54       1.0  0.38110  0.83610  0.17970  1.0000
  C   C77       1.0  0.47040  0.21990  0.78068  1.0000
  C   C78       1.0  0.52960  0.78010  0.21932  1.0000
  H   H55       1.0  0.43490  0.29090  0.79560  1.0000
  H   H56       1.0  0.56510  0.70910  0.20440  1.0000
  C   C79       1.0  0.41430  0.18790  0.74359  1.0000
  C   C80       1.0  0.58570  0.81210  0.25641  1.0000
  C   C81       1.0  0.62050  0.90590  0.70678  1.0000
  C   C82       1.0  0.37950  0.09410  0.29322  1.0000
  C   C83       1.0  0.29330  0.26210  0.72421  1.0000
  C   C84       1.0  0.70670  0.73790  0.27579  1.0000
