data_image0
_chemical_formula_structural       Au8S16O16N16C8H8C8H8C8H8C8H8C16H8C8H8C8H8C8H8C8
_chemical_formula_sum              "Au8 S16 O16 N16 C80 H64"
_cell_length_a       7.24
_cell_length_b       30.728
_cell_length_c       15.408
_cell_angle_alpha    90
_cell_angle_beta     90
_cell_angle_gamma    90

_space_group_name_H-M_alt    "P 1"
_space_group_IT_number       1

loop_
  _space_group_symop_operation_xyz
  'x, y, z'

loop_
  _atom_site_type_symbol
  _atom_site_label
  _atom_site_symmetry_multiplicity
  _atom_site_fract_x
  _atom_site_fract_y
  _atom_site_fract_z
  _atom_site_occupancy
  Au  Au1       1.0  0.19535  0.01774  0.06323  1.0000
  Au  Au2       1.0  0.30465  0.98226  0.56323  1.0000
  Au  Au3       1.0  0.69535  0.48226  0.43677  1.0000
  Au  Au4       1.0  0.80465  0.51774  0.93677  1.0000
  Au  Au5       1.0  0.80465  0.98226  0.93677  1.0000
  Au  Au6       1.0  0.69535  0.01774  0.43677  1.0000
  Au  Au7       1.0  0.30465  0.51774  0.56323  1.0000
  Au  Au8       1.0  0.19535  0.48226  0.06323  1.0000
  S   S1        1.0  0.13290  0.09079  0.05812  1.0000
  S   S2        1.0  0.36710  0.90921  0.55812  1.0000
  S   S3        1.0  0.63290  0.40921  0.44188  1.0000
  S   S4        1.0  0.86710  0.59079  0.94188  1.0000
  S   S5        1.0  0.86710  0.90921  0.94188  1.0000
  S   S6        1.0  0.63290  0.09079  0.44188  1.0000
  S   S7        1.0  0.36710  0.59079  0.55812  1.0000
  S   S8        1.0  0.13290  0.40921  0.05812  1.0000
  S   S9        1.0  0.27010  0.94504  0.06850  1.0000
  S   S10       1.0  0.22990  0.05496  0.56850  1.0000
  S   S11       1.0  0.77010  0.55496  0.43150  1.0000
  S   S12       1.0  0.72990  0.44504  0.93150  1.0000
  S   S13       1.0  0.72990  0.05496  0.93150  1.0000
  S   S14       1.0  0.77010  0.94504  0.43150  1.0000
  S   S15       1.0  0.22990  0.44504  0.56850  1.0000
  S   S16       1.0  0.27010  0.55496  0.06850  1.0000
  O   O1        1.0  0.08420  0.17830  0.10940  1.0000
  O   O2        1.0  0.41580  0.82170  0.60940  1.0000
  O   O3        1.0  0.58420  0.32170  0.39060  1.0000
  O   O4        1.0  0.91580  0.67830  0.89060  1.0000
  O   O5        1.0  0.91580  0.82170  0.89060  1.0000
  O   O6        1.0  0.58420  0.17830  0.39060  1.0000
  O   O7        1.0  0.41580  0.67830  0.60940  1.0000
  O   O8        1.0  0.08420  0.32170  0.10940  1.0000
  O   O9        1.0  0.45980  0.86890  0.12310  1.0000
  O   O10       1.0  0.04020  0.13110  0.62310  1.0000
  O   O11       1.0  0.95980  0.63110  0.37690  1.0000
  O   O12       1.0  0.54020  0.36890  0.87690  1.0000
  O   O13       1.0  0.54020  0.13110  0.87690  1.0000
  O   O14       1.0  0.95980  0.86890  0.37690  1.0000
  O   O15       1.0  0.04020  0.36890  0.62310  1.0000
  O   O16       1.0  0.45980  0.63110  0.12310  1.0000
  N   N1        1.0  0.10200  0.15190  0.17770  1.0000
  N   N2        1.0  0.39800  0.84810  0.67770  1.0000
  N   N3        1.0  0.60200  0.34810  0.32230  1.0000
  N   N4        1.0  0.89800  0.65190  0.82230  1.0000
  N   N5        1.0  0.89800  0.84810  0.82230  1.0000
  N   N6        1.0  0.60200  0.15190  0.32230  1.0000
  N   N7        1.0  0.39800  0.65190  0.67770  1.0000
  N   N8        1.0  0.10200  0.34810  0.17770  1.0000
  N   N9        1.0  0.56160  0.90460  0.13390  1.0000
  N   N10       1.0  0.93840  0.09540  0.63390  1.0000
  N   N11       1.0  0.06160  0.59540  0.36610  1.0000
  N   N12       1.0  0.43840  0.40460  0.86610  1.0000
  N   N13       1.0  0.43840  0.09540  0.86610  1.0000
  N   N14       1.0  0.06160  0.90460  0.36610  1.0000
  N   N15       1.0  0.93840  0.40460  0.63390  1.0000
  N   N16       1.0  0.56160  0.59540  0.13390  1.0000
  C   C1        1.0  0.09290  0.16890  0.25900  1.0000
  C   C2        1.0  0.40710  0.83110  0.75900  1.0000
  C   C3        1.0  0.59290  0.33110  0.24100  1.0000
  C   C4        1.0  0.90710  0.66890  0.74100  1.0000
  C   C5        1.0  0.90710  0.83110  0.74100  1.0000
  C   C6        1.0  0.59290  0.16890  0.24100  1.0000
  C   C7        1.0  0.40710  0.66890  0.75900  1.0000
  C   C8        1.0  0.09290  0.33110  0.25900  1.0000
  H   H1        1.0  0.07200  0.19920  0.26590  1.0000
  H   H2        1.0  0.42800  0.80080  0.76590  1.0000
  H   H3        1.0  0.57200  0.30080  0.23410  1.0000
  H   H4        1.0  0.92800  0.69920  0.73410  1.0000
  H   H5        1.0  0.92800  0.80080  0.73410  1.0000
  H   H6        1.0  0.57200  0.19920  0.23410  1.0000
  H   H7        1.0  0.42800  0.69920  0.76590  1.0000
  H   H8        1.0  0.07200  0.30080  0.26590  1.0000
  C   C9        1.0  0.11300  0.14370  0.33060  1.0000
  C   C10       1.0  0.38700  0.85630  0.83060  1.0000
  C   C11       1.0  0.61300  0.35630  0.16940  1.0000
  C   C12       1.0  0.88700  0.64370  0.66940  1.0000
  C   C13       1.0  0.88700  0.85630  0.66940  1.0000
  C   C14       1.0  0.61300  0.14370  0.16940  1.0000
  C   C15       1.0  0.38700  0.64370  0.83060  1.0000
  C   C16       1.0  0.11300  0.35630  0.33060  1.0000
  H   H9        1.0  0.10340  0.15610  0.38690  1.0000
  H   H10       1.0  0.39660  0.84390  0.88690  1.0000
  H   H11       1.0  0.60340  0.34390  0.11310  1.0000
  H   H12       1.0  0.89660  0.65610  0.61310  1.0000
  H   H13       1.0  0.89660  0.84390  0.61310  1.0000
  H   H14       1.0  0.60340  0.15610  0.11310  1.0000
  H   H15       1.0  0.39660  0.65610  0.88690  1.0000
  H   H16       1.0  0.10340  0.34390  0.38690  1.0000
  C   C17       1.0  0.14720  0.10010  0.32110  1.0000
  C   C18       1.0  0.35280  0.89990  0.82110  1.0000
  C   C19       1.0  0.64720  0.39990  0.17890  1.0000
  C   C20       1.0  0.85280  0.60010  0.67890  1.0000
  C   C21       1.0  0.85280  0.89990  0.67890  1.0000
  C   C22       1.0  0.64720  0.10010  0.17890  1.0000
  C   C23       1.0  0.35280  0.60010  0.82110  1.0000
  C   C24       1.0  0.14720  0.39990  0.32110  1.0000
  H   H17       1.0  0.16650  0.08210  0.37050  1.0000
  H   H18       1.0  0.33350  0.91790  0.87050  1.0000
  H   H19       1.0  0.66650  0.41790  0.12950  1.0000
  H   H20       1.0  0.83350  0.58210  0.62950  1.0000
  H   H21       1.0  0.83350  0.91790  0.62950  1.0000
  H   H22       1.0  0.66650  0.08210  0.12950  1.0000
  H   H23       1.0  0.33350  0.58210  0.87050  1.0000
  H   H24       1.0  0.16650  0.41790  0.37050  1.0000
  C   C25       1.0  0.15330  0.08270  0.23860  1.0000
  C   C26       1.0  0.34670  0.91730  0.73860  1.0000
  C   C27       1.0  0.65330  0.41730  0.26140  1.0000
  C   C28       1.0  0.84670  0.58270  0.76140  1.0000
  C   C29       1.0  0.84670  0.91730  0.76140  1.0000
  C   C30       1.0  0.65330  0.08270  0.26140  1.0000
  C   C31       1.0  0.34670  0.58270  0.73860  1.0000
  C   C32       1.0  0.15330  0.41730  0.23860  1.0000
  H   H25       1.0  0.17440  0.05230  0.23200  1.0000
  H   H26       1.0  0.32560  0.94770  0.73200  1.0000
  H   H27       1.0  0.67440  0.44770  0.26800  1.0000
  H   H28       1.0  0.82560  0.55230  0.76800  1.0000
  H   H29       1.0  0.82560  0.94770  0.76800  1.0000
  H   H30       1.0  0.67440  0.05230  0.26800  1.0000
  H   H31       1.0  0.32560  0.55230  0.73200  1.0000
  H   H32       1.0  0.17440  0.44770  0.23200  1.0000
  C   C33       1.0  0.12950  0.10790  0.16520  1.0000
  C   C34       1.0  0.37050  0.89210  0.66520  1.0000
  C   C35       1.0  0.62950  0.39210  0.33480  1.0000
  C   C36       1.0  0.87050  0.60790  0.83480  1.0000
  C   C37       1.0  0.87050  0.89210  0.83480  1.0000
  C   C38       1.0  0.62950  0.10790  0.33480  1.0000
  C   C39       1.0  0.37050  0.60790  0.66520  1.0000
  C   C40       1.0  0.12950  0.39210  0.16520  1.0000
  C   C41       1.0  0.73520  0.90000  0.16540  1.0000
  C   C42       1.0  0.76480  0.10000  0.66540  1.0000
  C   C43       1.0  0.23520  0.60000  0.33460  1.0000
  C   C44       1.0  0.26480  0.40000  0.83460  1.0000
  C   C45       1.0  0.26480  0.10000  0.83460  1.0000
  C   C46       1.0  0.23520  0.90000  0.33460  1.0000
  C   C47       1.0  0.76480  0.40000  0.66540  1.0000
  C   C48       1.0  0.73520  0.60000  0.16540  1.0000
  H   H33       1.0  0.78060  0.87170  0.17850  1.0000
  H   H34       1.0  0.71940  0.12830  0.67850  1.0000
  H   H35       1.0  0.28060  0.62830  0.32150  1.0000
  H   H36       1.0  0.21940  0.37170  0.82150  1.0000
  H   H37       1.0  0.21940  0.12830  0.82150  1.0000
  H   H38       1.0  0.28060  0.87170  0.32150  1.0000
  H   H39       1.0  0.71940  0.37170  0.67850  1.0000
  H   H40       1.0  0.78060  0.62830  0.17850  1.0000
  C   C49       1.0  0.84430  0.93490  0.17830  1.0000
  C   C50       1.0  0.65570  0.06510  0.67830  1.0000
  C   C51       1.0  0.34430  0.56510  0.32170  1.0000
  C   C52       1.0  0.15570  0.43490  0.82170  1.0000
  C   C53       1.0  0.15570  0.06510  0.82170  1.0000
  C   C54       1.0  0.34430  0.93490  0.32170  1.0000
  C   C55       1.0  0.65570  0.43490  0.67830  1.0000
  C   C56       1.0  0.84430  0.56510  0.17830  1.0000
  H   H41       1.0  0.96680  0.93130  0.19930  1.0000
  H   H42       1.0  0.53320  0.06870  0.69930  1.0000
  H   H43       1.0  0.46680  0.56870  0.30070  1.0000
  H   H44       1.0  0.03320  0.43130  0.80070  1.0000
  H   H45       1.0  0.03320  0.06870  0.80070  1.0000
  H   H46       1.0  0.46680  0.93130  0.30070  1.0000
  H   H47       1.0  0.53320  0.43130  0.69930  1.0000
  H   H48       1.0  0.96680  0.56870  0.19930  1.0000
  C   C57       1.0  0.77680  0.97570  0.16080  1.0000
  C   C58       1.0  0.72320  0.02430  0.66080  1.0000
  C   C59       1.0  0.27680  0.52430  0.33920  1.0000
  C   C60       1.0  0.22320  0.47570  0.83920  1.0000
  C   C61       1.0  0.22320  0.02430  0.83920  1.0000
  C   C62       1.0  0.27680  0.97570  0.33920  1.0000
  C   C63       1.0  0.72320  0.47570  0.66080  1.0000
  C   C64       1.0  0.77680  0.52430  0.16080  1.0000
  H   H49       1.0  0.85110  0.00080  0.17030  1.0000
  H   H50       1.0  0.64890  0.99920  0.67030  1.0000
  H   H51       1.0  0.35110  0.49920  0.32970  1.0000
  H   H52       1.0  0.14890  0.50080  0.82970  1.0000
  H   H53       1.0  0.14890  0.99920  0.82970  1.0000
  H   H54       1.0  0.35110  0.00080  0.32970  1.0000
  H   H55       1.0  0.64890  0.50080  0.67030  1.0000
  H   H56       1.0  0.85110  0.49920  0.17030  1.0000
  C   C65       1.0  0.60120  0.97980  0.12960  1.0000
  C   C66       1.0  0.89880  0.02020  0.62960  1.0000
  C   C67       1.0  0.10120  0.52020  0.37040  1.0000
  C   C68       1.0  0.39880  0.47980  0.87040  1.0000
  C   C69       1.0  0.39880  0.02020  0.87040  1.0000
  C   C70       1.0  0.10120  0.97980  0.37040  1.0000
  C   C71       1.0  0.89880  0.47980  0.62960  1.0000
  C   C72       1.0  0.60120  0.52020  0.12960  1.0000
  H   H57       1.0  0.55420  0.00810  0.11830  1.0000
  H   H58       1.0  0.94580  0.99190  0.61830  1.0000
  H   H59       1.0  0.05420  0.49190  0.38170  1.0000
  H   H60       1.0  0.44580  0.50810  0.88170  1.0000
  H   H61       1.0  0.44580  0.99190  0.88170  1.0000
  H   H62       1.0  0.05420  0.00810  0.38170  1.0000
  H   H63       1.0  0.94580  0.50810  0.61830  1.0000
  H   H64       1.0  0.55420  0.49190  0.11830  1.0000
  C   C73       1.0  0.48920  0.94420  0.11370  1.0000
  C   C74       1.0  0.01080  0.05580  0.61370  1.0000
  C   C75       1.0  0.98920  0.55580  0.38630  1.0000
  C   C76       1.0  0.51080  0.44420  0.88630  1.0000
  C   C77       1.0  0.51080  0.05580  0.88630  1.0000
  C   C78       1.0  0.98920  0.94420  0.38630  1.0000
  C   C79       1.0  0.01080  0.44420  0.61370  1.0000
  C   C80       1.0  0.48920  0.55580  0.11370  1.0000
