data_image0
_chemical_formula_structural       Pb2OS2O3COCO4CHOCHOCHC2HCHCHCOC2OC3OC
_chemical_formula_sum              "Pb2 O14 S2 C16 H6"
_cell_length_a       7.9946
_cell_length_b       9.881
_cell_length_c       10.343
_cell_angle_alpha    81.25
_cell_angle_beta     84.95
_cell_angle_gamma    68.13

_space_group_name_H-M_alt    "P 1"
_space_group_IT_number       1

loop_
  _space_group_symop_operation_xyz
  'x, y, z'

loop_
  _atom_site_type_symbol
  _atom_site_label
  _atom_site_symmetry_multiplicity
  _atom_site_fract_x
  _atom_site_fract_y
  _atom_site_fract_z
  _atom_site_occupancy
  Pb  Pb1       1.0  0.28959  0.79597  0.79865  1.0000
  Pb  Pb2       1.0  0.23714  0.92939  0.17059  1.0000
  O   O1        1.0  0.94620  0.99210  0.79220  1.0000
  S   S1        1.0  0.51470  0.10930  0.33010  1.0000
  S   S2        1.0  0.01410  0.61430  0.63910  1.0000
  O   O2        1.0  0.06470  0.89010  0.98640  1.0000
  O   O3        1.0  0.46090  0.82840  0.98600  1.0000
  O   O4        1.0  0.32690  0.57700  0.95910  1.0000
  C   C1        1.0  0.57480  0.15940  0.16660  1.0000
  O   O5        1.0  0.19530  0.14660  0.00640  1.0000
  C   C2        1.0  0.93930  0.57250  0.80470  1.0000
  O   O6        1.0  0.41110  0.01950  0.32390  1.0000
  O   O7        1.0  0.11690  0.71150  0.64060  1.0000
  O   O8        1.0  0.12090  0.47730  0.59430  1.0000
  O   O9        1.0  0.03060  0.21600  0.18490  1.0000
  C   C3        1.0  0.48350  0.29220  0.09810  1.0000
  H   H1        1.0  0.38220  0.35780  0.13650  1.0000
  O   O10       1.0  0.40260  0.24690  0.38140  1.0000
  C   C4        1.0  0.03400  0.42870  0.86760  1.0000
  H   H2        1.0  0.12630  0.36070  0.82410  1.0000
  O   O11       1.0  0.51090  0.51440  0.79000  1.0000
  C   C5        1.0  0.84060  0.49790  0.05870  1.0000
  H   H3        1.0  0.80730  0.47610  0.14550  1.0000
  C   C6        1.0  0.06500  0.24770  0.07050  1.0000
  C   C7        1.0  0.79800  0.66570  0.86060  1.0000
  H   H4        1.0  0.73100  0.75310  0.81110  1.0000
  C   C8        1.0  0.68500  0.22920  0.91580  1.0000
  H   H5        1.0  0.71930  0.25380  0.83000  1.0000
  C   C9        1.0  0.72680  0.05080  0.10800  1.0000
  H   H6        1.0  0.78690  0.95760  0.15180  1.0000
  C   C10       1.0  0.98290  0.39300  0.99720  1.0000
  O   O12       1.0  0.67960  0.03200  0.39870  1.0000
  C   C11       1.0  0.53900  0.33130  0.97190  1.0000
  C   C12       1.0  0.77810  0.09740  0.97700  1.0000
  O   O13       1.0  0.85020  0.69260  0.56900  1.0000
  C   C13       1.0  0.74600  0.63990  0.98660  1.0000
  C   C14       1.0  0.93700  0.98430  0.91230  1.0000
  C   C15       1.0  0.58400  0.73750  0.05300  1.0000
  O   O14       1.0  0.57950  0.73390  0.17510  1.0000
  C   C16       1.0  0.44340  0.48900  0.90490  1.0000
