data_image0
_chemical_formula_structural       In4O24C12H4C4O4C4H4C4O4C16H4C8H4C4H4C4N4C4H8C8H8C8H4C4H4C4H4C4H4C4H4C4H4
_chemical_formula_sum              "In4 O32 C96 H60 N4"
_cell_length_a       9.8392
_cell_length_b       21.748
_cell_length_c       15.1973
_cell_angle_alpha    90
_cell_angle_beta     111.277
_cell_angle_gamma    90

_space_group_name_H-M_alt    "P 1"
_space_group_IT_number       1

loop_
  _space_group_symop_operation_xyz
  'x, y, z'

loop_
  _atom_site_type_symbol
  _atom_site_label
  _atom_site_symmetry_multiplicity
  _atom_site_fract_x
  _atom_site_fract_y
  _atom_site_fract_z
  _atom_site_occupancy
  In  In1       1.0  0.72861  0.86454  0.25094  1.0000
  In  In2       1.0  0.27139  0.36455  0.24906  1.0000
  In  In3       1.0  0.27139  0.13545  0.74906  1.0000
  In  In4       1.0  0.72861  0.63545  0.75094  1.0000
  O   O1        1.0  0.59340  0.78367  0.25730  1.0000
  O   O2        1.0  0.40660  0.28367  0.24270  1.0000
  O   O3        1.0  0.40660  0.21633  0.74270  1.0000
  O   O4        1.0  0.59340  0.71633  0.75730  1.0000
  O   O5        1.0  0.96980  0.86630  0.26070  1.0000
  O   O6        1.0  0.03020  0.36630  0.23930  1.0000
  O   O7        1.0  0.03020  0.13370  0.73930  1.0000
  O   O8        1.0  0.96980  0.63370  0.76070  1.0000
  O   O9        1.0  0.84220  0.64390  0.91320  1.0000
  O   O10       1.0  0.15780  0.14390  0.58680  1.0000
  O   O11       1.0  0.15780  0.35610  0.08680  1.0000
  O   O12       1.0  0.84220  0.85610  0.41320  1.0000
  O   O13       1.0  0.60500  0.64650  0.58550  1.0000
  O   O14       1.0  0.39500  0.14650  0.91450  1.0000
  O   O15       1.0  0.39500  0.35350  0.41450  1.0000
  O   O16       1.0  0.60500  0.85350  0.08550  1.0000
  O   O17       1.0  0.48600  0.87120  0.25270  1.0000
  O   O18       1.0  0.51400  0.37120  0.24730  1.0000
  O   O19       1.0  0.51400  0.12880  0.74730  1.0000
  O   O20       1.0  0.48600  0.62880  0.75270  1.0000
  O   O21       1.0  0.85380  0.78060  0.22850  1.0000
  O   O22       1.0  0.14620  0.28060  0.27150  1.0000
  O   O23       1.0  0.14620  0.21940  0.77150  1.0000
  O   O24       1.0  0.85380  0.71940  0.72850  1.0000
  C   C1        1.0  0.96910  0.81080  0.24430  1.0000
  C   C2        1.0  0.03090  0.31080  0.25570  1.0000
  C   C3        1.0  0.03090  0.18920  0.75570  1.0000
  C   C4        1.0  0.96910  0.68920  0.74430  1.0000
  C   C5        1.0  0.23140  0.68170  0.24990  1.0000
  C   C6        1.0  0.76860  0.18170  0.25010  1.0000
  C   C7        1.0  0.76860  0.31830  0.75010  1.0000
  C   C8        1.0  0.23140  0.81830  0.74990  1.0000
  C   C9        1.0  0.22690  0.81170  0.25140  1.0000
  C   C10       1.0  0.77310  0.31170  0.24860  1.0000
  C   C11       1.0  0.77310  0.18830  0.74860  1.0000
  C   C12       1.0  0.22690  0.68830  0.75140  1.0000
  H   H1        1.0  0.22570  0.85440  0.25260  1.0000
  H   H2        1.0  0.77430  0.35440  0.24740  1.0000
  H   H3        1.0  0.77430  0.14560  0.74740  1.0000
  H   H4        1.0  0.22570  0.64560  0.75260  1.0000
  C   C13       1.0  0.35020  0.78000  0.25320  1.0000
  C   C14       1.0  0.64980  0.28000  0.24680  1.0000
  C   C15       1.0  0.64980  0.22000  0.74680  1.0000
  C   C16       1.0  0.35020  0.72000  0.75320  1.0000
  O   O25       1.0  0.75330  0.55678  0.84740  1.0000
  O   O26       1.0  0.24670  0.05678  0.65260  1.0000
  O   O27       1.0  0.24670  0.44322  0.15260  1.0000
  O   O28       1.0  0.75330  0.94322  0.34740  1.0000
  C   C17       1.0  0.35270  0.71680  0.25440  1.0000
  C   C18       1.0  0.64730  0.21680  0.24560  1.0000
  C   C19       1.0  0.64730  0.28320  0.74560  1.0000
  C   C20       1.0  0.35270  0.78320  0.75440  1.0000
  H   H5        1.0  0.43820  0.69670  0.25850  1.0000
  H   H6        1.0  0.56180  0.19670  0.24150  1.0000
  H   H7        1.0  0.56180  0.30330  0.74150  1.0000
  H   H8        1.0  0.43820  0.80330  0.75850  1.0000
  C   C21       1.0  0.48260  0.81490  0.25480  1.0000
  C   C22       1.0  0.51740  0.31490  0.24520  1.0000
  C   C23       1.0  0.51740  0.18510  0.74520  1.0000
  C   C24       1.0  0.48260  0.68510  0.75480  1.0000
  O   O29       1.0  0.71750  0.56300  0.64690  1.0000
  O   O30       1.0  0.28250  0.06300  0.85310  1.0000
  O   O31       1.0  0.28250  0.43700  0.35310  1.0000
  O   O32       1.0  0.71750  0.93700  0.14690  1.0000
  C   C25       1.0  0.00580  0.55600  0.18200  1.0000
  C   C26       1.0  0.99420  0.05600  0.31800  1.0000
  C   C27       1.0  0.99420  0.44400  0.81800  1.0000
  C   C28       1.0  0.00580  0.94400  0.68200  1.0000
  C   C29       1.0  0.10530  0.77790  0.24770  1.0000
  C   C30       1.0  0.89470  0.27790  0.25230  1.0000
  C   C31       1.0  0.89470  0.22210  0.75230  1.0000
  C   C32       1.0  0.10530  0.72210  0.74770  1.0000
  C   C33       1.0  0.85760  0.55830  0.01460  1.0000
  C   C34       1.0  0.14240  0.05830  0.48540  1.0000
  C   C35       1.0  0.14240  0.44170  0.98540  1.0000
  C   C36       1.0  0.85760  0.94170  0.51460  1.0000
  C   C37       1.0  0.10530  0.71420  0.24450  1.0000
  C   C38       1.0  0.89470  0.21420  0.25550  1.0000
  C   C39       1.0  0.89470  0.28580  0.75550  1.0000
  C   C40       1.0  0.10530  0.78580  0.74450  1.0000
  H   H9        1.0  0.02070  0.69270  0.23870  1.0000
  H   H10       1.0  0.97930  0.19270  0.26130  1.0000
  H   H11       1.0  0.97930  0.30730  0.76130  1.0000
  H   H12       1.0  0.02070  0.80730  0.73870  1.0000
  C   C41       1.0  0.64740  0.59360  0.57610  1.0000
  C   C42       1.0  0.35260  0.09360  0.92390  1.0000
  C   C43       1.0  0.35260  0.40640  0.42390  1.0000
  C   C44       1.0  0.64740  0.90640  0.07610  1.0000
  C   C45       1.0  0.96630  0.58290  0.09440  1.0000
  C   C46       1.0  0.03370  0.08290  0.40560  1.0000
  C   C47       1.0  0.03370  0.41710  0.90560  1.0000
  C   C48       1.0  0.96630  0.91710  0.59440  1.0000
  H   H13       1.0  0.01340  0.61870  0.08790  1.0000
  H   H14       1.0  0.98660  0.11870  0.41210  1.0000
  H   H15       1.0  0.98660  0.38130  0.91210  1.0000
  H   H16       1.0  0.01340  0.88130  0.58790  1.0000
  C   C49       1.0  0.50430  0.59000  0.40170  1.0000
  C   C50       1.0  0.49570  0.09000  0.09830  1.0000
  C   C51       1.0  0.49570  0.41000  0.59830  1.0000
  C   C52       1.0  0.50430  0.91000  0.90170  1.0000
  H   H17       1.0  0.44690  0.62200  0.40930  1.0000
  H   H18       1.0  0.55310  0.12200  0.09070  1.0000
  H   H19       1.0  0.55310  0.37800  0.59070  1.0000
  H   H20       1.0  0.44690  0.87800  0.90930  1.0000
  C   C53       1.0  0.47410  0.56510  0.31240  1.0000
  C   C54       1.0  0.52590  0.06510  0.18760  1.0000
  C   C55       1.0  0.52590  0.43490  0.68760  1.0000
  C   C56       1.0  0.47410  0.93490  0.81240  1.0000
  N   N1        1.0  0.23310  0.61862  0.24830  1.0000
  N   N2        1.0  0.76690  0.11862  0.25170  1.0000
  N   N3        1.0  0.76690  0.38138  0.75170  1.0000
  N   N4        1.0  0.23310  0.88138  0.74830  1.0000
  C   C57       1.0  0.34520  0.58510  0.22770  1.0000
  C   C58       1.0  0.65480  0.08510  0.27230  1.0000
  C   C59       1.0  0.65480  0.41490  0.77230  1.0000
  C   C60       1.0  0.34520  0.91490  0.72770  1.0000
  H   H21       1.0  0.38040  0.61080  0.18820  1.0000
  H   H22       1.0  0.61960  0.11080  0.31180  1.0000
  H   H23       1.0  0.61960  0.38920  0.81180  1.0000
  H   H24       1.0  0.38040  0.88920  0.68820  1.0000
  H   H25       1.0  0.30120  0.54890  0.19120  1.0000
  H   H26       1.0  0.69880  0.04890  0.30880  1.0000
  H   H27       1.0  0.69880  0.45110  0.80880  1.0000
  H   H28       1.0  0.30120  0.95110  0.69120  1.0000
  C   C61       1.0  0.61740  0.56840  0.47930  1.0000
  C   C62       1.0  0.38260  0.06840  0.02070  1.0000
  C   C63       1.0  0.38260  0.43160  0.52070  1.0000
  C   C64       1.0  0.61740  0.93160  0.97930  1.0000
  C   C65       1.0  0.12590  0.58130  0.26800  1.0000
  C   C66       1.0  0.87410  0.08130  0.23200  1.0000
  C   C67       1.0  0.87410  0.41870  0.73200  1.0000
  C   C68       1.0  0.12590  0.91870  0.76800  1.0000
  H   H29       1.0  0.08180  0.60580  0.30390  1.0000
  H   H30       1.0  0.91820  0.10580  0.19610  1.0000
  H   H31       1.0  0.91820  0.39420  0.69610  1.0000
  H   H32       1.0  0.08180  0.89420  0.80390  1.0000
  H   H33       1.0  0.17560  0.54710  0.30760  1.0000
  H   H34       1.0  0.82440  0.04710  0.19240  1.0000
  H   H35       1.0  0.82440  0.45290  0.69240  1.0000
  H   H36       1.0  0.17560  0.95290  0.80760  1.0000
  C   C69       1.0  0.81660  0.58760  0.92040  1.0000
  C   C70       1.0  0.18340  0.08760  0.57960  1.0000
  C   C71       1.0  0.18340  0.41240  0.07960  1.0000
  C   C72       1.0  0.81660  0.91240  0.42040  1.0000
  C   C73       1.0  0.70690  0.52230  0.46890  1.0000
  C   C74       1.0  0.29310  0.02230  0.03110  1.0000
  C   C75       1.0  0.29310  0.47770  0.53110  1.0000
  C   C76       1.0  0.70690  0.97770  0.96890  1.0000
  H   H37       1.0  0.78340  0.50750  0.52110  1.0000
  H   H38       1.0  0.21660  0.00750  0.97890  1.0000
  H   H39       1.0  0.21660  0.49250  0.47890  1.0000
  H   H40       1.0  0.78340  0.99250  0.02110  1.0000
  C   C77       1.0  0.93230  0.50410  0.19020  1.0000
  C   C78       1.0  0.06770  0.00410  0.30980  1.0000
  C   C79       1.0  0.06770  0.49590  0.80980  1.0000
  C   C80       1.0  0.93230  0.99590  0.69020  1.0000
  H   H41       1.0  0.95660  0.48530  0.24890  1.0000
  H   H42       1.0  0.04340  0.98530  0.25110  1.0000
  H   H43       1.0  0.04340  0.51470  0.75110  1.0000
  H   H44       1.0  0.95660  0.01470  0.74890  1.0000
  C   C81       1.0  0.78800  0.50570  0.02620  1.0000
  C   C82       1.0  0.21200  0.00570  0.47380  1.0000
  C   C83       1.0  0.21200  0.49430  0.97380  1.0000
  C   C84       1.0  0.78800  0.99430  0.52620  1.0000
  H   H45       1.0  0.71620  0.48810  0.97420  1.0000
  H   H46       1.0  0.28380  0.98810  0.52580  1.0000
  H   H47       1.0  0.28380  0.51190  0.02580  1.0000
  H   H48       1.0  0.71620  0.01190  0.47420  1.0000
  C   C85       1.0  0.56420  0.51920  0.30330  1.0000
  C   C86       1.0  0.43580  0.01920  0.19670  1.0000
  C   C87       1.0  0.43580  0.48080  0.69670  1.0000
  C   C88       1.0  0.56420  0.98080  0.80330  1.0000
  H   H49       1.0  0.54600  0.50170  0.24420  1.0000
  H   H50       1.0  0.45400  0.00170  0.25580  1.0000
  H   H51       1.0  0.45400  0.49830  0.75580  1.0000
  H   H52       1.0  0.54600  0.99830  0.74420  1.0000
  C   C89       1.0  0.68120  0.49830  0.37980  1.0000
  C   C90       1.0  0.31880  0.99830  0.12020  1.0000
  C   C91       1.0  0.31880  0.50170  0.62020  1.0000
  C   C92       1.0  0.68120  0.00170  0.87980  1.0000
  H   H53       1.0  0.74260  0.46820  0.37150  1.0000
  H   H54       1.0  0.25740  0.96820  0.12850  1.0000
  H   H55       1.0  0.25740  0.53180  0.62850  1.0000
  H   H56       1.0  0.74260  0.03180  0.87150  1.0000
  C   C93       1.0  0.82290  0.47890  0.11330  1.0000
  C   C94       1.0  0.17710  0.97890  0.38670  1.0000
  C   C95       1.0  0.17710  0.52110  0.88670  1.0000
  C   C96       1.0  0.82290  0.02110  0.61330  1.0000
  H   H57       1.0  0.77330  0.44400  0.12060  1.0000
  H   H58       1.0  0.22670  0.94400  0.37940  1.0000
  H   H59       1.0  0.22670  0.55600  0.87940  1.0000
  H   H60       1.0  0.77330  0.05600  0.62060  1.0000
