data_image0
_chemical_formula_structural       Cd4N4O32C4H4C8H4C8H4C16H4C8H4C4H4C4H4C4H8C8H4C4H4C4H4C8H4C8H8C8
_chemical_formula_sum              "Cd4 N4 O32 C96 H60"
_cell_length_a       10.2101
_cell_length_b       21.649
_cell_length_c       15.8443
_cell_angle_alpha    90
_cell_angle_beta     110.692
_cell_angle_gamma    90

_space_group_name_H-M_alt    "P 1"
_space_group_IT_number       1

loop_
  _space_group_symop_operation_xyz
  'x, y, z'

loop_
  _atom_site_type_symbol
  _atom_site_label
  _atom_site_symmetry_multiplicity
  _atom_site_fract_x
  _atom_site_fract_y
  _atom_site_fract_z
  _atom_site_occupancy
  Cd  Cd1       1.0  0.11600  0.64408  0.40503  1.0000
  Cd  Cd2       1.0  0.88400  0.14408  0.09497  1.0000
  Cd  Cd3       1.0  0.88400  0.35592  0.59497  1.0000
  Cd  Cd4       1.0  0.11600  0.85592  0.90503  1.0000
  N   N1        1.0  0.61730  0.88890  0.41340  1.0000
  N   N2        1.0  0.38270  0.38890  0.08660  1.0000
  N   N3        1.0  0.38270  0.11110  0.58660  1.0000
  N   N4        1.0  0.61730  0.61110  0.91340  1.0000
  O   O1        1.0  0.24000  0.84220  0.09600  1.0000
  O   O2        1.0  0.76000  0.34220  0.40400  1.0000
  O   O3        1.0  0.76000  0.15780  0.90400  1.0000
  O   O4        1.0  0.24000  0.65780  0.59600  1.0000
  O   O5        1.0  0.97220  0.72750  0.40410  1.0000
  O   O6        1.0  0.02780  0.22750  0.09590  1.0000
  O   O7        1.0  0.02780  0.27250  0.59590  1.0000
  O   O8        1.0  0.97220  0.77250  0.90410  1.0000
  O   O9        1.0  0.88570  0.63910  0.42890  1.0000
  O   O10       1.0  0.11430  0.13910  0.07110  1.0000
  O   O11       1.0  0.11430  0.36090  0.57110  1.0000
  O   O12       1.0  0.88570  0.86090  0.92890  1.0000
  O   O13       1.0  0.98730  0.85910  0.73740  1.0000
  O   O14       1.0  0.01270  0.35910  0.76260  1.0000
  O   O15       1.0  0.01270  0.14090  0.26260  1.0000
  O   O16       1.0  0.98730  0.64090  0.23740  1.0000
  O   O17       1.0  0.07730  0.94360  0.81240  1.0000
  O   O18       1.0  0.92270  0.44360  0.68760  1.0000
  O   O19       1.0  0.92270  0.05640  0.18760  1.0000
  O   O20       1.0  0.07730  0.55640  0.31240  1.0000
  O   O21       1.0  0.18070  0.92750  0.01350  1.0000
  O   O22       1.0  0.81930  0.42750  0.48650  1.0000
  O   O23       1.0  0.81930  0.07250  0.98650  1.0000
  O   O24       1.0  0.18070  0.57250  0.51350  1.0000
  O   O25       1.0  0.27290  0.71700  0.39730  1.0000
  O   O26       1.0  0.72710  0.21700  0.10270  1.0000
  O   O27       1.0  0.72710  0.28300  0.60270  1.0000
  O   O28       1.0  0.27290  0.78300  0.89730  1.0000
  O   O29       1.0  0.37430  0.63540  0.40130  1.0000
  O   O30       1.0  0.62570  0.13540  0.09870  1.0000
  O   O31       1.0  0.62570  0.36460  0.59870  1.0000
  O   O32       1.0  0.37430  0.86460  0.90130  1.0000
  C   C1        1.0  0.62570  0.69480  0.40970  1.0000
  C   C2        1.0  0.37430  0.19480  0.09030  1.0000
  C   C3        1.0  0.37430  0.30520  0.59030  1.0000
  C   C4        1.0  0.62570  0.80520  0.90970  1.0000
  H   H1        1.0  0.62790  0.65190  0.40920  1.0000
  H   H2        1.0  0.37210  0.15190  0.09080  1.0000
  H   H3        1.0  0.37210  0.34810  0.59080  1.0000
  H   H4        1.0  0.62790  0.84810  0.90920  1.0000
  C   C5        1.0  0.50380  0.72540  0.40450  1.0000
  C   C6        1.0  0.49620  0.22540  0.09550  1.0000
  C   C7        1.0  0.49620  0.27460  0.59550  1.0000
  C   C8        1.0  0.50380  0.77460  0.90450  1.0000
  C   C9        1.0  0.50060  0.78950  0.40530  1.0000
  C   C10       1.0  0.49940  0.28950  0.09470  1.0000
  C   C11       1.0  0.49940  0.21050  0.59470  1.0000
  C   C12       1.0  0.50060  0.71050  0.90530  1.0000
  H   H5        1.0  0.41890  0.81000  0.40190  1.0000
  H   H6        1.0  0.58110  0.31000  0.09810  1.0000
  H   H7        1.0  0.58110  0.19000  0.59810  1.0000
  H   H8        1.0  0.41890  0.69000  0.90190  1.0000
  C   C13       1.0  0.61950  0.82300  0.41130  1.0000
  C   C14       1.0  0.38050  0.32300  0.08870  1.0000
  C   C15       1.0  0.38050  0.17700  0.58870  1.0000
  C   C16       1.0  0.61950  0.67700  0.91130  1.0000
  C   C17       1.0  0.74140  0.79230  0.41640  1.0000
  C   C18       1.0  0.25860  0.29230  0.08360  1.0000
  C   C19       1.0  0.25860  0.20770  0.58360  1.0000
  C   C20       1.0  0.74140  0.70770  0.91640  1.0000
  H   H9        1.0  0.82110  0.81480  0.42040  1.0000
  H   H10       1.0  0.17890  0.31480  0.07960  1.0000
  H   H11       1.0  0.17890  0.18520  0.57960  1.0000
  H   H12       1.0  0.82110  0.68520  0.92040  1.0000
  C   C21       1.0  0.74450  0.72840  0.41560  1.0000
  C   C22       1.0  0.25550  0.22840  0.08440  1.0000
  C   C23       1.0  0.25550  0.27160  0.58440  1.0000
  C   C24       1.0  0.74450  0.77160  0.91560  1.0000
  C   C25       1.0  0.87430  0.69530  0.41650  1.0000
  C   C26       1.0  0.12570  0.19530  0.08350  1.0000
  C   C27       1.0  0.12570  0.30470  0.58350  1.0000
  C   C28       1.0  0.87430  0.80470  0.91650  1.0000
  C   C29       1.0  0.81390  0.95910  0.49640  1.0000
  C   C30       1.0  0.18610  0.45910  0.00360  1.0000
  C   C31       1.0  0.18610  0.04090  0.50360  1.0000
  C   C32       1.0  0.81390  0.54090  0.99640  1.0000
  C   C33       1.0  0.87350  0.92460  0.57460  1.0000
  C   C34       1.0  0.12650  0.42460  0.92540  1.0000
  C   C35       1.0  0.12650  0.07540  0.42540  1.0000
  C   C36       1.0  0.87350  0.57540  0.07460  1.0000
  H   H13       1.0  0.86300  0.88190  0.57300  1.0000
  H   H14       1.0  0.13700  0.38190  0.92700  1.0000
  H   H15       1.0  0.13700  0.11810  0.42700  1.0000
  H   H16       1.0  0.86300  0.61810  0.07300  1.0000
  C   C37       1.0  0.94870  0.95390  0.65500  1.0000
  C   C38       1.0  0.05130  0.45390  0.84500  1.0000
  C   C39       1.0  0.05130  0.04610  0.34500  1.0000
  C   C40       1.0  0.94870  0.54610  0.15500  1.0000
  C   C41       1.0  0.96440  0.01760  0.65740  1.0000
  C   C42       1.0  0.03560  0.51760  0.84260  1.0000
  C   C43       1.0  0.03560  0.98240  0.34260  1.0000
  C   C44       1.0  0.96440  0.48240  0.15740  1.0000
  H   H17       1.0  0.01480  0.03730  0.71130  1.0000
  H   H18       1.0  0.98520  0.53730  0.78870  1.0000
  H   H19       1.0  0.98520  0.96270  0.28870  1.0000
  H   H20       1.0  0.01480  0.46270  0.21130  1.0000
  C   C45       1.0  0.90480  0.05200  0.57920  1.0000
  C   C46       1.0  0.09520  0.55200  0.92080  1.0000
  C   C47       1.0  0.09520  0.94800  0.42080  1.0000
  C   C48       1.0  0.90480  0.44800  0.07920  1.0000
  H   H21       1.0  0.91540  0.09470  0.58080  1.0000
  H   H22       1.0  0.08460  0.59470  0.91920  1.0000
  H   H23       1.0  0.08460  0.90530  0.41920  1.0000
  H   H24       1.0  0.91540  0.40530  0.08080  1.0000
  C   C49       1.0  0.82960  0.02270  0.49880  1.0000
  C   C50       1.0  0.17040  0.52270  0.00120  1.0000
  C   C51       1.0  0.17040  0.97730  0.50120  1.0000
  C   C52       1.0  0.82960  0.47730  0.99880  1.0000
  H   H25       1.0  0.78960  0.04580  0.44650  1.0000
  H   H26       1.0  0.21040  0.54580  0.05350  1.0000
  H   H27       1.0  0.21040  0.95420  0.55350  1.0000
  H   H28       1.0  0.78960  0.45420  0.94650  1.0000
  C   C53       1.0  0.50050  0.92460  0.41970  1.0000
  C   C54       1.0  0.49950  0.42460  0.08030  1.0000
  C   C55       1.0  0.49950  0.07540  0.58030  1.0000
  C   C56       1.0  0.50050  0.57540  0.91970  1.0000
  H   H29       1.0  0.53640  0.95780  0.46280  1.0000
  H   H30       1.0  0.46360  0.45780  0.03720  1.0000
  H   H31       1.0  0.46360  0.04220  0.53720  1.0000
  H   H32       1.0  0.53640  0.54220  0.96280  1.0000
  H   H33       1.0  0.44320  0.89820  0.44210  1.0000
  H   H34       1.0  0.55680  0.39820  0.05790  1.0000
  H   H35       1.0  0.55680  0.10180  0.55790  1.0000
  H   H36       1.0  0.44320  0.60180  0.94210  1.0000
  C   C57       1.0  0.40940  0.95200  0.32870  1.0000
  C   C58       1.0  0.59060  0.45200  0.17130  1.0000
  C   C59       1.0  0.59060  0.04800  0.67130  1.0000
  C   C60       1.0  0.40940  0.54800  0.82870  1.0000
  C   C61       1.0  0.37710  0.01400  0.32270  1.0000
  C   C62       1.0  0.62290  0.51400  0.17730  1.0000
  C   C63       1.0  0.62290  0.98600  0.67730  1.0000
  C   C64       1.0  0.37710  0.48600  0.82270  1.0000
  H   H37       1.0  0.41050  0.03890  0.37370  1.0000
  H   H38       1.0  0.58950  0.53890  0.12630  1.0000
  H   H39       1.0  0.58950  0.96110  0.62630  1.0000
  H   H40       1.0  0.41050  0.46110  0.87370  1.0000
  C   C65       1.0  0.29530  0.03920  0.24120  1.0000
  C   C66       1.0  0.70470  0.53920  0.25880  1.0000
  C   C67       1.0  0.70470  0.96080  0.75880  1.0000
  C   C68       1.0  0.29530  0.46080  0.74120  1.0000
  H   H41       1.0  0.27340  0.08110  0.23720  1.0000
  H   H42       1.0  0.72660  0.58110  0.26280  1.0000
  H   H43       1.0  0.72660  0.91890  0.76280  1.0000
  H   H44       1.0  0.27340  0.41890  0.73720  1.0000
  C   C69       1.0  0.24580  0.00230  0.16550  1.0000
  C   C70       1.0  0.75420  0.50230  0.33450  1.0000
  C   C71       1.0  0.75420  0.99770  0.83450  1.0000
  C   C72       1.0  0.24580  0.49770  0.66550  1.0000
  H   H45       1.0  0.19070  0.01930  0.11050  1.0000
  H   H46       1.0  0.80930  0.51930  0.38950  1.0000
  H   H47       1.0  0.80930  0.98070  0.88950  1.0000
  H   H48       1.0  0.19070  0.48070  0.61050  1.0000
  C   C73       1.0  0.27800  0.94020  0.17140  1.0000
  C   C74       1.0  0.72200  0.44020  0.32860  1.0000
  C   C75       1.0  0.72200  0.05980  0.82860  1.0000
  C   C76       1.0  0.27800  0.55980  0.67140  1.0000
  C   C77       1.0  0.35990  0.91510  0.25300  1.0000
  C   C78       1.0  0.64010  0.41510  0.24700  1.0000
  C   C79       1.0  0.64010  0.08490  0.74700  1.0000
  C   C80       1.0  0.35990  0.58490  0.75300  1.0000
  H   H49       1.0  0.38160  0.87320  0.25710  1.0000
  H   H50       1.0  0.61840  0.37320  0.24290  1.0000
  H   H51       1.0  0.61840  0.12680  0.74290  1.0000
  H   H52       1.0  0.38160  0.62680  0.75710  1.0000
  C   C81       1.0  0.22920  0.90010  0.08810  1.0000
  C   C82       1.0  0.77080  0.40010  0.41190  1.0000
  C   C83       1.0  0.77080  0.09990  0.91190  1.0000
  C   C84       1.0  0.22920  0.59990  0.58810  1.0000
  C   C85       1.0  0.72820  0.92900  0.40920  1.0000
  C   C86       1.0  0.27180  0.42900  0.09080  1.0000
  C   C87       1.0  0.27180  0.07100  0.59080  1.0000
  C   C88       1.0  0.72820  0.57100  0.90920  1.0000
  H   H53       1.0  0.68710  0.96120  0.36510  1.0000
  H   H54       1.0  0.31290  0.46120  0.13490  1.0000
  H   H55       1.0  0.31290  0.03880  0.63490  1.0000
  H   H56       1.0  0.68710  0.53880  0.86510  1.0000
  H   H57       1.0  0.79040  0.90510  0.38750  1.0000
  H   H58       1.0  0.20960  0.40510  0.11250  1.0000
  H   H59       1.0  0.20960  0.09490  0.61250  1.0000
  H   H60       1.0  0.79040  0.59490  0.88750  1.0000
  C   C89       1.0  0.00730  0.91600  0.74200  1.0000
  C   C90       1.0  0.99270  0.41600  0.75800  1.0000
  C   C91       1.0  0.99270  0.08400  0.25800  1.0000
  C   C92       1.0  0.00730  0.58400  0.24200  1.0000
  C   C93       1.0  0.37420  0.68980  0.40070  1.0000
  C   C94       1.0  0.62580  0.18980  0.09930  1.0000
  C   C95       1.0  0.62580  0.31020  0.59930  1.0000
  C   C96       1.0  0.37420  0.81020  0.90070  1.0000
