data_image0
_chemical_formula_structural       Cd4O8N4O4C8H4C8H4C8H4C12H8C8H4C4H4C4H4C4H4C12H8C8H4C4H4C8H4C4H4C4O20
_chemical_formula_sum              "Cd4 O32 N4 C96 H60"
_cell_length_a       15.392
_cell_length_b       10.296
_cell_length_c       25.544
_cell_angle_alpha    90
_cell_angle_beta     114.597
_cell_angle_gamma    90

_space_group_name_H-M_alt    "P 1"
_space_group_IT_number       1

loop_
  _space_group_symop_operation_xyz
  'x, y, z'

loop_
  _atom_site_type_symbol
  _atom_site_label
  _atom_site_symmetry_multiplicity
  _atom_site_fract_x
  _atom_site_fract_y
  _atom_site_fract_z
  _atom_site_occupancy
  Cd  Cd1       1.0  0.35551  0.67274  0.36656  1.0000
  Cd  Cd2       1.0  0.64449  0.17274  0.13344  1.0000
  Cd  Cd3       1.0  0.64449  0.32726  0.63344  1.0000
  Cd  Cd4       1.0  0.35551  0.82726  0.86656  1.0000
  O   O1        1.0  0.36940  0.90990  0.37423  1.0000
  O   O2        1.0  0.63060  0.40990  0.12577  1.0000
  O   O3        1.0  0.63060  0.09010  0.62577  1.0000
  O   O4        1.0  0.36940  0.59010  0.87423  1.0000
  O   O5        1.0  0.30440  0.81840  0.28959  1.0000
  O   O6        1.0  0.69560  0.31840  0.21041  1.0000
  O   O7        1.0  0.69560  0.18160  0.71041  1.0000
  O   O8        1.0  0.30440  0.68160  0.78959  1.0000
  N   N1        1.0  0.13140  0.17650  0.14970  1.0000
  N   N2        1.0  0.86860  0.67650  0.35030  1.0000
  N   N3        1.0  0.86860  0.82350  0.85030  1.0000
  N   N4        1.0  0.13140  0.32350  0.64970  1.0000
  O   O9        1.0  0.36420  0.40240  0.38510  1.0000
  O   O10       1.0  0.63580  0.90240  0.11490  1.0000
  O   O11       1.0  0.63580  0.59760  0.61490  1.0000
  O   O12       1.0  0.36420  0.09760  0.88510  1.0000
  C   C1        1.0  0.32420  0.91770  0.32100  1.0000
  C   C2        1.0  0.67580  0.41770  0.17900  1.0000
  C   C3        1.0  0.67580  0.08230  0.67900  1.0000
  C   C4        1.0  0.32420  0.58230  0.82100  1.0000
  C   C5        1.0  0.23190  0.05650  0.23520  1.0000
  C   C6        1.0  0.76810  0.55650  0.26480  1.0000
  C   C7        1.0  0.76810  0.94350  0.76480  1.0000
  C   C8        1.0  0.23190  0.44350  0.73520  1.0000
  H   H1        1.0  0.21440  0.97990  0.21410  1.0000
  H   H2        1.0  0.78560  0.47990  0.28590  1.0000
  H   H3        1.0  0.78560  0.02010  0.78590  1.0000
  H   H4        1.0  0.21440  0.52010  0.71410  1.0000
  C   C9        1.0  0.29090  0.04900  0.29310  1.0000
  C   C10       1.0  0.70910  0.54900  0.20690  1.0000
  C   C11       1.0  0.70910  0.95100  0.70690  1.0000
  C   C12       1.0  0.29090  0.45100  0.79310  1.0000
  C   C13       1.0  0.32040  0.16270  0.32550  1.0000
  C   C14       1.0  0.67960  0.66270  0.17450  1.0000
  C   C15       1.0  0.67960  0.83730  0.67450  1.0000
  C   C16       1.0  0.32040  0.33730  0.82550  1.0000
  H   H5        1.0  0.35950  0.15900  0.36480  1.0000
  H   H6        1.0  0.64050  0.65900  0.13520  1.0000
  H   H7        1.0  0.64050  0.84100  0.63520  1.0000
  H   H8        1.0  0.35950  0.34100  0.86480  1.0000
  C   C17       1.0  0.29010  0.28200  0.29790  1.0000
  C   C18       1.0  0.70990  0.78200  0.20210  1.0000
  C   C19       1.0  0.70990  0.71800  0.70210  1.0000
  C   C20       1.0  0.29010  0.21800  0.79790  1.0000
  C   C21       1.0  0.23050  0.28660  0.24030  1.0000
  C   C22       1.0  0.76950  0.78660  0.25970  1.0000
  C   C23       1.0  0.76950  0.71340  0.75970  1.0000
  C   C24       1.0  0.23050  0.21340  0.74030  1.0000
  H   H9        1.0  0.21150  0.36700  0.22270  1.0000
  H   H10       1.0  0.78850  0.86700  0.27730  1.0000
  H   H11       1.0  0.78850  0.63300  0.77730  1.0000
  H   H12       1.0  0.21150  0.13300  0.72270  1.0000
  C   C25       1.0  0.19720  0.17320  0.20710  1.0000
  C   C26       1.0  0.80280  0.67320  0.29290  1.0000
  C   C27       1.0  0.80280  0.82680  0.79290  1.0000
  C   C28       1.0  0.19720  0.32680  0.70710  1.0000
  C   C29       1.0  0.32370  0.40660  0.33140  1.0000
  C   C30       1.0  0.67630  0.90660  0.16860  1.0000
  C   C31       1.0  0.67630  0.59340  0.66860  1.0000
  C   C32       1.0  0.32370  0.09340  0.83140  1.0000
  C   C33       1.0  0.09970  0.29970  0.11910  1.0000
  C   C34       1.0  0.90030  0.79970  0.38090  1.0000
  C   C35       1.0  0.90030  0.70030  0.88090  1.0000
  C   C36       1.0  0.09970  0.20030  0.61910  1.0000
  H   H13       1.0  0.14020  0.32180  0.09980  1.0000
  H   H14       1.0  0.85980  0.82180  0.40020  1.0000
  H   H15       1.0  0.85980  0.67820  0.90020  1.0000
  H   H16       1.0  0.14020  0.17820  0.59980  1.0000
  H   H17       1.0  0.10570  0.36800  0.14660  1.0000
  H   H18       1.0  0.89430  0.86800  0.35340  1.0000
  H   H19       1.0  0.89430  0.63200  0.85340  1.0000
  H   H20       1.0  0.10570  0.13200  0.64660  1.0000
  C   C37       1.0  0.99700  0.29090  0.07540  1.0000
  C   C38       1.0  0.00300  0.79090  0.42460  1.0000
  C   C39       1.0  0.00300  0.70910  0.92460  1.0000
  C   C40       1.0  0.99700  0.20910  0.57540  1.0000
  C   C41       1.0  0.97130  0.32270  0.01740  1.0000
  C   C42       1.0  0.02870  0.82270  0.48260  1.0000
  C   C43       1.0  0.02870  0.67730  0.98260  1.0000
  C   C44       1.0  0.97130  0.17730  0.51740  1.0000
  H   H21       1.0  0.01770  0.34870  0.00520  1.0000
  H   H22       1.0  0.98230  0.84870  0.49480  1.0000
  H   H23       1.0  0.98230  0.65130  0.99480  1.0000
  H   H24       1.0  0.01770  0.15130  0.50520  1.0000
  C   C45       1.0  0.87670  0.31510  0.97860  1.0000
  C   C46       1.0  0.12330  0.81510  0.52140  1.0000
  C   C47       1.0  0.12330  0.68490  0.02140  1.0000
  C   C48       1.0  0.87670  0.18490  0.47860  1.0000
  H   H25       1.0  0.85940  0.33670  0.94020  1.0000
  H   H26       1.0  0.14060  0.83670  0.55980  1.0000
  H   H27       1.0  0.14060  0.66330  0.05980  1.0000
  H   H28       1.0  0.85940  0.16330  0.44020  1.0000
  C   C49       1.0  0.80710  0.27540  0.99670  1.0000
  C   C50       1.0  0.19290  0.77540  0.50330  1.0000
  C   C51       1.0  0.19290  0.72460  0.00330  1.0000
  C   C52       1.0  0.80710  0.22460  0.49670  1.0000
  H   H29       1.0  0.74380  0.26800  0.97010  1.0000
  H   H30       1.0  0.25620  0.76800  0.52990  1.0000
  H   H31       1.0  0.25620  0.73200  0.02990  1.0000
  H   H32       1.0  0.74380  0.23200  0.47010  1.0000
  C   C53       1.0  0.92580  0.25330  0.09200  1.0000
  C   C54       1.0  0.07420  0.75330  0.40800  1.0000
  C   C55       1.0  0.07420  0.74670  0.90800  1.0000
  C   C56       1.0  0.92580  0.24670  0.59200  1.0000
  H   H33       1.0  0.94240  0.23150  0.13030  1.0000
  H   H34       1.0  0.05760  0.73150  0.36970  1.0000
  H   H35       1.0  0.05760  0.76850  0.86970  1.0000
  H   H36       1.0  0.94240  0.26850  0.63030  1.0000
  C   C57       1.0  0.83140  0.24700  0.05360  1.0000
  C   C58       1.0  0.16860  0.74700  0.44640  1.0000
  C   C59       1.0  0.16860  0.75300  0.94640  1.0000
  C   C60       1.0  0.83140  0.25300  0.55360  1.0000
  C   C61       1.0  0.75900  0.20620  0.07650  1.0000
  C   C62       1.0  0.24100  0.70620  0.42350  1.0000
  C   C63       1.0  0.24100  0.79380  0.92350  1.0000
  C   C64       1.0  0.75900  0.29380  0.57650  1.0000
  C   C65       1.0  0.12140  0.06640  0.11080  1.0000
  C   C66       1.0  0.87860  0.56640  0.38920  1.0000
  C   C67       1.0  0.87860  0.93360  0.88920  1.0000
  C   C68       1.0  0.12140  0.43360  0.61080  1.0000
  H   H37       1.0  0.05510  0.05980  0.08340  1.0000
  H   H38       1.0  0.94490  0.55980  0.41660  1.0000
  H   H39       1.0  0.94490  0.94020  0.91660  1.0000
  H   H40       1.0  0.05510  0.44020  0.58340  1.0000
  H   H41       1.0  0.13790  0.98690  0.13320  1.0000
  H   H42       1.0  0.86210  0.48690  0.36680  1.0000
  H   H43       1.0  0.86210  0.01310  0.86680  1.0000
  H   H44       1.0  0.13790  0.51310  0.63320  1.0000
  C   C69       1.0  0.18330  0.07830  0.07830  1.0000
  C   C70       1.0  0.81670  0.57830  0.42170  1.0000
  C   C71       1.0  0.81670  0.92170  0.92170  1.0000
  C   C72       1.0  0.18330  0.42170  0.57830  1.0000
  C   C73       1.0  0.14480  0.06350  0.01870  1.0000
  C   C74       1.0  0.85520  0.56350  0.48130  1.0000
  C   C75       1.0  0.85520  0.93650  0.98130  1.0000
  C   C76       1.0  0.14480  0.43650  0.51870  1.0000
  H   H45       1.0  0.08000  0.04530  0.99900  1.0000
  H   H46       1.0  0.92000  0.54530  0.50100  1.0000
  H   H47       1.0  0.92000  0.95470  0.00100  1.0000
  H   H48       1.0  0.08000  0.45470  0.49900  1.0000
  C   C77       1.0  0.28130  0.10430  0.10670  1.0000
  C   C78       1.0  0.71870  0.60430  0.39330  1.0000
  C   C79       1.0  0.71870  0.89570  0.89330  1.0000
  C   C80       1.0  0.28130  0.39570  0.60670  1.0000
  H   H49       1.0  0.30880  0.11310  0.14660  1.0000
  H   H50       1.0  0.69120  0.61310  0.35340  1.0000
  H   H51       1.0  0.69120  0.88690  0.85340  1.0000
  H   H52       1.0  0.30880  0.38690  0.64660  1.0000
  C   C81       1.0  0.33790  0.11720  0.07710  1.0000
  C   C82       1.0  0.66210  0.61720  0.42290  1.0000
  C   C83       1.0  0.66210  0.88280  0.92290  1.0000
  C   C84       1.0  0.33790  0.38280  0.57710  1.0000
  C   C85       1.0  0.29660  0.10070  0.01740  1.0000
  C   C86       1.0  0.70340  0.60070  0.48260  1.0000
  C   C87       1.0  0.70340  0.89930  0.98260  1.0000
  C   C88       1.0  0.29660  0.39930  0.51740  1.0000
  H   H53       1.0  0.33440  0.10700  0.99700  1.0000
  H   H54       1.0  0.66560  0.60700  0.50300  1.0000
  H   H55       1.0  0.66560  0.89300  0.00300  1.0000
  H   H56       1.0  0.33440  0.39300  0.49700  1.0000
  C   C89       1.0  0.19960  0.07500  0.98820  1.0000
  C   C90       1.0  0.80040  0.57500  0.51180  1.0000
  C   C91       1.0  0.80040  0.92500  0.01180  1.0000
  C   C92       1.0  0.19960  0.42500  0.48820  1.0000
  H   H57       1.0  0.17200  0.06560  0.94840  1.0000
  H   H58       1.0  0.82800  0.56560  0.55160  1.0000
  H   H59       1.0  0.82800  0.93440  0.05160  1.0000
  H   H60       1.0  0.17200  0.43440  0.44840  1.0000
  C   C93       1.0  0.44490  0.14330  0.10930  1.0000
  C   C94       1.0  0.55510  0.64330  0.39070  1.0000
  C   C95       1.0  0.55510  0.85670  0.89070  1.0000
  C   C96       1.0  0.44490  0.35670  0.60930  1.0000
  O   O13       1.0  0.30710  0.50980  0.30277  1.0000
  O   O14       1.0  0.69290  0.00980  0.19723  1.0000
  O   O15       1.0  0.69290  0.49020  0.69723  1.0000
  O   O16       1.0  0.30710  0.99020  0.80277  1.0000
  O   O17       1.0  0.47930  0.15350  0.16190  1.0000
  O   O18       1.0  0.52070  0.65350  0.33810  1.0000
  O   O19       1.0  0.52070  0.84650  0.83810  1.0000
  O   O20       1.0  0.47930  0.34650  0.66190  1.0000
  O   O21       1.0  0.78790  0.18670  0.12900  1.0000
  O   O22       1.0  0.21210  0.68670  0.37100  1.0000
  O   O23       1.0  0.21210  0.81330  0.87100  1.0000
  O   O24       1.0  0.78790  0.31330  0.62900  1.0000
  O   O25       1.0  0.67290  0.19970  0.04160  1.0000
  O   O26       1.0  0.32710  0.69970  0.45840  1.0000
  O   O27       1.0  0.32710  0.80030  0.95840  1.0000
  O   O28       1.0  0.67290  0.30030  0.54160  1.0000
  O   O29       1.0  0.48990  0.15200  0.07750  1.0000
  O   O30       1.0  0.51010  0.65200  0.42250  1.0000
  O   O31       1.0  0.51010  0.84800  0.92250  1.0000
  O   O32       1.0  0.48990  0.34800  0.57750  1.0000
