data_image0
_chemical_formula_structural       Sn4O16N8C16H4C8H4C8H4C4H4C8H4C4H4C4H4C4H4C8H4C4H4C4H4C4H4C4H4C8H4C4H4C4H4C4H4C4H4C8H4C4H4C4H4C4H4C4H4Sn4O16N8C16H4C8H4C8H4C4H4C8H4C4H4C4H4C4H4C8H4C4H4C4H4C4H4C4H4C8H4C4H4C4H4C4H4C4H4C8H4C4H4C4H4C4H4C4H4
_chemical_formula_sum              "Sn8 O32 N16 C256 H184"
_cell_length_a       18.736
_cell_length_b       11.368
_cell_length_c       31.72
_cell_angle_alpha    90
_cell_angle_beta     97.254
_cell_angle_gamma    90

_space_group_name_H-M_alt    "P 1"
_space_group_IT_number       1

loop_
  _space_group_symop_operation_xyz
  'x, y, z'

loop_
  _atom_site_type_symbol
  _atom_site_label
  _atom_site_symmetry_multiplicity
  _atom_site_fract_x
  _atom_site_fract_y
  _atom_site_fract_z
  _atom_site_occupancy
  Sn  Sn1       1.0  0.84204  0.21093  0.63961  1.0000
  Sn  Sn2       1.0  0.65796  0.71093  0.86039  1.0000
  Sn  Sn3       1.0  0.15796  0.78907  0.36039  1.0000
  Sn  Sn4       1.0  0.34204  0.28907  0.13961  1.0000
  O   O1        1.0  0.82020  0.02080  0.64639  1.0000
  O   O2        1.0  0.67980  0.52080  0.85361  1.0000
  O   O3        1.0  0.17980  0.97920  0.35361  1.0000
  O   O4        1.0  0.32020  0.47920  0.14639  1.0000
  O   O5        1.0  0.88970  0.92230  0.69783  1.0000
  O   O6        1.0  0.61030  0.42230  0.80217  1.0000
  O   O7        1.0  0.11030  0.07770  0.30217  1.0000
  O   O8        1.0  0.38970  0.57770  0.19783  1.0000
  O   O9        1.0  0.94280  0.49590  0.66272  1.0000
  O   O10       1.0  0.55720  0.99590  0.83728  1.0000
  O   O11       1.0  0.05720  0.50410  0.33728  1.0000
  O   O12       1.0  0.44280  0.00410  0.16272  1.0000
  O   O13       1.0  0.84780  0.40100  0.62775  1.0000
  O   O14       1.0  0.65220  0.90100  0.87225  1.0000
  O   O15       1.0  0.15220  0.59900  0.37225  1.0000
  O   O16       1.0  0.34780  0.09900  0.12775  1.0000
  N   N1        1.0  0.70020  0.72590  0.54642  1.0000
  N   N2        1.0  0.79980  0.22590  0.95358  1.0000
  N   N3        1.0  0.29980  0.27410  0.45358  1.0000
  N   N4        1.0  0.20020  0.77410  0.04642  1.0000
  N   N5        1.0  0.51590  0.66340  0.41793  1.0000
  N   N6        1.0  0.98410  0.16340  0.08207  1.0000
  N   N7        1.0  0.48410  0.33660  0.58207  1.0000
  N   N8        1.0  0.01590  0.83660  0.91793  1.0000
  C   C1        1.0  0.84920  0.92890  0.66390  1.0000
  C   C2        1.0  0.65080  0.42890  0.83610  1.0000
  C   C3        1.0  0.15080  0.07110  0.33610  1.0000
  C   C4        1.0  0.34920  0.57110  0.16390  1.0000
  C   C5        1.0  0.88270  0.49260  0.64109  1.0000
  C   C6        1.0  0.61730  0.99260  0.85891  1.0000
  C   C7        1.0  0.11730  0.50740  0.35891  1.0000
  C   C8        1.0  0.38270  0.00740  0.14109  1.0000
  C   C9        1.0  0.82760  0.81630  0.63923  1.0000
  C   C10       1.0  0.67240  0.31630  0.86077  1.0000
  C   C11       1.0  0.17240  0.18370  0.36077  1.0000
  C   C12       1.0  0.32760  0.68370  0.13923  1.0000
  C   C13       1.0  0.86280  0.71150  0.65112  1.0000
  C   C14       1.0  0.63720  0.21150  0.84888  1.0000
  C   C15       1.0  0.13720  0.28850  0.34888  1.0000
  C   C16       1.0  0.36280  0.78850  0.15112  1.0000
  H   H1        1.0  0.89940  0.71090  0.67390  1.0000
  H   H2        1.0  0.60060  0.21090  0.82610  1.0000
  H   H3        1.0  0.10060  0.28910  0.32610  1.0000
  H   H4        1.0  0.39940  0.78910  0.17390  1.0000
  C   C17       1.0  0.84420  0.60880  0.62966  1.0000
  C   C18       1.0  0.65580  0.10880  0.87034  1.0000
  C   C19       1.0  0.15580  0.39120  0.37034  1.0000
  C   C20       1.0  0.34420  0.89120  0.12966  1.0000
  C   C21       1.0  0.78880  0.60900  0.59506  1.0000
  C   C22       1.0  0.71120  0.10900  0.90494  1.0000
  C   C23       1.0  0.21120  0.39100  0.40494  1.0000
  C   C24       1.0  0.28880  0.89100  0.09506  1.0000
  H   H5        1.0  0.77560  0.53930  0.58080  1.0000
  H   H6        1.0  0.72440  0.03930  0.91920  1.0000
  H   H7        1.0  0.22440  0.46070  0.41920  1.0000
  H   H8        1.0  0.27560  0.96070  0.08080  1.0000
  C   C25       1.0  0.75370  0.71470  0.58221  1.0000
  C   C26       1.0  0.74630  0.21470  0.91779  1.0000
  C   C27       1.0  0.24630  0.28530  0.41779  1.0000
  C   C28       1.0  0.25370  0.78530  0.08221  1.0000
  C   C29       1.0  0.77480  0.81760  0.60440  1.0000
  C   C30       1.0  0.72520  0.31760  0.89560  1.0000
  C   C31       1.0  0.22520  0.18240  0.39560  1.0000
  C   C32       1.0  0.27480  0.68240  0.10440  1.0000
  H   H9        1.0  0.75290  0.88840  0.59570  1.0000
  H   H10       1.0  0.74710  0.38840  0.90430  1.0000
  H   H11       1.0  0.24710  0.11160  0.40430  1.0000
  H   H12       1.0  0.25290  0.61160  0.09570  1.0000
  C   C33       1.0  0.66450  0.63870  0.53140  1.0000
  C   C34       1.0  0.83550  0.13870  0.96860  1.0000
  C   C35       1.0  0.33550  0.36130  0.46860  1.0000
  C   C36       1.0  0.16450  0.86130  0.03140  1.0000
  H   H13       1.0  0.67190  0.56600  0.54470  1.0000
  H   H14       1.0  0.82810  0.06600  0.95530  1.0000
  H   H15       1.0  0.32810  0.43400  0.45530  1.0000
  H   H16       1.0  0.17190  0.93400  0.04470  1.0000
  C   C37       1.0  0.61120  0.64870  0.49330  1.0000
  C   C38       1.0  0.88880  0.14870  0.00670  1.0000
  C   C39       1.0  0.38880  0.35130  0.50670  1.0000
  C   C40       1.0  0.11120  0.85130  0.99330  1.0000
  C   C41       1.0  0.59020  0.75560  0.47470  1.0000
  C   C42       1.0  0.90980  0.25560  0.02530  1.0000
  C   C43       1.0  0.40980  0.24440  0.52530  1.0000
  C   C44       1.0  0.09020  0.74440  0.97470  1.0000
  H   H17       1.0  0.60760  0.82520  0.48760  1.0000
  H   H18       1.0  0.89240  0.32520  0.01240  1.0000
  H   H19       1.0  0.39240  0.17480  0.51240  1.0000
  H   H20       1.0  0.10760  0.67480  0.98760  1.0000
  C   C45       1.0  0.54420  0.76040  0.43760  1.0000
  C   C46       1.0  0.95580  0.26040  0.06240  1.0000
  C   C47       1.0  0.45580  0.23960  0.56240  1.0000
  C   C48       1.0  0.04420  0.73960  0.93760  1.0000
  H   H21       1.0  0.53220  0.83350  0.42560  1.0000
  H   H22       1.0  0.96780  0.33350  0.07440  1.0000
  H   H23       1.0  0.46780  0.16650  0.57440  1.0000
  H   H24       1.0  0.03220  0.66650  0.92560  1.0000
  C   C49       1.0  0.58060  0.55000  0.47310  1.0000
  C   C50       1.0  0.91940  0.05000  0.02690  1.0000
  C   C51       1.0  0.41940  0.45000  0.52690  1.0000
  C   C52       1.0  0.08060  0.95000  0.97310  1.0000
  H   H25       1.0  0.59150  0.47590  0.48460  1.0000
  H   H26       1.0  0.90850  0.97590  0.01540  1.0000
  H   H27       1.0  0.40850  0.52410  0.51540  1.0000
  H   H28       1.0  0.09150  0.02410  0.98460  1.0000
  C   C53       1.0  0.53340  0.56120  0.43560  1.0000
  C   C54       1.0  0.96660  0.06120  0.06440  1.0000
  C   C55       1.0  0.46660  0.43880  0.56440  1.0000
  C   C56       1.0  0.03340  0.93880  0.93560  1.0000
  H   H29       1.0  0.51350  0.49340  0.42250  1.0000
  H   H30       1.0  0.98650  0.99340  0.07750  1.0000
  H   H31       1.0  0.48650  0.50660  0.57750  1.0000
  H   H32       1.0  0.01350  0.00660  0.92250  1.0000
  C   C57       1.0  0.94430  0.17800  0.61937  1.0000
  C   C58       1.0  0.55570  0.67800  0.88063  1.0000
  C   C59       1.0  0.05570  0.82200  0.38063  1.0000
  C   C60       1.0  0.44430  0.32200  0.11937  1.0000
  C   C61       1.0  0.96430  0.24780  0.58639  1.0000
  C   C62       1.0  0.53570  0.74780  0.91361  1.0000
  C   C63       1.0  0.03570  0.75220  0.41361  1.0000
  C   C64       1.0  0.46430  0.25220  0.08639  1.0000
  H   H33       1.0  0.93590  0.31190  0.57690  1.0000
  H   H34       1.0  0.56410  0.81190  0.92310  1.0000
  H   H35       1.0  0.06410  0.68810  0.42310  1.0000
  H   H36       1.0  0.43590  0.18810  0.07690  1.0000
  C   C65       1.0  0.02480  0.22330  0.56800  1.0000
  C   C66       1.0  0.47520  0.72330  0.93200  1.0000
  C   C67       1.0  0.97520  0.77670  0.43200  1.0000
  C   C68       1.0  0.52480  0.27670  0.06800  1.0000
  H   H37       1.0  0.03620  0.27000  0.54570  1.0000
  H   H38       1.0  0.46380  0.77000  0.95430  1.0000
  H   H39       1.0  0.96380  0.73000  0.45430  1.0000
  H   H40       1.0  0.53620  0.23000  0.04570  1.0000
  C   C69       1.0  0.06950  0.13010  0.58190  1.0000
  C   C70       1.0  0.43050  0.63010  0.91810  1.0000
  C   C71       1.0  0.93050  0.86990  0.41810  1.0000
  C   C72       1.0  0.56950  0.36990  0.08190  1.0000
  H   H41       1.0  0.11000  0.11310  0.56890  1.0000
  H   H42       1.0  0.39000  0.61310  0.93110  1.0000
  H   H43       1.0  0.89000  0.88690  0.43110  1.0000
  H   H44       1.0  0.61000  0.38690  0.06890  1.0000
  C   C73       1.0  0.05250  0.06280  0.61580  1.0000
  C   C74       1.0  0.44750  0.56280  0.88420  1.0000
  C   C75       1.0  0.94750  0.93720  0.38420  1.0000
  C   C76       1.0  0.55250  0.43720  0.11580  1.0000
  H   H45       1.0  0.08310  0.00260  0.62660  1.0000
  H   H46       1.0  0.41690  0.50260  0.87340  1.0000
  H   H47       1.0  0.91690  0.99740  0.37340  1.0000
  H   H48       1.0  0.58310  0.49740  0.12660  1.0000
  C   C77       1.0  0.98950  0.08530  0.63374  1.0000
  C   C78       1.0  0.51050  0.58530  0.86626  1.0000
  C   C79       1.0  0.01050  0.91470  0.36626  1.0000
  C   C80       1.0  0.48950  0.41470  0.13374  1.0000
  H   H49       1.0  0.97760  0.03760  0.65560  1.0000
  H   H50       1.0  0.52240  0.53760  0.84440  1.0000
  H   H51       1.0  0.02240  0.96240  0.34440  1.0000
  H   H52       1.0  0.47760  0.46240  0.15560  1.0000
  C   C81       1.0  0.82040  0.24370  0.70311  1.0000
  C   C82       1.0  0.67960  0.74370  0.79689  1.0000
  C   C83       1.0  0.17960  0.75630  0.29689  1.0000
  C   C84       1.0  0.32040  0.25630  0.20311  1.0000
  C   C85       1.0  0.76930  0.17920  0.72120  1.0000
  C   C86       1.0  0.73070  0.67920  0.77880  1.0000
  C   C87       1.0  0.23070  0.82080  0.27880  1.0000
  C   C88       1.0  0.26930  0.32080  0.22120  1.0000
  H   H53       1.0  0.74550  0.11690  0.70650  1.0000
  H   H54       1.0  0.75450  0.61690  0.79350  1.0000
  H   H55       1.0  0.25450  0.88310  0.29350  1.0000
  H   H56       1.0  0.24550  0.38310  0.20650  1.0000
  C   C89       1.0  0.75350  0.20890  0.76250  1.0000
  C   C90       1.0  0.74650  0.70890  0.73750  1.0000
  C   C91       1.0  0.24650  0.79110  0.23750  1.0000
  C   C92       1.0  0.25350  0.29110  0.26250  1.0000
  H   H57       1.0  0.71870  0.16670  0.77460  1.0000
  H   H58       1.0  0.78130  0.66670  0.72540  1.0000
  H   H59       1.0  0.28130  0.83330  0.22540  1.0000
  H   H60       1.0  0.21870  0.33330  0.27460  1.0000
  C   C93       1.0  0.78940  0.30020  0.78490  1.0000
  C   C94       1.0  0.71060  0.80020  0.71510  1.0000
  C   C95       1.0  0.21060  0.69980  0.21510  1.0000
  C   C96       1.0  0.28940  0.19980  0.28490  1.0000
  H   H61       1.0  0.77860  0.31930  0.81190  1.0000
  H   H62       1.0  0.72140  0.81930  0.68810  1.0000
  H   H63       1.0  0.22140  0.68070  0.18810  1.0000
  H   H64       1.0  0.27860  0.18070  0.31190  1.0000
  C   C97       1.0  0.84020  0.36190  0.76760  1.0000
  C   C98       1.0  0.65980  0.86190  0.73240  1.0000
  C   C99       1.0  0.15980  0.63810  0.23240  1.0000
  C   C100      1.0  0.34020  0.13810  0.26760  1.0000
  H   H65       1.0  0.86560  0.42130  0.78310  1.0000
  H   H66       1.0  0.63440  0.92130  0.71690  1.0000
  H   H67       1.0  0.13440  0.57870  0.21690  1.0000
  H   H68       1.0  0.36560  0.07870  0.28310  1.0000
  C   C101      1.0  0.85450  0.33680  0.72713  1.0000
  C   C102      1.0  0.64550  0.83680  0.77287  1.0000
  C   C103      1.0  0.14550  0.66320  0.27287  1.0000
  C   C104      1.0  0.35450  0.16320  0.22713  1.0000
  H   H69       1.0  0.88780  0.38280  0.71520  1.0000
  H   H70       1.0  0.61220  0.88280  0.78480  1.0000
  H   H71       1.0  0.11220  0.61720  0.28480  1.0000
  H   H72       1.0  0.38780  0.11720  0.21520  1.0000
  C   C105      1.0  0.75500  0.21350  0.59030  1.0000
  C   C106      1.0  0.74500  0.71350  0.90970  1.0000
  C   C107      1.0  0.24500  0.78650  0.40970  1.0000
  C   C108      1.0  0.25500  0.28650  0.09030  1.0000
  C   C109      1.0  0.69350  0.14140  0.59020  1.0000
  C   C110      1.0  0.80650  0.64140  0.90980  1.0000
  C   C111      1.0  0.30650  0.85860  0.40980  1.0000
  C   C112      1.0  0.19350  0.35860  0.09020  1.0000
  H   H73       1.0  0.69030  0.09310  0.61360  1.0000
  H   H74       1.0  0.80970  0.59310  0.88640  1.0000
  H   H75       1.0  0.30970  0.90690  0.38640  1.0000
  H   H76       1.0  0.19030  0.40690  0.11360  1.0000
  C   C113      1.0  0.63770  0.13920  0.55700  1.0000
  C   C114      1.0  0.86230  0.63920  0.94300  1.0000
  C   C115      1.0  0.36230  0.86080  0.44300  1.0000
  C   C116      1.0  0.13770  0.36080  0.05700  1.0000
  H   H77       1.0  0.59790  0.09110  0.55860  1.0000
  H   H78       1.0  0.90210  0.59110  0.94140  1.0000
  H   H79       1.0  0.40210  0.90890  0.44140  1.0000
  H   H80       1.0  0.09790  0.40890  0.05860  1.0000
  C   C117      1.0  0.64130  0.20770  0.52200  1.0000
  C   C118      1.0  0.85870  0.70770  0.97800  1.0000
  C   C119      1.0  0.35870  0.79230  0.47800  1.0000
  C   C120      1.0  0.14130  0.29230  0.02200  1.0000
  H   H81       1.0  0.60370  0.20680  0.49990  1.0000
  H   H82       1.0  0.89630  0.70680  0.00010  1.0000
  H   H83       1.0  0.39630  0.79320  0.50010  1.0000
  H   H84       1.0  0.10370  0.29320  0.99990  1.0000
  C   C121      1.0  0.70100  0.27890  0.51920  1.0000
  C   C122      1.0  0.79900  0.77890  0.98080  1.0000
  C   C123      1.0  0.29900  0.72110  0.48080  1.0000
  C   C124      1.0  0.20100  0.22110  0.01920  1.0000
  H   H85       1.0  0.70360  0.32480  0.49520  1.0000
  H   H86       1.0  0.79640  0.82480  0.00480  1.0000
  H   H87       1.0  0.29640  0.67520  0.50480  1.0000
  H   H88       1.0  0.20360  0.17520  0.99520  1.0000
  C   C125      1.0  0.75650  0.28090  0.55260  1.0000
  C   C126      1.0  0.74350  0.78090  0.94740  1.0000
  C   C127      1.0  0.24350  0.71910  0.44740  1.0000
  C   C128      1.0  0.25650  0.21910  0.05260  1.0000
  H   H89       1.0  0.79620  0.32830  0.55030  1.0000
  H   H90       1.0  0.70380  0.82830  0.94970  1.0000
  H   H91       1.0  0.20380  0.67170  0.44970  1.0000
  H   H92       1.0  0.29620  0.17170  0.05030  1.0000
  Sn  Sn5       1.0  0.68973  0.08667  0.37623  1.0000
  Sn  Sn6       1.0  0.81027  0.58667  0.12377  1.0000
  Sn  Sn7       1.0  0.31027  0.91333  0.62377  1.0000
  Sn  Sn8       1.0  0.18973  0.41333  0.87623  1.0000
  O   O17       1.0  0.71260  0.27390  0.37612  1.0000
  O   O18       1.0  0.78740  0.77390  0.12388  1.0000
  O   O19       1.0  0.28740  0.72610  0.62388  1.0000
  O   O20       1.0  0.21260  0.22610  0.87612  1.0000
  O   O21       1.0  0.62900  0.35720  0.32888  1.0000
  O   O22       1.0  0.87100  0.85720  0.17112  1.0000
  O   O23       1.0  0.37100  0.64280  0.67112  1.0000
  O   O24       1.0  0.12900  0.14280  0.82888  1.0000
  O   O25       1.0  0.61830  0.80220  0.32798  1.0000
  O   O26       1.0  0.88170  0.30220  0.17202  1.0000
  O   O27       1.0  0.38170  0.19780  0.67202  1.0000
  O   O28       1.0  0.11830  0.69780  0.82798  1.0000
  O   O29       1.0  0.67670  0.89600  0.38452  1.0000
  O   O30       1.0  0.82330  0.39600  0.11548  1.0000
  O   O31       1.0  0.32330  0.10400  0.61548  1.0000
  O   O32       1.0  0.17670  0.60400  0.88452  1.0000
  N   N9        1.0  0.83160  0.58370  0.46678  1.0000
  N   N10       1.0  0.66840  0.08370  0.03322  1.0000
  N   N11       1.0  0.16840  0.41630  0.53322  1.0000
  N   N12       1.0  0.33160  0.91630  0.96678  1.0000
  N   N13       1.0  0.02530  0.65490  0.58943  1.0000
  N   N14       1.0  0.47470  0.15490  0.91057  1.0000
  N   N15       1.0  0.97470  0.34510  0.41057  1.0000
  N   N16       1.0  0.52530  0.84510  0.08943  1.0000
  C   C129      1.0  0.67590  0.36200  0.35948  1.0000
  C   C130      1.0  0.82410  0.86200  0.14052  1.0000
  C   C131      1.0  0.32410  0.63800  0.64052  1.0000
  C   C132      1.0  0.17590  0.13800  0.85948  1.0000
  C   C133      1.0  0.65780  0.80430  0.36174  1.0000
  C   C134      1.0  0.84220  0.30430  0.13826  1.0000
  C   C135      1.0  0.34220  0.19570  0.63826  1.0000
  C   C136      1.0  0.15780  0.69570  0.86174  1.0000
  C   C137      1.0  0.69760  0.48020  0.37906  1.0000
  C   C138      1.0  0.80240  0.98020  0.12094  1.0000
  C   C139      1.0  0.30240  0.51980  0.62094  1.0000
  C   C140      1.0  0.19760  0.01980  0.87906  1.0000
  C   C141      1.0  0.66750  0.58350  0.36299  1.0000
  C   C142      1.0  0.83250  0.08350  0.13701  1.0000
  C   C143      1.0  0.33250  0.41650  0.63701  1.0000
  C   C144      1.0  0.16750  0.91650  0.86299  1.0000
  H   H93       1.0  0.63140  0.58130  0.34000  1.0000
  H   H94       1.0  0.86860  0.08130  0.16000  1.0000
  H   H95       1.0  0.36860  0.41870  0.66000  1.0000
  H   H96       1.0  0.13140  0.91870  0.84000  1.0000
  C   C145      1.0  0.69030  0.69200  0.38063  1.0000
  C   C146      1.0  0.80970  0.19200  0.11937  1.0000
  C   C147      1.0  0.30970  0.30800  0.61937  1.0000
  C   C148      1.0  0.19030  0.80800  0.88063  1.0000
  C   C149      1.0  0.74400  0.69440  0.41525  1.0000
  C   C150      1.0  0.75600  0.19440  0.08475  1.0000
  C   C151      1.0  0.25600  0.30560  0.58475  1.0000
  C   C152      1.0  0.24400  0.80560  0.91525  1.0000
  H   H97       1.0  0.75930  0.76630  0.42710  1.0000
  H   H98       1.0  0.74070  0.26630  0.07290  1.0000
  H   H99       1.0  0.24070  0.23370  0.57290  1.0000
  H   H100      1.0  0.25930  0.73370  0.92710  1.0000
  C   C153      1.0  0.77520  0.59140  0.43229  1.0000
  C   C154      1.0  0.72480  0.09140  0.06771  1.0000
  C   C155      1.0  0.22480  0.40860  0.56771  1.0000
  C   C156      1.0  0.27520  0.90860  0.93229  1.0000
  C   C157      1.0  0.75240  0.48370  0.41354  1.0000
  C   C158      1.0  0.74760  0.98370  0.08646  1.0000
  C   C159      1.0  0.24760  0.51630  0.58646  1.0000
  C   C160      1.0  0.25240  0.01630  0.91354  1.0000
  H   H101      1.0  0.77390  0.41410  0.42400  1.0000
  H   H102      1.0  0.72610  0.91410  0.07600  1.0000
  H   H103      1.0  0.22610  0.58590  0.57600  1.0000
  H   H104      1.0  0.27390  0.08590  0.92400  1.0000
  C   C161      1.0  0.84390  0.66740  0.49257  1.0000
  C   C162      1.0  0.65610  0.16740  0.00743  1.0000
  C   C163      1.0  0.15610  0.33260  0.50743  1.0000
  C   C164      1.0  0.34390  0.83260  0.99257  1.0000
  H   H105      1.0  0.81410  0.73320  0.49030  1.0000
  H   H106      1.0  0.68590  0.23320  0.00970  1.0000
  H   H107      1.0  0.18590  0.26680  0.50970  1.0000
  H   H108      1.0  0.31410  0.76680  0.99030  1.0000
  C   C165      1.0  0.90550  0.66160  0.52658  1.0000
  C   C166      1.0  0.59450  0.16160  0.97342  1.0000
  C   C167      1.0  0.09450  0.33840  0.47342  1.0000
  C   C168      1.0  0.40550  0.83840  0.02658  1.0000
  C   C169      1.0  0.92760  0.76010  0.55022  1.0000
  C   C170      1.0  0.57240  0.26010  0.94978  1.0000
  C   C171      1.0  0.07240  0.23990  0.44978  1.0000
  C   C172      1.0  0.42760  0.73990  0.05022  1.0000
  H   H109      1.0  0.90270  0.83070  0.54560  1.0000
  H   H110      1.0  0.59730  0.33070  0.95440  1.0000
  H   H111      1.0  0.09730  0.16930  0.45440  1.0000
  H   H112      1.0  0.40270  0.66930  0.04560  1.0000
  C   C173      1.0  0.98700  0.75270  0.58070  1.0000
  C   C174      1.0  0.51300  0.25270  0.91930  1.0000
  C   C175      1.0  0.01300  0.24730  0.41930  1.0000
  C   C176      1.0  0.48700  0.74730  0.08070  1.0000
  H   H113      1.0  0.00120  0.82020  0.59610  1.0000
  H   H114      1.0  0.49880  0.32020  0.90390  1.0000
  H   H115      1.0  0.99880  0.17980  0.40390  1.0000
  H   H116      1.0  0.50120  0.67980  0.09610  1.0000
  C   C177      1.0  0.00370  0.56060  0.56610  1.0000
  C   C178      1.0  0.49630  0.06060  0.93390  1.0000
  C   C179      1.0  0.99630  0.43940  0.43390  1.0000
  C   C180      1.0  0.50370  0.93940  0.06610  1.0000
  H   H117      1.0  0.02990  0.49140  0.57090  1.0000
  H   H118      1.0  0.47010  0.99140  0.92910  1.0000
  H   H119      1.0  0.97010  0.50860  0.42910  1.0000
  H   H120      1.0  0.52990  0.00860  0.07090  1.0000
  C   C181      1.0  0.94440  0.55990  0.53512  1.0000
  C   C182      1.0  0.55560  0.05990  0.96488  1.0000
  C   C183      1.0  0.05560  0.44010  0.46488  1.0000
  C   C184      1.0  0.44440  0.94010  0.03512  1.0000
  H   H121      1.0  0.93110  0.49120  0.52020  1.0000
  H   H122      1.0  0.56890  0.99120  0.97980  1.0000
  H   H123      1.0  0.06890  0.50880  0.47980  1.0000
  H   H124      1.0  0.43110  0.00880  0.02020  1.0000
  C   C185      1.0  0.57870  0.11290  0.38263  1.0000
  C   C186      1.0  0.92130  0.61290  0.11737  1.0000
  C   C187      1.0  0.42130  0.88710  0.61737  1.0000
  C   C188      1.0  0.07870  0.38710  0.88263  1.0000
  C   C189      1.0  0.52640  0.03120  0.36712  1.0000
  C   C190      1.0  0.97360  0.53120  0.13288  1.0000
  C   C191      1.0  0.47360  0.96880  0.63288  1.0000
  C   C192      1.0  0.02640  0.46880  0.86712  1.0000
  H   H125      1.0  0.53980  0.96450  0.35310  1.0000
  H   H126      1.0  0.96020  0.46450  0.14690  1.0000
  H   H127      1.0  0.46020  0.03550  0.64690  1.0000
  H   H128      1.0  0.03980  0.53550  0.85310  1.0000
  C   C193      1.0  0.45570  0.04730  0.37220  1.0000
  C   C194      1.0  0.04430  0.54730  0.12780  1.0000
  C   C195      1.0  0.54430  0.95270  0.62780  1.0000
  C   C196      1.0  0.95570  0.45270  0.87220  1.0000
  H   H129      1.0  0.42140  0.99350  0.36060  1.0000
  H   H130      1.0  0.07860  0.49350  0.13940  1.0000
  H   H131      1.0  0.57860  0.00650  0.63940  1.0000
  H   H132      1.0  0.92140  0.50650  0.86060  1.0000
  C   C197      1.0  0.43470  0.14270  0.39460  1.0000
  C   C198      1.0  0.06530  0.64270  0.10540  1.0000
  C   C199      1.0  0.56530  0.85730  0.60540  1.0000
  C   C200      1.0  0.93470  0.35730  0.89460  1.0000
  H   H133      1.0  0.38690  0.15100  0.39910  1.0000
  H   H134      1.0  0.11310  0.65100  0.10090  1.0000
  H   H135      1.0  0.61310  0.84900  0.60090  1.0000
  H   H136      1.0  0.88690  0.34900  0.89910  1.0000
  C   C201      1.0  0.48460  0.22520  0.41010  1.0000
  C   C202      1.0  0.01540  0.72520  0.08990  1.0000
  C   C203      1.0  0.51540  0.77480  0.58990  1.0000
  C   C204      1.0  0.98460  0.27480  0.91010  1.0000
  H   H137      1.0  0.47060  0.29090  0.42440  1.0000
  H   H138      1.0  0.02940  0.79090  0.07560  1.0000
  H   H139      1.0  0.52940  0.70910  0.57560  1.0000
  H   H140      1.0  0.97060  0.20910  0.92440  1.0000
  C   C205      1.0  0.55570  0.21010  0.40420  1.0000
  C   C206      1.0  0.94430  0.71010  0.09580  1.0000
  C   C207      1.0  0.44430  0.78990  0.59580  1.0000
  C   C208      1.0  0.05570  0.28990  0.90420  1.0000
  H   H141      1.0  0.58930  0.26620  0.41490  1.0000
  H   H142      1.0  0.91070  0.76620  0.08510  1.0000
  H   H143      1.0  0.41070  0.73380  0.58510  1.0000
  H   H144      1.0  0.08930  0.23380  0.91490  1.0000
  C   C209      1.0  0.73510  0.06090  0.31858  1.0000
  C   C210      1.0  0.76490  0.56090  0.18142  1.0000
  C   C211      1.0  0.26490  0.93910  0.68142  1.0000
  C   C212      1.0  0.23510  0.43910  0.81858  1.0000
  C   C213      1.0  0.77360  0.95710  0.31264  1.0000
  C   C214      1.0  0.72640  0.45710  0.18736  1.0000
  C   C215      1.0  0.22640  0.04290  0.68736  1.0000
  C   C216      1.0  0.27360  0.54290  0.81264  1.0000
  H   H145      1.0  0.77700  0.89890  0.33340  1.0000
  H   H146      1.0  0.72300  0.39890  0.16660  1.0000
  H   H147      1.0  0.22300  0.10110  0.66660  1.0000
  H   H148      1.0  0.27700  0.60110  0.83340  1.0000
  C   C217      1.0  0.80610  0.94040  0.27671  1.0000
  C   C218      1.0  0.69390  0.44040  0.22329  1.0000
  C   C219      1.0  0.19390  0.05960  0.72329  1.0000
  C   C220      1.0  0.30610  0.55960  0.77671  1.0000
  H   H149      1.0  0.83050  0.87050  0.27320  1.0000
  H   H150      1.0  0.66950  0.37050  0.22680  1.0000
  H   H151      1.0  0.16950  0.12950  0.72680  1.0000
  H   H152      1.0  0.33050  0.62950  0.77320  1.0000
  C   C221      1.0  0.80300  0.02680  0.24536  1.0000
  C   C222      1.0  0.69700  0.52680  0.25464  1.0000
  C   C223      1.0  0.19700  0.97320  0.75464  1.0000
  C   C224      1.0  0.30300  0.47320  0.74536  1.0000
  H   H153      1.0  0.82590  0.01580  0.22130  1.0000
  H   H154      1.0  0.67410  0.51580  0.27870  1.0000
  H   H155      1.0  0.17410  0.98420  0.77870  1.0000
  H   H156      1.0  0.32590  0.48420  0.72130  1.0000
  C   C225      1.0  0.76510  0.12960  0.25063  1.0000
  C   C226      1.0  0.73490  0.62960  0.24937  1.0000
  C   C227      1.0  0.23490  0.87040  0.74937  1.0000
  C   C228      1.0  0.26510  0.37040  0.75063  1.0000
  H   H157      1.0  0.76140  0.18710  0.22960  1.0000
  H   H158      1.0  0.73860  0.68710  0.27040  1.0000
  H   H159      1.0  0.23860  0.81290  0.77040  1.0000
  H   H160      1.0  0.26140  0.31290  0.72960  1.0000
  C   C229      1.0  0.73250  0.14700  0.28714  1.0000
  C   C230      1.0  0.76750  0.64700  0.21286  1.0000
  C   C231      1.0  0.26750  0.85300  0.71286  1.0000
  C   C232      1.0  0.23250  0.35300  0.78714  1.0000
  H   H161      1.0  0.70850  0.21730  0.29060  1.0000
  H   H162      1.0  0.79150  0.71730  0.20940  1.0000
  H   H163      1.0  0.29150  0.78270  0.70940  1.0000
  H   H164      1.0  0.20850  0.28270  0.79060  1.0000
  C   C233      1.0  0.76350  0.07790  0.43340  1.0000
  C   C234      1.0  0.73650  0.57790  0.06660  1.0000
  C   C235      1.0  0.23650  0.92210  0.56660  1.0000
  C   C236      1.0  0.26350  0.42210  0.93340  1.0000
  C   C237      1.0  0.82530  0.14600  0.43888  1.0000
  C   C238      1.0  0.67470  0.64600  0.06112  1.0000
  C   C239      1.0  0.17470  0.85400  0.56112  1.0000
  C   C240      1.0  0.32530  0.35400  0.93888  1.0000
  H   H165      1.0  0.83550  0.19650  0.41740  1.0000
  H   H166      1.0  0.66450  0.69650  0.08260  1.0000
  H   H167      1.0  0.16450  0.80350  0.58260  1.0000
  H   H168      1.0  0.33550  0.30350  0.91740  1.0000
  C   C241      1.0  0.87220  0.13900  0.47641  1.0000
  C   C242      1.0  0.62780  0.63900  0.02359  1.0000
  C   C243      1.0  0.12780  0.86100  0.52359  1.0000
  C   C244      1.0  0.37220  0.36100  0.97641  1.0000
  H   H169      1.0  0.91390  0.18420  0.47970  1.0000
  H   H170      1.0  0.58610  0.68420  0.02030  1.0000
  H   H171      1.0  0.08610  0.81580  0.52030  1.0000
  H   H172      1.0  0.41390  0.31580  0.97970  1.0000
  C   C245      1.0  0.85720  0.06540  0.50888  1.0000
  C   C246      1.0  0.64280  0.56540  0.99112  1.0000
  C   C247      1.0  0.14280  0.93460  0.49112  1.0000
  C   C248      1.0  0.35720  0.43460  0.00888  1.0000
  H   H173      1.0  0.88860  0.06100  0.53400  1.0000
  H   H174      1.0  0.61140  0.56100  0.96600  1.0000
  H   H175      1.0  0.11140  0.93900  0.46600  1.0000
  H   H176      1.0  0.38860  0.43900  0.03400  1.0000
  C   C249      1.0  0.79530  0.99850  0.50365  1.0000
  C   C250      1.0  0.70470  0.49850  0.99635  1.0000
  C   C251      1.0  0.20470  0.00150  0.49635  1.0000
  C   C252      1.0  0.29530  0.50150  0.00365  1.0000
  H   H177      1.0  0.78440  0.94940  0.52540  1.0000
  H   H178      1.0  0.71560  0.44940  0.97460  1.0000
  H   H179      1.0  0.21560  0.05060  0.47460  1.0000
  H   H180      1.0  0.28440  0.55060  0.02540  1.0000
  C   C253      1.0  0.74960  0.00430  0.46627  1.0000
  C   C254      1.0  0.75040  0.50430  0.03373  1.0000
  C   C255      1.0  0.25040  0.99570  0.53373  1.0000
  C   C256      1.0  0.24960  0.49570  0.96627  1.0000
  H   H181      1.0  0.70850  0.95770  0.46290  1.0000
  H   H182      1.0  0.79150  0.45770  0.03710  1.0000
  H   H183      1.0  0.29150  0.04230  0.53710  1.0000
  H   H184      1.0  0.20850  0.54230  0.96290  1.0000
