data_image0
_chemical_formula_structural       C6H2C2H2C4H2C2CuN2O8
_chemical_formula_sum              "C14 H6 Cu1 N2 O8"
_cell_length_a       6.6726
_cell_length_b       10.795
_cell_length_c       12.0764
_cell_angle_alpha    65.544
_cell_angle_beta     79.053
_cell_angle_gamma    77.697

_space_group_name_H-M_alt    "P 1"
_space_group_IT_number       1

loop_
  _space_group_symop_operation_xyz
  'x, y, z'

loop_
  _atom_site_type_symbol
  _atom_site_label
  _atom_site_symmetry_multiplicity
  _atom_site_fract_x
  _atom_site_fract_y
  _atom_site_fract_z
  _atom_site_occupancy
  C   C1        1.0  0.54860  0.49550  0.27030  1.0000
  C   C2        1.0  0.45140  0.50450  0.72970  1.0000
  C   C3        1.0  0.75220  0.42640  0.31950  1.0000
  C   C4        1.0  0.24780  0.57360  0.68050  1.0000
  C   C5        1.0  0.92010  0.37820  0.25500  1.0000
  C   C6        1.0  0.07990  0.62180  0.74500  1.0000
  H   H1        1.0  0.91100  0.38410  0.17700  1.0000
  H   H2        1.0  0.08900  0.61590  0.82300  1.0000
  C   C7        1.0  0.10330  0.32060  0.30740  1.0000
  C   C8        1.0  0.89670  0.67940  0.69260  1.0000
  H   H3        1.0  0.21770  0.28680  0.26500  1.0000
  H   H4        1.0  0.78230  0.71320  0.73500  1.0000
  C   C9        1.0  0.11490  0.31360  0.42320  1.0000
  C   C10       1.0  0.88510  0.68640  0.57680  1.0000
  C   C11       1.0  0.93920  0.36460  0.48310  1.0000
  C   C12       1.0  0.06080  0.63540  0.51690  1.0000
  H   H5        1.0  0.94480  0.36050  0.56090  1.0000
  H   H6        1.0  0.05520  0.63950  0.43910  1.0000
  C   C13       1.0  0.31150  0.25180  0.48420  1.0000
  C   C14       1.0  0.68850  0.74820  0.51580  1.0000
  Cu  Cu1       1.0  0.50000  0.50000  0.50000  1.0000
  N   N1        1.0  0.76190  0.41950  0.43250  1.0000
  N   N2        1.0  0.23810  0.58050  0.56750  1.0000
  O   O1        1.0  0.41750  0.54660  0.33890  1.0000
  O   O2        1.0  0.58250  0.45340  0.66110  1.0000
  O   O3        1.0  0.52140  0.50260  0.17050  1.0000
  O   O4        1.0  0.47860  0.49740  0.82950  1.0000
  O   O5        1.0  0.32040  0.27290  0.57800  1.0000
  O   O6        1.0  0.67960  0.72710  0.42200  1.0000
  O   O7        1.0  0.44870  0.18730  0.43620  1.0000
  O   O8        1.0  0.55130  0.81270  0.56380  1.0000
