data_image0
_chemical_formula_structural       U4Si4O32C8H4C4H4C8H4C4H4C8H4C4H4C4H4C4H4C4H4C8H4C12H4C4H4C12H4C4H4C4H4C12H4C4H4
_chemical_formula_sum              "U4 Si4 O32 C108 H68"
_cell_length_a       15.684
_cell_length_b       9.9882
_cell_length_c       21.05
_cell_angle_alpha    90
_cell_angle_beta     106.692
_cell_angle_gamma    90

_space_group_name_H-M_alt    "P 1"
_space_group_IT_number       1

loop_
  _space_group_symop_operation_xyz
  'x, y, z'

loop_
  _atom_site_type_symbol
  _atom_site_label
  _atom_site_symmetry_multiplicity
  _atom_site_fract_x
  _atom_site_fract_y
  _atom_site_fract_z
  _atom_site_occupancy
  U   U1        1.0  0.28293  0.00697  0.31742  1.0000
  U   U2        1.0  0.71707  0.00697  0.18258  1.0000
  U   U3        1.0  0.71707  0.99303  0.68258  1.0000
  U   U4        1.0  0.28293  0.99303  0.81742  1.0000
  Si  Si1       1.0  0.16223  0.69030  0.03751  1.0000
  Si  Si2       1.0  0.83777  0.69030  0.46249  1.0000
  Si  Si3       1.0  0.83777  0.30970  0.96249  1.0000
  Si  Si4       1.0  0.16223  0.30970  0.53751  1.0000
  O   O1        1.0  0.29770  0.16030  0.36100  1.0000
  O   O2        1.0  0.70230  0.16030  0.13900  1.0000
  O   O3        1.0  0.70230  0.83970  0.63900  1.0000
  O   O4        1.0  0.29770  0.83970  0.86100  1.0000
  O   O5        1.0  0.26870  0.85230  0.27370  1.0000
  O   O6        1.0  0.73130  0.85230  0.22630  1.0000
  O   O7        1.0  0.73130  0.14770  0.72630  1.0000
  O   O8        1.0  0.26870  0.14770  0.77370  1.0000
  O   O9        1.0  0.56020  0.00120  0.17910  1.0000
  O   O10       1.0  0.43980  0.00120  0.32090  1.0000
  O   O11       1.0  0.43980  0.99880  0.82090  1.0000
  O   O12       1.0  0.56020  0.99880  0.67910  1.0000
  O   O13       1.0  0.17850  0.12140  0.22480  1.0000
  O   O14       1.0  0.82150  0.12140  0.27520  1.0000
  O   O15       1.0  0.82150  0.87860  0.77520  1.0000
  O   O16       1.0  0.17850  0.87860  0.72480  1.0000
  O   O17       1.0  0.86990  0.98500  0.18140  1.0000
  O   O18       1.0  0.13010  0.98500  0.31860  1.0000
  O   O19       1.0  0.13010  0.01500  0.81860  1.0000
  O   O20       1.0  0.86990  0.01500  0.68140  1.0000
  O   O21       1.0  0.77380  0.90210  0.09530  1.0000
  O   O22       1.0  0.22620  0.90210  0.40470  1.0000
  O   O23       1.0  0.22620  0.09790  0.90470  1.0000
  O   O24       1.0  0.77380  0.09790  0.59530  1.0000
  O   O25       1.0  0.59290  0.90800  0.09520  1.0000
  O   O26       1.0  0.40710  0.90800  0.40480  1.0000
  O   O27       1.0  0.40710  0.09200  0.90480  1.0000
  O   O28       1.0  0.59290  0.09200  0.59520  1.0000
  O   O29       1.0  0.31890  0.13520  0.22850  1.0000
  O   O30       1.0  0.68110  0.13520  0.27150  1.0000
  O   O31       1.0  0.68110  0.86480  0.77150  1.0000
  O   O32       1.0  0.31890  0.86480  0.72850  1.0000
  C   C1        1.0  0.18460  0.53620  0.09000  1.0000
  C   C2        1.0  0.81540  0.53620  0.41000  1.0000
  C   C3        1.0  0.81540  0.46380  0.91000  1.0000
  C   C4        1.0  0.18460  0.46380  0.59000  1.0000
  C   C5        1.0  0.11880  0.47140  0.11170  1.0000
  C   C6        1.0  0.88120  0.47140  0.38830  1.0000
  C   C7        1.0  0.88120  0.52860  0.88830  1.0000
  C   C8        1.0  0.11880  0.52860  0.61170  1.0000
  H   H1        1.0  0.06090  0.50940  0.10080  1.0000
  H   H2        1.0  0.93910  0.50940  0.39920  1.0000
  H   H3        1.0  0.93910  0.49060  0.89920  1.0000
  H   H4        1.0  0.06090  0.49060  0.60080  1.0000
  C   C9        1.0  0.13460  0.35660  0.14780  1.0000
  C   C10       1.0  0.86540  0.35660  0.35220  1.0000
  C   C11       1.0  0.86540  0.64340  0.85220  1.0000
  C   C12       1.0  0.13460  0.64340  0.64780  1.0000
  H   H5        1.0  0.08830  0.31470  0.16140  1.0000
  H   H6        1.0  0.91170  0.31470  0.33860  1.0000
  H   H7        1.0  0.91170  0.68530  0.83860  1.0000
  H   H8        1.0  0.08830  0.68530  0.66140  1.0000
  C   C13       1.0  0.22140  0.30040  0.16490  1.0000
  C   C14       1.0  0.77860  0.30040  0.33510  1.0000
  C   C15       1.0  0.77860  0.69960  0.83510  1.0000
  C   C16       1.0  0.22140  0.69960  0.66490  1.0000
  C   C17       1.0  0.28390  0.35870  0.14290  1.0000
  C   C18       1.0  0.71610  0.35870  0.35710  1.0000
  C   C19       1.0  0.71610  0.64130  0.85710  1.0000
  C   C20       1.0  0.28390  0.64130  0.64290  1.0000
  H   H9        1.0  0.34130  0.31890  0.15260  1.0000
  H   H10       1.0  0.65870  0.31890  0.34740  1.0000
  H   H11       1.0  0.65870  0.68110  0.84740  1.0000
  H   H12       1.0  0.34130  0.68110  0.65260  1.0000
  C   C21       1.0  0.26750  0.47510  0.10640  1.0000
  C   C22       1.0  0.73250  0.47510  0.39360  1.0000
  C   C23       1.0  0.73250  0.52490  0.89360  1.0000
  C   C24       1.0  0.26750  0.52490  0.60640  1.0000
  H   H13       1.0  0.31400  0.51460  0.09220  1.0000
  H   H14       1.0  0.68600  0.51460  0.40780  1.0000
  H   H15       1.0  0.68600  0.48540  0.90780  1.0000
  H   H16       1.0  0.31400  0.48540  0.59220  1.0000
  C   C25       1.0  0.13290  0.63830  0.94800  1.0000
  C   C26       1.0  0.86710  0.63830  0.55200  1.0000
  C   C27       1.0  0.86710  0.36170  0.05200  1.0000
  C   C28       1.0  0.13290  0.36170  0.44800  1.0000
  C   C29       1.0  0.10960  0.73020  0.89870  1.0000
  C   C30       1.0  0.89040  0.73020  0.60130  1.0000
  C   C31       1.0  0.89040  0.26980  0.10130  1.0000
  C   C32       1.0  0.10960  0.26980  0.39870  1.0000
  H   H17       1.0  0.10470  0.82150  0.90980  1.0000
  H   H18       1.0  0.89530  0.82150  0.59020  1.0000
  H   H19       1.0  0.89530  0.17850  0.09020  1.0000
  H   H20       1.0  0.10470  0.17850  0.40980  1.0000
  C   C33       1.0  0.09280  0.69450  0.83200  1.0000
  C   C34       1.0  0.90720  0.69450  0.66800  1.0000
  C   C35       1.0  0.90720  0.30550  0.16800  1.0000
  C   C36       1.0  0.09280  0.30550  0.33200  1.0000
  H   H21       1.0  0.07540  0.76080  0.79830  1.0000
  H   H22       1.0  0.92460  0.76080  0.70170  1.0000
  H   H23       1.0  0.92460  0.23920  0.20170  1.0000
  H   H24       1.0  0.07540  0.23920  0.29830  1.0000
  C   C37       1.0  0.12460  0.46900  0.86480  1.0000
  C   C38       1.0  0.87540  0.46900  0.63520  1.0000
  C   C39       1.0  0.87540  0.53100  0.13520  1.0000
  C   C40       1.0  0.12460  0.53100  0.36480  1.0000
  H   H25       1.0  0.13110  0.37800  0.85400  1.0000
  H   H26       1.0  0.86890  0.37800  0.64600  1.0000
  H   H27       1.0  0.86890  0.62200  0.14600  1.0000
  H   H28       1.0  0.13110  0.62200  0.35400  1.0000
  C   C41       1.0  0.13840  0.50590  0.93040  1.0000
  C   C42       1.0  0.86160  0.50590  0.56960  1.0000
  C   C43       1.0  0.86160  0.49410  0.06960  1.0000
  C   C44       1.0  0.13840  0.49410  0.43040  1.0000
  H   H29       1.0  0.15200  0.43910  0.96390  1.0000
  H   H30       1.0  0.84800  0.43910  0.53610  1.0000
  H   H31       1.0  0.84800  0.56090  0.03610  1.0000
  H   H32       1.0  0.15200  0.56090  0.46390  1.0000
  C   C45       1.0  0.10150  0.56390  0.81530  1.0000
  C   C46       1.0  0.89850  0.56390  0.68470  1.0000
  C   C47       1.0  0.89850  0.43610  0.18470  1.0000
  C   C48       1.0  0.10150  0.43610  0.31530  1.0000
  H   H33       1.0  0.09170  0.53890  0.77030  1.0000
  H   H34       1.0  0.90830  0.53890  0.72970  1.0000
  H   H35       1.0  0.90830  0.46110  0.22970  1.0000
  H   H36       1.0  0.09170  0.46110  0.27030  1.0000
  C   C49       1.0  0.27050  0.78510  0.05970  1.0000
  C   C50       1.0  0.72950  0.78510  0.44030  1.0000
  C   C51       1.0  0.72950  0.21490  0.94030  1.0000
  C   C52       1.0  0.27050  0.21490  0.55970  1.0000
  C   C53       1.0  0.30610  0.83500  0.12290  1.0000
  C   C54       1.0  0.69390  0.83500  0.37710  1.0000
  C   C55       1.0  0.69390  0.16500  0.87710  1.0000
  C   C56       1.0  0.30610  0.16500  0.62290  1.0000
  H   H37       1.0  0.27140  0.83320  0.15320  1.0000
  H   H38       1.0  0.72860  0.83320  0.34680  1.0000
  H   H39       1.0  0.72860  0.16680  0.84680  1.0000
  H   H40       1.0  0.27140  0.16680  0.65320  1.0000
  C   C57       1.0  0.06950  0.78350  0.05960  1.0000
  C   C58       1.0  0.93050  0.78350  0.44040  1.0000
  C   C59       1.0  0.93050  0.21650  0.94040  1.0000
  C   C60       1.0  0.06950  0.21650  0.55960  1.0000
  C   C61       1.0  0.85330  0.92530  0.12650  1.0000
  C   C62       1.0  0.14670  0.92530  0.37350  1.0000
  C   C63       1.0  0.14670  0.07470  0.87350  1.0000
  C   C64       1.0  0.85330  0.07470  0.62650  1.0000
  C   C65       1.0  0.98390  0.79140  0.01640  1.0000
  C   C66       1.0  0.01610  0.79140  0.48360  1.0000
  C   C67       1.0  0.01610  0.20860  0.98360  1.0000
  C   C68       1.0  0.98390  0.20860  0.51640  1.0000
  H   H41       1.0  0.97360  0.76220  0.97190  1.0000
  H   H42       1.0  0.02640  0.76220  0.52810  1.0000
  H   H43       1.0  0.02640  0.23780  0.02810  1.0000
  H   H44       1.0  0.97360  0.23780  0.47190  1.0000
  C   C69       1.0  0.91370  0.84050  0.03640  1.0000
  C   C70       1.0  0.08630  0.84050  0.46360  1.0000
  C   C71       1.0  0.08630  0.15950  0.96360  1.0000
  C   C72       1.0  0.91370  0.15950  0.53640  1.0000
  H   H45       1.0  0.85580  0.84480  0.00590  1.0000
  H   H46       1.0  0.14420  0.84480  0.49410  1.0000
  H   H47       1.0  0.14420  0.15520  0.99410  1.0000
  H   H48       1.0  0.85580  0.15520  0.50590  1.0000
  C   C73       1.0  0.92770  0.88310  0.10060  1.0000
  C   C74       1.0  0.07230  0.88310  0.39940  1.0000
  C   C75       1.0  0.07230  0.11690  0.89940  1.0000
  C   C76       1.0  0.92770  0.11690  0.60060  1.0000
  C   C77       1.0  0.53670  0.93820  0.12540  1.0000
  C   C78       1.0  0.46330  0.93820  0.37460  1.0000
  C   C79       1.0  0.46330  0.06180  0.87460  1.0000
  C   C80       1.0  0.53670  0.06180  0.62540  1.0000
  C   C81       1.0  0.39020  0.88700  0.14290  1.0000
  C   C82       1.0  0.60980  0.88700  0.35710  1.0000
  C   C83       1.0  0.60980  0.11300  0.85710  1.0000
  C   C84       1.0  0.39020  0.11300  0.64290  1.0000
  H   H49       1.0  0.41180  0.92510  0.18590  1.0000
  H   H50       1.0  0.58820  0.92510  0.31410  1.0000
  H   H51       1.0  0.58820  0.07490  0.81410  1.0000
  H   H52       1.0  0.41180  0.07490  0.68590  1.0000
  C   C85       1.0  0.08070  0.83280  0.12230  1.0000
  C   C86       1.0  0.91930  0.83280  0.37770  1.0000
  C   C87       1.0  0.91930  0.16720  0.87770  1.0000
  C   C88       1.0  0.08070  0.16720  0.62230  1.0000
  H   H53       1.0  0.13830  0.83040  0.15310  1.0000
  H   H54       1.0  0.86170  0.83040  0.34690  1.0000
  H   H55       1.0  0.86170  0.16960  0.84690  1.0000
  H   H56       1.0  0.13830  0.16960  0.65310  1.0000
  C   C89       1.0  0.01320  0.88420  0.14170  1.0000
  C   C90       1.0  0.98680  0.88420  0.35830  1.0000
  C   C91       1.0  0.98680  0.11580  0.85830  1.0000
  C   C92       1.0  0.01320  0.11580  0.64170  1.0000
  H   H57       1.0  0.02480  0.92220  0.18480  1.0000
  H   H58       1.0  0.97520  0.92220  0.31520  1.0000
  H   H59       1.0  0.97520  0.07780  0.81520  1.0000
  H   H60       1.0  0.02480  0.07780  0.68480  1.0000
  C   C93       1.0  0.24010  0.18020  0.20810  1.0000
  C   C94       1.0  0.75990  0.18020  0.29190  1.0000
  C   C95       1.0  0.75990  0.81980  0.79190  1.0000
  C   C96       1.0  0.24010  0.81980  0.70810  1.0000
  C   C97       1.0  0.44470  0.88500  0.10100  1.0000
  C   C98       1.0  0.55530  0.88500  0.39900  1.0000
  C   C99       1.0  0.55530  0.11500  0.89900  1.0000
  C   C100      1.0  0.44470  0.11500  0.60100  1.0000
  C   C101      1.0  0.40890  0.84360  0.03620  1.0000
  C   C102      1.0  0.59110  0.84360  0.46380  1.0000
  C   C103      1.0  0.59110  0.15640  0.96380  1.0000
  C   C104      1.0  0.40890  0.15640  0.53620  1.0000
  H   H61       1.0  0.44190  0.84960  0.00480  1.0000
  H   H62       1.0  0.55810  0.84960  0.49520  1.0000
  H   H63       1.0  0.55810  0.15040  0.99520  1.0000
  H   H64       1.0  0.44190  0.15040  0.50480  1.0000
  C   C105      1.0  0.32070  0.79160  0.01810  1.0000
  C   C106      1.0  0.67930  0.79160  0.48190  1.0000
  C   C107      1.0  0.67930  0.20840  0.98190  1.0000
  C   C108      1.0  0.32070  0.20840  0.51810  1.0000
  H   H65       1.0  0.29630  0.75970  0.97410  1.0000
  H   H66       1.0  0.70370  0.75970  0.52590  1.0000
  H   H67       1.0  0.70370  0.24030  0.02590  1.0000
  H   H68       1.0  0.29630  0.24030  0.47410  1.0000
