data_image0
_chemical_formula_structural       C6H2C2H2C4H2C2CuN2O8
_chemical_formula_sum              "C14 H6 Cu1 N2 O8"
_cell_length_a       7.1562
_cell_length_b       7.2456
_cell_length_c       11.618
_cell_angle_alpha    82.299
_cell_angle_beta     89.056
_cell_angle_gamma    70.66

_space_group_name_H-M_alt    "P 1"
_space_group_IT_number       1

loop_
  _space_group_symop_operation_xyz
  'x, y, z'

loop_
  _atom_site_type_symbol
  _atom_site_label
  _atom_site_symmetry_multiplicity
  _atom_site_fract_x
  _atom_site_fract_y
  _atom_site_fract_z
  _atom_site_occupancy
  C   C1        1.0  0.68880  0.21110  0.17750  1.0000
  C   C2        1.0  0.31120  0.78890  0.82250  1.0000
  C   C3        1.0  0.85140  0.22470  0.09530  1.0000
  C   C4        1.0  0.14860  0.77530  0.90470  1.0000
  C   C5        1.0  0.04970  0.11970  0.11730  1.0000
  C   C6        1.0  0.95030  0.88030  0.88270  1.0000
  H   H1        1.0  0.09150  0.03270  0.18560  1.0000
  H   H2        1.0  0.90850  0.96730  0.81440  1.0000
  C   C7        1.0  0.18530  0.14580  0.03630  1.0000
  C   C8        1.0  0.81470  0.85420  0.96370  1.0000
  H   H3        1.0  0.32000  0.07980  0.05060  1.0000
  H   H4        1.0  0.68000  0.92020  0.94940  1.0000
  C   C9        1.0  0.11850  0.27140  0.93350  1.0000
  C   C10       1.0  0.88150  0.72860  0.06650  1.0000
  C   C11       1.0  0.91690  0.37090  0.91710  1.0000
  C   C12       1.0  0.08310  0.62910  0.08290  1.0000
  H   H5        1.0  0.87110  0.45470  0.84810  1.0000
  H   H6        1.0  0.12890  0.54530  0.15190  1.0000
  C   C13       1.0  0.26060  0.31400  0.84320  1.0000
  C   C14       1.0  0.73940  0.68600  0.15680  1.0000
  Cu  Cu1       1.0  0.50000  0.50000  0.00000  1.0000
  N   N1        1.0  0.78500  0.35050  0.99750  1.0000
  N   N2        1.0  0.21500  0.64950  0.00250  1.0000
  O   O1        1.0  0.51520  0.32960  0.14750  1.0000
  O   O2        1.0  0.48480  0.67040  0.85250  1.0000
  O   O3        1.0  0.72950  0.08890  0.26530  1.0000
  O   O4        1.0  0.27050  0.91110  0.73470  1.0000
  O   O5        1.0  0.18740  0.40720  0.74810  1.0000
  O   O6        1.0  0.81260  0.59280  0.25190  1.0000
  O   O7        1.0  0.43990  0.26120  0.87300  1.0000
  O   O8        1.0  0.56010  0.73880  0.12700  1.0000
