data_image0
_chemical_formula_structural       U4Si4O32C8H4C4H4C4H4C4H4C4H4C8H4C4H4C8H4C4H4C8H4C4H4C4H4C4H4C4H4C4H4C4H4C4H4C24
_chemical_formula_sum              "U4 Si4 O32 C108 H68"
_cell_length_a       11.7816
_cell_length_b       20.2191
_cell_length_c       15.3411
_cell_angle_alpha    90
_cell_angle_beta     92.438
_cell_angle_gamma    90

_space_group_name_H-M_alt    "P 1"
_space_group_IT_number       1

loop_
  _space_group_symop_operation_xyz
  'x, y, z'

loop_
  _atom_site_type_symbol
  _atom_site_label
  _atom_site_symmetry_multiplicity
  _atom_site_fract_x
  _atom_site_fract_y
  _atom_site_fract_z
  _atom_site_occupancy
  U   U1        1.0  0.48148  0.33319  0.82961  1.0000
  U   U2        1.0  0.51852  0.83319  0.67039  1.0000
  U   U3        1.0  0.51852  0.66681  0.17039  1.0000
  U   U4        1.0  0.48148  0.16681  0.32961  1.0000
  Si  Si1       1.0  0.11092  0.41957  0.31874  1.0000
  Si  Si2       1.0  0.88908  0.91957  0.18126  1.0000
  Si  Si3       1.0  0.88908  0.58043  0.68126  1.0000
  Si  Si4       1.0  0.11092  0.08043  0.81874  1.0000
  O   O1        1.0  0.40280  0.25985  0.81530  1.0000
  O   O2        1.0  0.59720  0.75985  0.68470  1.0000
  O   O3        1.0  0.59720  0.74015  0.18470  1.0000
  O   O4        1.0  0.40280  0.24015  0.31530  1.0000
  O   O5        1.0  0.34330  0.39281  0.73621  1.0000
  O   O6        1.0  0.65670  0.89281  0.76379  1.0000
  O   O7        1.0  0.65670  0.60719  0.26379  1.0000
  O   O8        1.0  0.34330  0.10719  0.23621  1.0000
  O   O9        1.0  0.47250  0.33838  0.66780  1.0000
  O   O10       1.0  0.52750  0.83838  0.83220  1.0000
  O   O11       1.0  0.52750  0.66162  0.33220  1.0000
  O   O12       1.0  0.47250  0.16162  0.16780  1.0000
  O   O13       1.0  0.64340  0.22000  0.26350  1.0000
  O   O14       1.0  0.35660  0.72000  0.23650  1.0000
  O   O15       1.0  0.35660  0.78000  0.73650  1.0000
  O   O16       1.0  0.64340  0.28000  0.76350  1.0000
  O   O17       1.0  0.64160  0.22859  0.40489  1.0000
  O   O18       1.0  0.35840  0.72859  0.09511  1.0000
  O   O19       1.0  0.35840  0.77141  0.59511  1.0000
  O   O20       1.0  0.64160  0.27141  0.90489  1.0000
  O   O21       1.0  0.44840  0.31768  0.98530  1.0000
  O   O22       1.0  0.55160  0.81768  0.51470  1.0000
  O   O23       1.0  0.55160  0.68232  0.01470  1.0000
  O   O24       1.0  0.44840  0.18232  0.48530  1.0000
  O   O25       1.0  0.33800  0.38890  0.91490  1.0000
  O   O26       1.0  0.66200  0.88890  0.58510  1.0000
  O   O27       1.0  0.66200  0.61110  0.08510  1.0000
  O   O28       1.0  0.33800  0.11110  0.41490  1.0000
  O   O29       1.0  0.56340  0.40485  0.84500  1.0000
  O   O30       1.0  0.43660  0.90485  0.65500  1.0000
  O   O31       1.0  0.43660  0.59515  0.15500  1.0000
  O   O32       1.0  0.56340  0.09515  0.34500  1.0000
  C   C1        1.0  0.06020  0.50510  0.30730  1.0000
  C   C2        1.0  0.93980  0.00510  0.19270  1.0000
  C   C3        1.0  0.93980  0.49490  0.69270  1.0000
  C   C4        1.0  0.06020  0.99490  0.80730  1.0000
  C   C5        1.0  0.11960  0.55930  0.34220  1.0000
  C   C6        1.0  0.88040  0.05930  0.15780  1.0000
  C   C7        1.0  0.88040  0.44070  0.65780  1.0000
  C   C8        1.0  0.11960  0.94070  0.84220  1.0000
  H   H1        1.0  0.18390  0.55100  0.38010  1.0000
  H   H2        1.0  0.81610  0.05100  0.11990  1.0000
  H   H3        1.0  0.81610  0.44900  0.61990  1.0000
  H   H4        1.0  0.18390  0.94900  0.88010  1.0000
  C   C9        1.0  0.09010  0.62480  0.32490  1.0000
  C   C10       1.0  0.90990  0.12480  0.17510  1.0000
  C   C11       1.0  0.90990  0.37520  0.67510  1.0000
  C   C12       1.0  0.09010  0.87520  0.82490  1.0000
  H   H5        1.0  0.13310  0.65990  0.35090  1.0000
  H   H6        1.0  0.86690  0.15990  0.14910  1.0000
  H   H7        1.0  0.86690  0.34010  0.64910  1.0000
  H   H8        1.0  0.13310  0.84010  0.85090  1.0000
  C   C13       1.0  0.99740  0.63810  0.26920  1.0000
  C   C14       1.0  0.00260  0.13810  0.23080  1.0000
  C   C15       1.0  0.00260  0.36190  0.73080  1.0000
  C   C16       1.0  0.99740  0.86190  0.76920  1.0000
  H   H9        1.0  0.97650  0.68260  0.25670  1.0000
  H   H10       1.0  0.02350  0.18260  0.24330  1.0000
  H   H11       1.0  0.02350  0.31740  0.74330  1.0000
  H   H12       1.0  0.97650  0.81740  0.75670  1.0000
  C   C17       1.0  0.93470  0.58630  0.23160  1.0000
  C   C18       1.0  0.06530  0.08630  0.26840  1.0000
  C   C19       1.0  0.06530  0.41370  0.76840  1.0000
  C   C20       1.0  0.93470  0.91370  0.73160  1.0000
  H   H13       1.0  0.87110  0.59530  0.19340  1.0000
  H   H14       1.0  0.12890  0.09530  0.30660  1.0000
  H   H15       1.0  0.12890  0.40470  0.80660  1.0000
  H   H16       1.0  0.87110  0.90470  0.69340  1.0000
  C   C21       1.0  0.96580  0.52140  0.25040  1.0000
  C   C22       1.0  0.03420  0.02140  0.24960  1.0000
  C   C23       1.0  0.03420  0.47860  0.74960  1.0000
  C   C24       1.0  0.96580  0.97860  0.75040  1.0000
  H   H17       1.0  0.92240  0.48650  0.22420  1.0000
  H   H18       1.0  0.07760  0.98650  0.27580  1.0000
  H   H19       1.0  0.07760  0.51350  0.77580  1.0000
  H   H20       1.0  0.92240  0.01350  0.72420  1.0000
  C   C25       1.0  0.19880  0.40800  0.42240  1.0000
  C   C26       1.0  0.80120  0.90800  0.07760  1.0000
  C   C27       1.0  0.80120  0.59200  0.57760  1.0000
  C   C28       1.0  0.19880  0.09200  0.92240  1.0000
  C   C29       1.0  0.16930  0.43850  0.49980  1.0000
  C   C30       1.0  0.83070  0.93850  0.00020  1.0000
  C   C31       1.0  0.83070  0.56150  0.50020  1.0000
  C   C32       1.0  0.16930  0.06150  0.99980  1.0000
  H   H21       1.0  0.10760  0.46880  0.49850  1.0000
  H   H22       1.0  0.89240  0.96880  0.00150  1.0000
  H   H23       1.0  0.89240  0.53120  0.50150  1.0000
  H   H24       1.0  0.10760  0.03120  0.99850  1.0000
  C   C33       1.0  0.22680  0.42610  0.57760  1.0000
  C   C34       1.0  0.77320  0.92610  0.92240  1.0000
  C   C35       1.0  0.77320  0.57390  0.42240  1.0000
  C   C36       1.0  0.22680  0.07390  0.07760  1.0000
  H   H25       1.0  0.20440  0.44780  0.62900  1.0000
  H   H26       1.0  0.79560  0.94780  0.87100  1.0000
  H   H27       1.0  0.79560  0.55220  0.37100  1.0000
  H   H28       1.0  0.20440  0.05220  0.12900  1.0000
  C   C37       1.0  0.31690  0.38220  0.58230  1.0000
  C   C38       1.0  0.68310  0.88220  0.91770  1.0000
  C   C39       1.0  0.68310  0.61780  0.41770  1.0000
  C   C40       1.0  0.31690  0.11780  0.08230  1.0000
  C   C41       1.0  0.34810  0.35100  0.50560  1.0000
  C   C42       1.0  0.65190  0.85100  0.99440  1.0000
  C   C43       1.0  0.65190  0.64900  0.49440  1.0000
  C   C44       1.0  0.34810  0.14900  0.00560  1.0000
  H   H29       1.0  0.41030  0.32110  0.50700  1.0000
  H   H30       1.0  0.58970  0.82110  0.99300  1.0000
  H   H31       1.0  0.58970  0.67890  0.49300  1.0000
  H   H32       1.0  0.41030  0.17890  0.00700  1.0000
  C   C45       1.0  0.28930  0.36360  0.42790  1.0000
  C   C46       1.0  0.71070  0.86360  0.07210  1.0000
  C   C47       1.0  0.71070  0.63640  0.57210  1.0000
  C   C48       1.0  0.28930  0.13640  0.92790  1.0000
  H   H33       1.0  0.31090  0.34130  0.37670  1.0000
  H   H34       1.0  0.68910  0.84130  0.12330  1.0000
  H   H35       1.0  0.68910  0.65870  0.62330  1.0000
  H   H36       1.0  0.31090  0.15870  0.87670  1.0000
  C   C49       1.0  0.19140  0.39930  0.21840  1.0000
  C   C50       1.0  0.80860  0.89930  0.28160  1.0000
  C   C51       1.0  0.80860  0.60070  0.78160  1.0000
  C   C52       1.0  0.19140  0.10070  0.71840  1.0000
  C   C53       1.0  0.23660  0.33730  0.20310  1.0000
  C   C54       1.0  0.76340  0.83730  0.29690  1.0000
  C   C55       1.0  0.76340  0.66270  0.79690  1.0000
  C   C56       1.0  0.23660  0.16270  0.70310  1.0000
  H   H37       1.0  0.22600  0.30290  0.24410  1.0000
  H   H38       1.0  0.77400  0.80290  0.25590  1.0000
  H   H39       1.0  0.77400  0.69710  0.75590  1.0000
  H   H40       1.0  0.22600  0.19710  0.74410  1.0000
  C   C57       1.0  0.29720  0.32450  0.12900  1.0000
  C   C58       1.0  0.70280  0.82450  0.37100  1.0000
  C   C59       1.0  0.70280  0.67550  0.87100  1.0000
  C   C60       1.0  0.29720  0.17550  0.62900  1.0000
  H   H41       1.0  0.33200  0.28250  0.12210  1.0000
  H   H42       1.0  0.66800  0.78250  0.37790  1.0000
  H   H43       1.0  0.66800  0.71750  0.87790  1.0000
  H   H44       1.0  0.33200  0.21750  0.62210  1.0000
  C   C61       1.0  0.20210  0.44820  0.15380  1.0000
  C   C62       1.0  0.79790  0.94820  0.34620  1.0000
  C   C63       1.0  0.79790  0.55180  0.84620  1.0000
  C   C64       1.0  0.20210  0.05180  0.65380  1.0000
  H   H45       1.0  0.17170  0.49120  0.16230  1.0000
  H   H46       1.0  0.82830  0.99120  0.33770  1.0000
  H   H47       1.0  0.82830  0.50880  0.83770  1.0000
  H   H48       1.0  0.17170  0.00880  0.66230  1.0000
  C   C65       1.0  0.25680  0.43390  0.07840  1.0000
  C   C66       1.0  0.74320  0.93390  0.42160  1.0000
  C   C67       1.0  0.74320  0.56610  0.92160  1.0000
  C   C68       1.0  0.25680  0.06610  0.57840  1.0000
  H   H49       1.0  0.26050  0.46650  0.03400  1.0000
  H   H50       1.0  0.73950  0.96650  0.46600  1.0000
  H   H51       1.0  0.73950  0.53350  0.96600  1.0000
  H   H52       1.0  0.26050  0.03350  0.53400  1.0000
  C   C69       1.0  0.93620  0.33360  0.24840  1.0000
  C   C70       1.0  0.06380  0.83360  0.25160  1.0000
  C   C71       1.0  0.06380  0.66640  0.75160  1.0000
  C   C72       1.0  0.93620  0.16640  0.74840  1.0000
  H   H53       1.0  0.96580  0.34360  0.19330  1.0000
  H   H54       1.0  0.03420  0.84360  0.30670  1.0000
  H   H55       1.0  0.03420  0.65640  0.80670  1.0000
  H   H56       1.0  0.96580  0.15640  0.69330  1.0000
  C   C73       1.0  0.84200  0.29250  0.25240  1.0000
  C   C74       1.0  0.15800  0.79250  0.24760  1.0000
  C   C75       1.0  0.15800  0.70750  0.74760  1.0000
  C   C76       1.0  0.84200  0.20750  0.75240  1.0000
  H   H57       1.0  0.80910  0.27370  0.20040  1.0000
  H   H58       1.0  0.19090  0.77370  0.29960  1.0000
  H   H59       1.0  0.19090  0.72630  0.79960  1.0000
  H   H60       1.0  0.80910  0.22630  0.70040  1.0000
  C   C77       1.0  0.84690  0.30420  0.40800  1.0000
  C   C78       1.0  0.15310  0.80420  0.09200  1.0000
  C   C79       1.0  0.15310  0.69580  0.59200  1.0000
  C   C80       1.0  0.84690  0.19580  0.90800  1.0000
  H   H61       1.0  0.81680  0.29400  0.46290  1.0000
  H   H62       1.0  0.18320  0.79400  0.03710  1.0000
  H   H63       1.0  0.18320  0.70600  0.53710  1.0000
  H   H64       1.0  0.81680  0.20600  0.96290  1.0000
  C   C81       1.0  0.94180  0.34440  0.40350  1.0000
  C   C82       1.0  0.05820  0.84440  0.09650  1.0000
  C   C83       1.0  0.05820  0.65560  0.59650  1.0000
  C   C84       1.0  0.94180  0.15560  0.90350  1.0000
  H   H65       1.0  0.97630  0.36140  0.45590  1.0000
  H   H66       1.0  0.02370  0.86140  0.04410  1.0000
  H   H67       1.0  0.02370  0.63860  0.54410  1.0000
  H   H68       1.0  0.97630  0.13860  0.95590  1.0000
  C   C85       1.0  0.38050  0.37060  0.66570  1.0000
  C   C86       1.0  0.61950  0.87060  0.83430  1.0000
  C   C87       1.0  0.61950  0.62940  0.33430  1.0000
  C   C88       1.0  0.38050  0.12940  0.16570  1.0000
  C   C89       1.0  0.68960  0.24000  0.33360  1.0000
  C   C90       1.0  0.31040  0.74000  0.16640  1.0000
  C   C91       1.0  0.31040  0.76000  0.66640  1.0000
  C   C92       1.0  0.68960  0.26000  0.83360  1.0000
  C   C93       1.0  0.79620  0.27880  0.33160  1.0000
  C   C94       1.0  0.20380  0.77880  0.16840  1.0000
  C   C95       1.0  0.20380  0.72120  0.66840  1.0000
  C   C96       1.0  0.79620  0.22120  0.83160  1.0000
  C   C97       1.0  0.30690  0.37170  0.06630  1.0000
  C   C98       1.0  0.69310  0.87170  0.43370  1.0000
  C   C99       1.0  0.69310  0.62830  0.93370  1.0000
  C   C100      1.0  0.30690  0.12830  0.56630  1.0000
  C   C101      1.0  0.36830  0.35810  0.98520  1.0000
  C   C102      1.0  0.63170  0.85810  0.51480  1.0000
  C   C103      1.0  0.63170  0.64190  0.01480  1.0000
  C   C104      1.0  0.36830  0.14190  0.48520  1.0000
  C   C105      1.0  0.98810  0.36060  0.32380  1.0000
  C   C106      1.0  0.01190  0.86060  0.17620  1.0000
  C   C107      1.0  0.01190  0.63940  0.67620  1.0000
  C   C108      1.0  0.98810  0.13940  0.82380  1.0000
