data_image0
_chemical_formula_structural       Fe4S8C16H8C8H8C8H8C8H8O24
_chemical_formula_sum              "Fe4 S8 C40 H32 O24"
_cell_length_a       17.855
_cell_length_b       12.213
_cell_length_c       13.351
_cell_angle_alpha    90
_cell_angle_beta     121.27
_cell_angle_gamma    90

_space_group_name_H-M_alt    "P 1"
_space_group_IT_number       1

loop_
  _space_group_symop_operation_xyz
  'x, y, z'

loop_
  _atom_site_type_symbol
  _atom_site_label
  _atom_site_symmetry_multiplicity
  _atom_site_fract_x
  _atom_site_fract_y
  _atom_site_fract_z
  _atom_site_occupancy
  Fe  Fe1       1.0  0.25000  0.75000  0.00000  1.0000
  Fe  Fe2       1.0  0.75000  0.25000  0.00000  1.0000
  Fe  Fe3       1.0  0.75000  0.75000  0.50000  1.0000
  Fe  Fe4       1.0  0.25000  0.25000  0.50000  1.0000
  S   S1        1.0  0.20586  0.54207  0.13406  1.0000
  S   S2        1.0  0.70586  0.04207  0.13406  1.0000
  S   S3        1.0  0.79414  0.54207  0.36594  1.0000
  S   S4        1.0  0.29414  0.04207  0.36594  1.0000
  S   S5        1.0  0.79414  0.45793  0.86594  1.0000
  S   S6        1.0  0.29414  0.95793  0.86594  1.0000
  S   S7        1.0  0.20586  0.45793  0.63406  1.0000
  S   S8        1.0  0.70586  0.95793  0.63406  1.0000
  C   C1        1.0  0.27465  0.64230  0.12980  1.0000
  C   C2        1.0  0.77465  0.14230  0.12980  1.0000
  C   C3        1.0  0.72535  0.64230  0.37020  1.0000
  C   C4        1.0  0.22535  0.14230  0.37020  1.0000
  C   C5        1.0  0.72535  0.35770  0.87020  1.0000
  C   C6        1.0  0.22535  0.85770  0.87020  1.0000
  C   C7        1.0  0.27465  0.35770  0.62980  1.0000
  C   C8        1.0  0.77465  0.85770  0.62980  1.0000
  C   C9        1.0  0.28520  0.75190  0.17300  1.0000
  C   C10       1.0  0.78520  0.25190  0.17300  1.0000
  C   C11       1.0  0.71480  0.75190  0.32700  1.0000
  C   C12       1.0  0.21480  0.25190  0.32700  1.0000
  C   C13       1.0  0.71480  0.24810  0.82700  1.0000
  C   C14       1.0  0.21480  0.74810  0.82700  1.0000
  C   C15       1.0  0.28520  0.24810  0.67300  1.0000
  C   C16       1.0  0.78520  0.74810  0.67300  1.0000
  H   H1        1.0  0.25320  0.78660  0.20590  1.0000
  H   H2        1.0  0.75320  0.28660  0.20590  1.0000
  H   H3        1.0  0.74680  0.78660  0.29410  1.0000
  H   H4        1.0  0.24680  0.28660  0.29410  1.0000
  H   H5        1.0  0.74680  0.21340  0.79410  1.0000
  H   H6        1.0  0.24680  0.71340  0.79410  1.0000
  H   H7        1.0  0.25320  0.21340  0.70590  1.0000
  H   H8        1.0  0.75320  0.71340  0.70590  1.0000
  C   C17       1.0  0.35260  0.80030  0.16010  1.0000
  C   C18       1.0  0.85260  0.30030  0.16010  1.0000
  C   C19       1.0  0.64740  0.80030  0.33990  1.0000
  C   C20       1.0  0.14740  0.30030  0.33990  1.0000
  C   C21       1.0  0.64740  0.19970  0.83990  1.0000
  C   C22       1.0  0.14740  0.69970  0.83990  1.0000
  C   C23       1.0  0.35260  0.19970  0.66010  1.0000
  C   C24       1.0  0.85260  0.69970  0.66010  1.0000
  H   H9        1.0  0.37390  0.87570  0.18100  1.0000
  H   H10       1.0  0.87390  0.37570  0.18100  1.0000
  H   H11       1.0  0.62610  0.87570  0.31900  1.0000
  H   H12       1.0  0.12610  0.37570  0.31900  1.0000
  H   H13       1.0  0.62610  0.12430  0.81900  1.0000
  H   H14       1.0  0.12610  0.62430  0.81900  1.0000
  H   H15       1.0  0.37390  0.12430  0.68100  1.0000
  H   H16       1.0  0.87390  0.62430  0.68100  1.0000
  C   C25       1.0  0.38220  0.72320  0.11040  1.0000
  C   C26       1.0  0.88220  0.22320  0.11040  1.0000
  C   C27       1.0  0.61780  0.72320  0.38960  1.0000
  C   C28       1.0  0.11780  0.22320  0.38960  1.0000
  C   C29       1.0  0.61780  0.27680  0.88960  1.0000
  C   C30       1.0  0.11780  0.77680  0.88960  1.0000
  C   C31       1.0  0.38220  0.27680  0.61040  1.0000
  C   C32       1.0  0.88220  0.77680  0.61040  1.0000
  H   H17       1.0  0.42750  0.73580  0.09110  1.0000
  H   H18       1.0  0.92750  0.23580  0.09110  1.0000
  H   H19       1.0  0.57250  0.73580  0.40890  1.0000
  H   H20       1.0  0.07250  0.23580  0.40890  1.0000
  H   H21       1.0  0.57250  0.26420  0.90890  1.0000
  H   H22       1.0  0.07250  0.76420  0.90890  1.0000
  H   H23       1.0  0.42750  0.26420  0.59110  1.0000
  H   H24       1.0  0.92750  0.76420  0.59110  1.0000
  C   C33       1.0  0.33520  0.62410  0.09190  1.0000
  C   C34       1.0  0.83520  0.12410  0.09190  1.0000
  C   C35       1.0  0.66480  0.62410  0.40810  1.0000
  C   C36       1.0  0.16480  0.12410  0.40810  1.0000
  C   C37       1.0  0.66480  0.37590  0.90810  1.0000
  C   C38       1.0  0.16480  0.87590  0.90810  1.0000
  C   C39       1.0  0.33520  0.37590  0.59190  1.0000
  C   C40       1.0  0.83520  0.87590  0.59190  1.0000
  H   H25       1.0  0.34260  0.55620  0.05890  1.0000
  H   H26       1.0  0.84260  0.05620  0.05890  1.0000
  H   H27       1.0  0.65740  0.55620  0.44110  1.0000
  H   H28       1.0  0.15740  0.05620  0.44110  1.0000
  H   H29       1.0  0.65740  0.44380  0.94110  1.0000
  H   H30       1.0  0.15740  0.94380  0.94110  1.0000
  H   H31       1.0  0.34260  0.44380  0.55890  1.0000
  H   H32       1.0  0.84260  0.94380  0.55890  1.0000
  O   O1        1.0  0.23268  0.53150  0.25683  1.0000
  O   O2        1.0  0.73268  0.03150  0.25683  1.0000
  O   O3        1.0  0.76732  0.53150  0.24317  1.0000
  O   O4        1.0  0.26732  0.03150  0.24317  1.0000
  O   O5        1.0  0.76732  0.46850  0.74317  1.0000
  O   O6        1.0  0.26732  0.96850  0.74317  1.0000
  O   O7        1.0  0.23268  0.46850  0.75683  1.0000
  O   O8        1.0  0.73268  0.96850  0.75683  1.0000
  O   O9        1.0  0.11535  0.58140  0.06400  1.0000
  O   O10       1.0  0.61535  0.08140  0.06400  1.0000
  O   O11       1.0  0.88465  0.58140  0.43600  1.0000
  O   O12       1.0  0.38465  0.08140  0.43600  1.0000
  O   O13       1.0  0.88465  0.41860  0.93600  1.0000
  O   O14       1.0  0.38465  0.91860  0.93600  1.0000
  O   O15       1.0  0.11535  0.41860  0.56400  1.0000
  O   O16       1.0  0.61535  0.91860  0.56400  1.0000
  O   O17       1.0  0.22112  0.44242  0.08670  1.0000
  O   O18       1.0  0.72112  0.94242  0.08670  1.0000
  O   O19       1.0  0.77888  0.44242  0.41330  1.0000
  O   O20       1.0  0.27888  0.94242  0.41330  1.0000
  O   O21       1.0  0.77888  0.55758  0.91330  1.0000
  O   O22       1.0  0.27888  0.05758  0.91330  1.0000
  O   O23       1.0  0.22112  0.55758  0.58670  1.0000
  O   O24       1.0  0.72112  0.05758  0.58670  1.0000
