data_image0
_chemical_formula_structural       Fe4S8O24C16H8C8H8C8H8C8H8
_chemical_formula_sum              "Fe4 S8 O24 C40 H32"
_cell_length_a       17.893
_cell_length_b       12.163
_cell_length_c       13.371
_cell_angle_alpha    90
_cell_angle_beta     121.43
_cell_angle_gamma    90

_space_group_name_H-M_alt    "P 1"
_space_group_IT_number       1

loop_
  _space_group_symop_operation_xyz
  'x, y, z'

loop_
  _atom_site_type_symbol
  _atom_site_label
  _atom_site_symmetry_multiplicity
  _atom_site_fract_x
  _atom_site_fract_y
  _atom_site_fract_z
  _atom_site_occupancy
  Fe  Fe1       1.0  0.75000  0.75000  0.00000  1.0000
  Fe  Fe2       1.0  0.25000  0.25000  0.00000  1.0000
  Fe  Fe3       1.0  0.25000  0.75000  0.50000  1.0000
  Fe  Fe4       1.0  0.75000  0.25000  0.50000  1.0000
  S   S1        1.0  0.70556  0.95741  0.13420  1.0000
  S   S2        1.0  0.20556  0.45741  0.13420  1.0000
  S   S3        1.0  0.29444  0.95741  0.36580  1.0000
  S   S4        1.0  0.79444  0.45741  0.36580  1.0000
  S   S5        1.0  0.29444  0.04259  0.86580  1.0000
  S   S6        1.0  0.79444  0.54259  0.86580  1.0000
  S   S7        1.0  0.70556  0.04259  0.63420  1.0000
  S   S8        1.0  0.20556  0.54259  0.63420  1.0000
  O   O1        1.0  0.73242  0.96771  0.25708  1.0000
  O   O2        1.0  0.23242  0.46771  0.25708  1.0000
  O   O3        1.0  0.26758  0.96771  0.24292  1.0000
  O   O4        1.0  0.76758  0.46771  0.24292  1.0000
  O   O5        1.0  0.26758  0.03229  0.74292  1.0000
  O   O6        1.0  0.76758  0.53229  0.74292  1.0000
  O   O7        1.0  0.73242  0.03229  0.75708  1.0000
  O   O8        1.0  0.23242  0.53229  0.75708  1.0000
  O   O9        1.0  0.72032  0.05738  0.08693  1.0000
  O   O10       1.0  0.22032  0.55738  0.08693  1.0000
  O   O11       1.0  0.27968  0.05738  0.41307  1.0000
  O   O12       1.0  0.77968  0.55738  0.41307  1.0000
  O   O13       1.0  0.27968  0.94262  0.91307  1.0000
  O   O14       1.0  0.77968  0.44262  0.91307  1.0000
  O   O15       1.0  0.72032  0.94262  0.58693  1.0000
  O   O16       1.0  0.22032  0.44262  0.58693  1.0000
  O   O17       1.0  0.61519  0.91775  0.06389  1.0000
  O   O18       1.0  0.11519  0.41775  0.06389  1.0000
  O   O19       1.0  0.38481  0.91775  0.43611  1.0000
  O   O20       1.0  0.88481  0.41775  0.43611  1.0000
  O   O21       1.0  0.38481  0.08225  0.93611  1.0000
  O   O22       1.0  0.88481  0.58225  0.93611  1.0000
  O   O23       1.0  0.61519  0.08225  0.56389  1.0000
  O   O24       1.0  0.11519  0.58225  0.56389  1.0000
  C   C1        1.0  0.77440  0.85757  0.12990  1.0000
  C   C2        1.0  0.27440  0.35757  0.12990  1.0000
  C   C3        1.0  0.22560  0.85757  0.37010  1.0000
  C   C4        1.0  0.72560  0.35757  0.37010  1.0000
  C   C5        1.0  0.22560  0.14243  0.87010  1.0000
  C   C6        1.0  0.72560  0.64243  0.87010  1.0000
  C   C7        1.0  0.77440  0.14243  0.62990  1.0000
  C   C8        1.0  0.27440  0.64243  0.62990  1.0000
  C   C9        1.0  0.78578  0.74750  0.17280  1.0000
  C   C10       1.0  0.28578  0.24750  0.17280  1.0000
  C   C11       1.0  0.21422  0.74750  0.32720  1.0000
  C   C12       1.0  0.71422  0.24750  0.32720  1.0000
  C   C13       1.0  0.21422  0.25250  0.82720  1.0000
  C   C14       1.0  0.71422  0.75250  0.82720  1.0000
  C   C15       1.0  0.78578  0.25250  0.67280  1.0000
  C   C16       1.0  0.28578  0.75250  0.67280  1.0000
  H   H1        1.0  0.75370  0.71220  0.20530  1.0000
  H   H2        1.0  0.25370  0.21220  0.20530  1.0000
  H   H3        1.0  0.24630  0.71220  0.29470  1.0000
  H   H4        1.0  0.74630  0.21220  0.29470  1.0000
  H   H5        1.0  0.24630  0.28780  0.79470  1.0000
  H   H6        1.0  0.74630  0.78780  0.79470  1.0000
  H   H7        1.0  0.75370  0.28780  0.70530  1.0000
  H   H8        1.0  0.25370  0.78780  0.70530  1.0000
  C   C17       1.0  0.85242  0.69910  0.16020  1.0000
  C   C18       1.0  0.35242  0.19910  0.16020  1.0000
  C   C19       1.0  0.14758  0.69910  0.33980  1.0000
  C   C20       1.0  0.64758  0.19910  0.33980  1.0000
  C   C21       1.0  0.14758  0.30090  0.83980  1.0000
  C   C22       1.0  0.64758  0.80090  0.83980  1.0000
  C   C23       1.0  0.85242  0.30090  0.66020  1.0000
  C   C24       1.0  0.35242  0.80090  0.66020  1.0000
  H   H9        1.0  0.87350  0.62330  0.18100  1.0000
  H   H10       1.0  0.37350  0.12330  0.18100  1.0000
  H   H11       1.0  0.12650  0.62330  0.31900  1.0000
  H   H12       1.0  0.62650  0.12330  0.31900  1.0000
  H   H13       1.0  0.12650  0.37670  0.81900  1.0000
  H   H14       1.0  0.62650  0.87670  0.81900  1.0000
  H   H15       1.0  0.87350  0.37670  0.68100  1.0000
  H   H16       1.0  0.37350  0.87670  0.68100  1.0000
  C   C25       1.0  0.88229  0.77650  0.11130  1.0000
  C   C26       1.0  0.38229  0.27650  0.11130  1.0000
  C   C27       1.0  0.11771  0.77650  0.38870  1.0000
  C   C28       1.0  0.61771  0.27650  0.38870  1.0000
  C   C29       1.0  0.11771  0.22350  0.88870  1.0000
  C   C30       1.0  0.61771  0.72350  0.88870  1.0000
  C   C31       1.0  0.88229  0.22350  0.61130  1.0000
  C   C32       1.0  0.38229  0.72350  0.61130  1.0000
  H   H17       1.0  0.92770  0.76400  0.09250  1.0000
  H   H18       1.0  0.42770  0.26400  0.09250  1.0000
  H   H19       1.0  0.07230  0.76400  0.40750  1.0000
  H   H20       1.0  0.57230  0.26400  0.40750  1.0000
  H   H21       1.0  0.07230  0.23600  0.90750  1.0000
  H   H22       1.0  0.57230  0.73600  0.90750  1.0000
  H   H23       1.0  0.92770  0.23600  0.59250  1.0000
  H   H24       1.0  0.42770  0.73600  0.59250  1.0000
  C   C33       1.0  0.83474  0.87560  0.09210  1.0000
  C   C34       1.0  0.33474  0.37560  0.09210  1.0000
  C   C35       1.0  0.16526  0.87560  0.40790  1.0000
  C   C36       1.0  0.66526  0.37560  0.40790  1.0000
  C   C37       1.0  0.16526  0.12440  0.90790  1.0000
  C   C38       1.0  0.66526  0.62440  0.90790  1.0000
  C   C39       1.0  0.83474  0.12440  0.59210  1.0000
  C   C40       1.0  0.33474  0.62440  0.59210  1.0000
  H   H25       1.0  0.84210  0.94390  0.05920  1.0000
  H   H26       1.0  0.34210  0.44390  0.05920  1.0000
  H   H27       1.0  0.15790  0.94390  0.44080  1.0000
  H   H28       1.0  0.65790  0.44390  0.44080  1.0000
  H   H29       1.0  0.15790  0.05610  0.94080  1.0000
  H   H30       1.0  0.65790  0.55610  0.94080  1.0000
  H   H31       1.0  0.84210  0.05610  0.55920  1.0000
  H   H32       1.0  0.34210  0.55610  0.55920  1.0000
