data_image0
_chemical_formula_structural       In8O64N16C24H8C8H8C16H8C8H8C16H8C16H8C16H8C24H8C8H8C16H8C8H8C24H8C8H8C16H8C8H8C16H8C16H8C16H8C16H8C8H8C16H8C8H8C8
_chemical_formula_sum              "In8 O64 N16 C320 H176"
_cell_length_a       32.3271
_cell_length_b       28.2199
_cell_length_c       19.686
_cell_angle_alpha    90
_cell_angle_beta     90
_cell_angle_gamma    90

_space_group_name_H-M_alt    "P 1"
_space_group_IT_number       1

loop_
  _space_group_symop_operation_xyz
  'x, y, z'

loop_
  _atom_site_type_symbol
  _atom_site_label
  _atom_site_symmetry_multiplicity
  _atom_site_fract_x
  _atom_site_fract_y
  _atom_site_fract_z
  _atom_site_occupancy
  In  In1       1.0  0.45918  0.60968  0.15158  1.0000
  In  In2       1.0  0.04082  0.39032  0.15158  1.0000
  In  In3       1.0  0.45918  0.89032  0.34842  1.0000
  In  In4       1.0  0.04082  0.10968  0.34842  1.0000
  In  In5       1.0  0.54082  0.39032  0.84842  1.0000
  In  In6       1.0  0.95918  0.60968  0.84842  1.0000
  In  In7       1.0  0.54082  0.10968  0.65158  1.0000
  In  In8       1.0  0.95918  0.89032  0.65158  1.0000
  O   O1        1.0  0.56046  0.16926  0.57376  1.0000
  O   O2        1.0  0.93954  0.83074  0.57376  1.0000
  O   O3        1.0  0.56046  0.33074  0.92624  1.0000
  O   O4        1.0  0.93954  0.66926  0.92624  1.0000
  O   O5        1.0  0.43954  0.83074  0.42624  1.0000
  O   O6        1.0  0.06046  0.16926  0.42624  1.0000
  O   O7        1.0  0.43954  0.66926  0.07376  1.0000
  O   O8        1.0  0.06046  0.33074  0.07376  1.0000
  O   O9        1.0  0.53861  0.18769  0.67442  1.0000
  O   O10       1.0  0.96139  0.81231  0.67442  1.0000
  O   O11       1.0  0.53861  0.31231  0.82558  1.0000
  O   O12       1.0  0.96139  0.68769  0.82558  1.0000
  O   O13       1.0  0.46139  0.81231  0.32558  1.0000
  O   O14       1.0  0.03861  0.18769  0.32558  1.0000
  O   O15       1.0  0.46139  0.68769  0.17442  1.0000
  O   O16       1.0  0.03861  0.31231  0.17442  1.0000
  O   O17       1.0  0.47201  0.53532  0.20812  1.0000
  O   O18       1.0  0.02799  0.46468  0.20812  1.0000
  O   O19       1.0  0.47201  0.96468  0.29188  1.0000
  O   O20       1.0  0.02799  0.03532  0.29188  1.0000
  O   O21       1.0  0.52799  0.46468  0.79188  1.0000
  O   O22       1.0  0.97201  0.53532  0.79188  1.0000
  O   O23       1.0  0.52799  0.03532  0.70812  1.0000
  O   O24       1.0  0.97201  0.96468  0.70812  1.0000
  O   O25       1.0  0.49409  0.60208  0.24616  1.0000
  O   O26       1.0  0.00591  0.39792  0.24616  1.0000
  O   O27       1.0  0.49409  0.89792  0.25384  1.0000
  O   O28       1.0  0.00591  0.10208  0.25384  1.0000
  O   O29       1.0  0.50591  0.39792  0.75384  1.0000
  O   O30       1.0  0.99409  0.60208  0.75384  1.0000
  O   O31       1.0  0.50591  0.10208  0.74616  1.0000
  O   O32       1.0  0.99409  0.89792  0.74616  1.0000
  O   O33       1.0  0.48515  0.57237  0.06303  1.0000
  O   O34       1.0  0.01485  0.42763  0.06303  1.0000
  O   O35       1.0  0.48515  0.92763  0.43697  1.0000
  O   O36       1.0  0.01485  0.07237  0.43697  1.0000
  O   O37       1.0  0.51485  0.42763  0.93697  1.0000
  O   O38       1.0  0.98515  0.57237  0.93697  1.0000
  O   O39       1.0  0.51485  0.07237  0.56303  1.0000
  O   O40       1.0  0.98515  0.92763  0.56303  1.0000
  O   O41       1.0  0.52625  0.62614  0.10523  1.0000
  O   O42       1.0  0.97375  0.37386  0.10523  1.0000
  O   O43       1.0  0.52625  0.87386  0.39477  1.0000
  O   O44       1.0  0.97375  0.12614  0.39477  1.0000
  O   O45       1.0  0.47375  0.37386  0.89477  1.0000
  O   O46       1.0  0.02625  0.62614  0.89477  1.0000
  O   O47       1.0  0.47375  0.12614  0.60523  1.0000
  O   O48       1.0  0.02625  0.87386  0.60523  1.0000
  O   O49       1.0  0.89863  0.57903  0.88132  1.0000
  O   O50       1.0  0.60137  0.42097  0.88132  1.0000
  O   O51       1.0  0.89863  0.92097  0.61868  1.0000
  O   O52       1.0  0.60137  0.07903  0.61868  1.0000
  O   O53       1.0  0.10137  0.42097  0.11868  1.0000
  O   O54       1.0  0.39863  0.57903  0.11868  1.0000
  O   O55       1.0  0.10137  0.07903  0.38132  1.0000
  O   O56       1.0  0.39863  0.92097  0.38132  1.0000
  O   O57       1.0  0.90000  0.61255  0.78207  1.0000
  O   O58       1.0  0.60000  0.38745  0.78207  1.0000
  O   O59       1.0  0.90000  0.88745  0.71793  1.0000
  O   O60       1.0  0.60000  0.11255  0.71793  1.0000
  O   O61       1.0  0.10000  0.38745  0.21793  1.0000
  O   O62       1.0  0.40000  0.61255  0.21793  1.0000
  O   O63       1.0  0.10000  0.11255  0.28207  1.0000
  O   O64       1.0  0.40000  0.88745  0.28207  1.0000
  N   N1        1.0  0.60494  0.50681  0.65420  1.0000
  N   N2        1.0  0.89506  0.49319  0.65420  1.0000
  N   N3        1.0  0.60494  0.99319  0.84580  1.0000
  N   N4        1.0  0.89506  0.00681  0.84580  1.0000
  N   N5        1.0  0.39506  0.49319  0.34580  1.0000
  N   N6        1.0  0.10494  0.50681  0.34580  1.0000
  N   N7        1.0  0.39506  0.00681  0.15420  1.0000
  N   N8        1.0  0.10494  0.99319  0.15420  1.0000
  N   N9        1.0  0.63688  0.49588  0.67826  1.0000
  N   N10       1.0  0.86312  0.50412  0.67826  1.0000
  N   N11       1.0  0.63688  0.00412  0.82174  1.0000
  N   N12       1.0  0.86312  0.99588  0.82174  1.0000
  N   N13       1.0  0.36312  0.50412  0.32174  1.0000
  N   N14       1.0  0.13688  0.49588  0.32174  1.0000
  N   N15       1.0  0.36312  0.99588  0.17826  1.0000
  N   N16       1.0  0.13688  0.00412  0.17826  1.0000
  C   C1        1.0  0.55160  0.20007  0.61766  1.0000
  C   C2        1.0  0.94840  0.79993  0.61766  1.0000
  C   C3        1.0  0.55160  0.29993  0.88234  1.0000
  C   C4        1.0  0.94840  0.70007  0.88234  1.0000
  C   C5        1.0  0.44840  0.79993  0.38234  1.0000
  C   C6        1.0  0.05160  0.20007  0.38234  1.0000
  C   C7        1.0  0.44840  0.70007  0.11766  1.0000
  C   C8        1.0  0.05160  0.29993  0.11766  1.0000
  C   C9        1.0  0.55722  0.25099  0.60156  1.0000
  C   C10       1.0  0.94278  0.74901  0.60156  1.0000
  C   C11       1.0  0.55722  0.24901  0.89844  1.0000
  C   C12       1.0  0.94278  0.75099  0.89844  1.0000
  C   C13       1.0  0.44278  0.74901  0.39844  1.0000
  C   C14       1.0  0.05722  0.25099  0.39844  1.0000
  C   C15       1.0  0.44278  0.75099  0.10156  1.0000
  C   C16       1.0  0.05722  0.24901  0.10156  1.0000
  C   C17       1.0  0.56784  0.26642  0.53684  1.0000
  C   C18       1.0  0.93216  0.73358  0.53684  1.0000
  C   C19       1.0  0.56784  0.23358  0.96316  1.0000
  C   C20       1.0  0.93216  0.76642  0.96316  1.0000
  C   C21       1.0  0.43216  0.73358  0.46316  1.0000
  C   C22       1.0  0.06784  0.26642  0.46316  1.0000
  C   C23       1.0  0.43216  0.76642  0.03684  1.0000
  C   C24       1.0  0.06784  0.23358  0.03684  1.0000
  H   H1        1.0  0.57186  0.24447  0.50222  1.0000
  H   H2        1.0  0.92814  0.75553  0.50222  1.0000
  H   H3        1.0  0.57186  0.25553  0.99778  1.0000
  H   H4        1.0  0.92814  0.74447  0.99778  1.0000
  H   H5        1.0  0.42814  0.75553  0.49778  1.0000
  H   H6        1.0  0.07186  0.24447  0.49778  1.0000
  H   H7        1.0  0.42814  0.74447  0.00222  1.0000
  H   H8        1.0  0.07186  0.25553  0.00222  1.0000
  C   C25       1.0  0.57240  0.31382  0.52381  1.0000
  C   C26       1.0  0.92760  0.68618  0.52381  1.0000
  C   C27       1.0  0.57240  0.18618  0.97619  1.0000
  C   C28       1.0  0.92760  0.81382  0.97619  1.0000
  C   C29       1.0  0.42760  0.68618  0.47619  1.0000
  C   C30       1.0  0.07240  0.31382  0.47619  1.0000
  C   C31       1.0  0.42760  0.81382  0.02381  1.0000
  C   C32       1.0  0.07240  0.18618  0.02381  1.0000
  H   H9        1.0  0.57893  0.32356  0.47997  1.0000
  H   H10       1.0  0.92107  0.67644  0.47997  1.0000
  H   H11       1.0  0.57893  0.17644  0.02003  1.0000
  H   H12       1.0  0.92107  0.82356  0.02003  1.0000
  H   H13       1.0  0.42107  0.67644  0.52003  1.0000
  H   H14       1.0  0.07893  0.32356  0.52003  1.0000
  H   H15       1.0  0.42107  0.82356  0.97997  1.0000
  H   H16       1.0  0.07893  0.17644  0.97997  1.0000
  C   C33       1.0  0.56756  0.34756  0.57411  1.0000
  C   C34       1.0  0.93244  0.65244  0.57411  1.0000
  C   C35       1.0  0.56756  0.15244  0.92589  1.0000
  C   C36       1.0  0.93244  0.84756  0.92589  1.0000
  C   C37       1.0  0.43244  0.65244  0.42589  1.0000
  C   C38       1.0  0.06756  0.34756  0.42589  1.0000
  C   C39       1.0  0.43244  0.84756  0.07411  1.0000
  C   C40       1.0  0.06756  0.15244  0.07411  1.0000
  C   C41       1.0  0.55782  0.33134  0.63816  1.0000
  C   C42       1.0  0.94218  0.66866  0.63816  1.0000
  C   C43       1.0  0.55782  0.16866  0.86184  1.0000
  C   C44       1.0  0.94218  0.83134  0.86184  1.0000
  C   C45       1.0  0.44218  0.66866  0.36184  1.0000
  C   C46       1.0  0.05782  0.33134  0.36184  1.0000
  C   C47       1.0  0.44218  0.83134  0.13816  1.0000
  C   C48       1.0  0.05782  0.16866  0.13816  1.0000
  H   H17       1.0  0.55460  0.35300  0.67337  1.0000
  H   H18       1.0  0.94540  0.64700  0.67337  1.0000
  H   H19       1.0  0.55460  0.14700  0.82663  1.0000
  H   H20       1.0  0.94540  0.85300  0.82663  1.0000
  H   H21       1.0  0.44540  0.64700  0.32663  1.0000
  H   H22       1.0  0.05460  0.35300  0.32663  1.0000
  H   H23       1.0  0.44540  0.85300  0.17337  1.0000
  H   H24       1.0  0.05460  0.14700  0.17337  1.0000
  C   C49       1.0  0.55280  0.28429  0.65102  1.0000
  C   C50       1.0  0.94720  0.71571  0.65102  1.0000
  C   C51       1.0  0.55280  0.21571  0.84898  1.0000
  C   C52       1.0  0.94720  0.78429  0.84898  1.0000
  C   C53       1.0  0.44720  0.71571  0.34898  1.0000
  C   C54       1.0  0.05280  0.28429  0.34898  1.0000
  C   C55       1.0  0.44720  0.78429  0.15102  1.0000
  C   C56       1.0  0.05280  0.21571  0.15102  1.0000
  H   H25       1.0  0.54616  0.27463  0.69485  1.0000
  H   H26       1.0  0.95384  0.72537  0.69485  1.0000
  H   H27       1.0  0.54616  0.22537  0.80515  1.0000
  H   H28       1.0  0.95384  0.77463  0.80515  1.0000
  H   H29       1.0  0.45384  0.72537  0.30515  1.0000
  H   H30       1.0  0.04616  0.27463  0.30515  1.0000
  H   H31       1.0  0.45384  0.77463  0.19485  1.0000
  H   H32       1.0  0.04616  0.22537  0.19485  1.0000
  C   C57       1.0  0.57192  0.39861  0.56122  1.0000
  C   C58       1.0  0.92808  0.60139  0.56122  1.0000
  C   C59       1.0  0.57192  0.10139  0.93878  1.0000
  C   C60       1.0  0.92808  0.89861  0.93878  1.0000
  C   C61       1.0  0.42808  0.60139  0.43878  1.0000
  C   C62       1.0  0.07192  0.39861  0.43878  1.0000
  C   C63       1.0  0.42808  0.89861  0.06122  1.0000
  C   C64       1.0  0.07192  0.10139  0.06122  1.0000
  C   C65       1.0  0.55848  0.41986  0.50131  1.0000
  C   C66       1.0  0.94152  0.58014  0.50131  1.0000
  C   C67       1.0  0.55848  0.08014  0.99869  1.0000
  C   C68       1.0  0.94152  0.91986  0.99869  1.0000
  C   C69       1.0  0.44152  0.58014  0.49869  1.0000
  C   C70       1.0  0.05848  0.41986  0.49869  1.0000
  C   C71       1.0  0.44152  0.91986  0.00131  1.0000
  C   C72       1.0  0.05848  0.08014  0.00131  1.0000
  H   H33       1.0  0.54846  0.40053  0.46676  1.0000
  H   H34       1.0  0.95154  0.59947  0.46676  1.0000
  H   H35       1.0  0.54846  0.09947  0.03324  1.0000
  H   H36       1.0  0.95154  0.90053  0.03324  1.0000
  H   H37       1.0  0.45154  0.59947  0.53324  1.0000
  H   H38       1.0  0.04846  0.40053  0.53324  1.0000
  H   H39       1.0  0.45154  0.90053  0.96676  1.0000
  H   H40       1.0  0.04846  0.09947  0.96676  1.0000
  C   C73       1.0  0.55930  0.46850  0.49059  1.0000
  C   C74       1.0  0.94070  0.53150  0.49059  1.0000
  C   C75       1.0  0.55930  0.03150  0.00941  1.0000
  C   C76       1.0  0.94070  0.96850  0.00941  1.0000
  C   C77       1.0  0.44070  0.53150  0.50941  1.0000
  C   C78       1.0  0.05930  0.46850  0.50941  1.0000
  C   C79       1.0  0.44070  0.96850  0.99059  1.0000
  C   C80       1.0  0.05930  0.03150  0.99059  1.0000
  C   C81       1.0  0.57507  0.49602  0.54332  1.0000
  C   C82       1.0  0.92493  0.50398  0.54332  1.0000
  C   C83       1.0  0.57507  0.00398  0.95668  1.0000
  C   C84       1.0  0.92493  0.99602  0.95668  1.0000
  C   C85       1.0  0.42493  0.50398  0.45668  1.0000
  C   C86       1.0  0.07507  0.49602  0.45668  1.0000
  C   C87       1.0  0.42493  0.99602  0.04332  1.0000
  C   C88       1.0  0.07507  0.00398  0.04332  1.0000
  H   H41       1.0  0.57506  0.52887  0.53945  1.0000
  H   H42       1.0  0.92494  0.47113  0.53945  1.0000
  H   H43       1.0  0.57506  0.97113  0.96055  1.0000
  H   H44       1.0  0.92494  0.02887  0.96055  1.0000
  H   H45       1.0  0.42494  0.47113  0.46055  1.0000
  H   H46       1.0  0.07506  0.52887  0.46055  1.0000
  H   H47       1.0  0.42494  0.02887  0.03945  1.0000
  H   H48       1.0  0.07506  0.97113  0.03945  1.0000
  C   C89       1.0  0.59054  0.47534  0.60059  1.0000
  C   C90       1.0  0.90946  0.52466  0.60059  1.0000
  C   C91       1.0  0.59054  0.02466  0.89941  1.0000
  C   C92       1.0  0.90946  0.97534  0.89941  1.0000
  C   C93       1.0  0.40946  0.52466  0.39941  1.0000
  C   C94       1.0  0.09054  0.47534  0.39941  1.0000
  C   C95       1.0  0.40946  0.97534  0.10059  1.0000
  C   C96       1.0  0.09054  0.02466  0.10059  1.0000
  C   C97       1.0  0.58945  0.42735  0.61027  1.0000
  C   C98       1.0  0.91055  0.57265  0.61027  1.0000
  C   C99       1.0  0.58945  0.07265  0.88973  1.0000
  C   C100      1.0  0.91055  0.92735  0.88973  1.0000
  C   C101      1.0  0.41055  0.57265  0.38973  1.0000
  C   C102      1.0  0.08945  0.42735  0.38973  1.0000
  C   C103      1.0  0.41055  0.92735  0.11027  1.0000
  C   C104      1.0  0.08945  0.07265  0.11027  1.0000
  H   H49       1.0  0.60043  0.41414  0.64962  1.0000
  H   H50       1.0  0.89957  0.58586  0.64962  1.0000
  H   H51       1.0  0.60043  0.08586  0.85038  1.0000
  H   H52       1.0  0.89957  0.91414  0.85038  1.0000
  H   H53       1.0  0.39957  0.58586  0.35038  1.0000
  H   H54       1.0  0.10043  0.41414  0.35038  1.0000
  H   H55       1.0  0.39957  0.91414  0.14962  1.0000
  H   H56       1.0  0.10043  0.08586  0.14962  1.0000
  C   C105      1.0  0.49077  0.55763  0.25202  1.0000
  C   C106      1.0  0.00923  0.44237  0.25202  1.0000
  C   C107      1.0  0.49077  0.94237  0.24798  1.0000
  C   C108      1.0  0.00923  0.05763  0.24798  1.0000
  C   C109      1.0  0.50923  0.44237  0.74798  1.0000
  C   C110      1.0  0.99077  0.55763  0.74798  1.0000
  C   C111      1.0  0.50923  0.05763  0.75202  1.0000
  C   C112      1.0  0.99077  0.94237  0.75202  1.0000
  C   C113      1.0  0.50900  0.53406  0.31254  1.0000
  C   C114      1.0  0.99100  0.46594  0.31254  1.0000
  C   C115      1.0  0.50900  0.96594  0.18746  1.0000
  C   C116      1.0  0.99100  0.03406  0.18746  1.0000
  C   C117      1.0  0.49100  0.46594  0.68746  1.0000
  C   C118      1.0  0.00900  0.53406  0.68746  1.0000
  C   C119      1.0  0.49100  0.03406  0.81254  1.0000
  C   C120      1.0  0.00900  0.96594  0.81254  1.0000
  C   C121      1.0  0.50762  0.48695  0.32150  1.0000
  C   C122      1.0  0.99238  0.51305  0.32150  1.0000
  C   C123      1.0  0.50762  0.01305  0.17850  1.0000
  C   C124      1.0  0.99238  0.98695  0.17850  1.0000
  C   C125      1.0  0.49238  0.51305  0.67850  1.0000
  C   C126      1.0  0.00762  0.48695  0.67850  1.0000
  C   C127      1.0  0.49238  0.98695  0.82150  1.0000
  C   C128      1.0  0.00762  0.01305  0.82150  1.0000
  H   H57       1.0  0.49513  0.46832  0.28831  1.0000
  H   H58       1.0  0.00487  0.53168  0.28831  1.0000
  H   H59       1.0  0.49513  0.03168  0.21169  1.0000
  H   H60       1.0  0.00487  0.96832  0.21169  1.0000
  H   H61       1.0  0.50487  0.53168  0.71169  1.0000
  H   H62       1.0  0.99513  0.46832  0.71169  1.0000
  H   H63       1.0  0.50487  0.96832  0.78831  1.0000
  H   H64       1.0  0.99513  0.03168  0.78831  1.0000
  C   C129      1.0  0.52418  0.46504  0.37840  1.0000
  C   C130      1.0  0.97582  0.53496  0.37840  1.0000
  C   C131      1.0  0.52418  0.03496  0.12160  1.0000
  C   C132      1.0  0.97582  0.96504  0.12160  1.0000
  C   C133      1.0  0.47582  0.53496  0.62160  1.0000
  C   C134      1.0  0.02418  0.46504  0.62160  1.0000
  C   C135      1.0  0.47582  0.96504  0.87840  1.0000
  C   C136      1.0  0.02418  0.03496  0.87840  1.0000
  H   H65       1.0  0.52263  0.43226  0.38253  1.0000
  H   H66       1.0  0.97737  0.56774  0.38253  1.0000
  H   H67       1.0  0.52263  0.06774  0.11747  1.0000
  H   H68       1.0  0.97737  0.93226  0.11747  1.0000
  H   H69       1.0  0.47737  0.56774  0.61747  1.0000
  H   H70       1.0  0.02263  0.43226  0.61747  1.0000
  H   H71       1.0  0.47737  0.93226  0.88253  1.0000
  H   H72       1.0  0.02263  0.06774  0.88253  1.0000
  C   C137      1.0  0.54256  0.49072  0.42801  1.0000
  C   C138      1.0  0.95744  0.50928  0.42801  1.0000
  C   C139      1.0  0.54256  0.00928  0.07199  1.0000
  C   C140      1.0  0.95744  0.99072  0.07199  1.0000
  C   C141      1.0  0.45744  0.50928  0.57199  1.0000
  C   C142      1.0  0.04256  0.49072  0.57199  1.0000
  C   C143      1.0  0.45744  0.99072  0.92801  1.0000
  C   C144      1.0  0.04256  0.00928  0.92801  1.0000
  C   C145      1.0  0.54295  0.53807  0.41930  1.0000
  C   C146      1.0  0.95705  0.46193  0.41930  1.0000
  C   C147      1.0  0.54295  0.96193  0.08070  1.0000
  C   C148      1.0  0.95705  0.03807  0.08070  1.0000
  C   C149      1.0  0.45705  0.46193  0.58070  1.0000
  C   C150      1.0  0.04295  0.53807  0.58070  1.0000
  C   C151      1.0  0.45705  0.03807  0.91930  1.0000
  C   C152      1.0  0.04295  0.96193  0.91930  1.0000
  H   H73       1.0  0.55464  0.55695  0.45294  1.0000
  H   H74       1.0  0.94536  0.44305  0.45294  1.0000
  H   H75       1.0  0.55464  0.94305  0.04706  1.0000
  H   H76       1.0  0.94536  0.05695  0.04706  1.0000
  H   H77       1.0  0.44536  0.44305  0.54706  1.0000
  H   H78       1.0  0.05464  0.55695  0.54706  1.0000
  H   H79       1.0  0.44536  0.05695  0.95294  1.0000
  H   H80       1.0  0.05464  0.94305  0.95294  1.0000
  C   C153      1.0  0.52673  0.55951  0.36259  1.0000
  C   C154      1.0  0.97327  0.44049  0.36259  1.0000
  C   C155      1.0  0.52673  0.94049  0.13741  1.0000
  C   C156      1.0  0.97327  0.05951  0.13741  1.0000
  C   C157      1.0  0.47327  0.44049  0.63741  1.0000
  C   C158      1.0  0.02673  0.55951  0.63741  1.0000
  C   C159      1.0  0.47327  0.05951  0.86259  1.0000
  C   C160      1.0  0.02673  0.94049  0.86259  1.0000
  H   H81       1.0  0.52801  0.59232  0.35866  1.0000
  H   H82       1.0  0.97199  0.40768  0.35866  1.0000
  H   H83       1.0  0.52801  0.90768  0.14134  1.0000
  H   H84       1.0  0.97199  0.09232  0.14134  1.0000
  H   H85       1.0  0.47199  0.40768  0.64134  1.0000
  H   H86       1.0  0.02801  0.59232  0.64134  1.0000
  H   H87       1.0  0.47199  0.09232  0.85866  1.0000
  H   H88       1.0  0.02801  0.90768  0.85866  1.0000
  C   C161      1.0  0.51906  0.59512  0.06178  1.0000
  C   C162      1.0  0.98094  0.40488  0.06178  1.0000
  C   C163      1.0  0.51906  0.90488  0.43822  1.0000
  C   C164      1.0  0.98094  0.09512  0.43822  1.0000
  C   C165      1.0  0.48094  0.40488  0.93822  1.0000
  C   C166      1.0  0.01906  0.59512  0.93822  1.0000
  C   C167      1.0  0.48094  0.09512  0.56178  1.0000
  C   C168      1.0  0.01906  0.90488  0.56178  1.0000
  C   C169      1.0  0.54925  0.58496  0.00654  1.0000
  C   C170      1.0  0.95075  0.41504  0.00654  1.0000
  C   C171      1.0  0.54925  0.91504  0.49346  1.0000
  C   C172      1.0  0.95075  0.08496  0.49346  1.0000
  C   C173      1.0  0.45075  0.41504  0.99346  1.0000
  C   C174      1.0  0.04925  0.58496  0.99346  1.0000
  C   C175      1.0  0.45075  0.08496  0.50654  1.0000
  C   C176      1.0  0.04925  0.91504  0.50654  1.0000
  C   C177      1.0  0.54366  0.54747  0.96269  1.0000
  C   C178      1.0  0.95634  0.45253  0.96269  1.0000
  C   C179      1.0  0.54366  0.95253  0.53731  1.0000
  C   C180      1.0  0.95634  0.04747  0.53731  1.0000
  C   C181      1.0  0.45634  0.45253  0.03731  1.0000
  C   C182      1.0  0.04366  0.54747  0.03731  1.0000
  C   C183      1.0  0.45634  0.04747  0.46269  1.0000
  C   C184      1.0  0.04366  0.95253  0.46269  1.0000
  H   H89       1.0  0.52056  0.52817  0.96788  1.0000
  H   H90       1.0  0.97944  0.47183  0.96788  1.0000
  H   H91       1.0  0.52056  0.97183  0.53212  1.0000
  H   H92       1.0  0.97944  0.02817  0.53212  1.0000
  H   H93       1.0  0.47944  0.47183  0.03212  1.0000
  H   H94       1.0  0.02056  0.52817  0.03212  1.0000
  H   H95       1.0  0.47944  0.02817  0.46788  1.0000
  H   H96       1.0  0.02056  0.97183  0.46788  1.0000
  C   C185      1.0  0.57090  0.53794  0.91221  1.0000
  C   C186      1.0  0.92910  0.46206  0.91221  1.0000
  C   C187      1.0  0.57090  0.96206  0.58779  1.0000
  C   C188      1.0  0.92910  0.03794  0.58779  1.0000
  C   C189      1.0  0.42910  0.46206  0.08779  1.0000
  C   C190      1.0  0.07090  0.53794  0.08779  1.0000
  C   C191      1.0  0.42910  0.03794  0.41221  1.0000
  C   C192      1.0  0.07090  0.96206  0.41221  1.0000
  H   H97       1.0  0.56625  0.51233  0.88348  1.0000
  H   H98       1.0  0.93375  0.48767  0.88348  1.0000
  H   H99       1.0  0.56625  0.98767  0.61652  1.0000
  H   H100      1.0  0.93375  0.01233  0.61652  1.0000
  H   H101      1.0  0.43375  0.48767  0.11652  1.0000
  H   H102      1.0  0.06625  0.51233  0.11652  1.0000
  H   H103      1.0  0.43375  0.01233  0.38348  1.0000
  H   H104      1.0  0.06625  0.98767  0.38348  1.0000
  C   C193      1.0  0.60560  0.56599  0.90296  1.0000
  C   C194      1.0  0.89440  0.43401  0.90296  1.0000
  C   C195      1.0  0.60560  0.93401  0.59704  1.0000
  C   C196      1.0  0.89440  0.06599  0.59704  1.0000
  C   C197      1.0  0.39440  0.43401  0.09704  1.0000
  C   C198      1.0  0.10560  0.56599  0.09704  1.0000
  C   C199      1.0  0.39440  0.06599  0.40296  1.0000
  C   C200      1.0  0.10560  0.93401  0.40296  1.0000
  C   C201      1.0  0.61149  0.60390  0.94594  1.0000
  C   C202      1.0  0.88851  0.39610  0.94594  1.0000
  C   C203      1.0  0.61149  0.89610  0.55406  1.0000
  C   C204      1.0  0.88851  0.10390  0.55406  1.0000
  C   C205      1.0  0.38851  0.39610  0.05406  1.0000
  C   C206      1.0  0.11149  0.60390  0.05406  1.0000
  C   C207      1.0  0.38851  0.10390  0.44594  1.0000
  C   C208      1.0  0.11149  0.89610  0.44594  1.0000
  H   H105      1.0  0.63435  0.62347  0.94001  1.0000
  H   H106      1.0  0.86565  0.37653  0.94001  1.0000
  H   H107      1.0  0.63435  0.87653  0.55999  1.0000
  H   H108      1.0  0.86565  0.12347  0.55999  1.0000
  H   H109      1.0  0.36565  0.37653  0.05999  1.0000
  H   H110      1.0  0.13435  0.62347  0.05999  1.0000
  H   H111      1.0  0.36565  0.12347  0.44001  1.0000
  H   H112      1.0  0.13435  0.87653  0.44001  1.0000
  C   C209      1.0  0.58407  0.61312  0.99738  1.0000
  C   C210      1.0  0.91593  0.38688  0.99738  1.0000
  C   C211      1.0  0.58407  0.88688  0.50262  1.0000
  C   C212      1.0  0.91593  0.11312  0.50262  1.0000
  C   C213      1.0  0.41593  0.38688  0.00262  1.0000
  C   C214      1.0  0.08407  0.61312  0.00262  1.0000
  C   C215      1.0  0.41593  0.11312  0.49738  1.0000
  C   C216      1.0  0.08407  0.88688  0.49738  1.0000
  H   H113      1.0  0.58882  0.63851  0.02647  1.0000
  H   H114      1.0  0.91118  0.36149  0.02647  1.0000
  H   H115      1.0  0.58882  0.86149  0.47353  1.0000
  H   H116      1.0  0.91118  0.13851  0.47353  1.0000
  H   H117      1.0  0.41118  0.36149  0.97353  1.0000
  H   H118      1.0  0.08882  0.63851  0.97353  1.0000
  H   H119      1.0  0.41118  0.13851  0.52647  1.0000
  H   H120      1.0  0.08882  0.86149  0.52647  1.0000
  C   C217      1.0  0.64904  0.52327  0.73687  1.0000
  C   C218      1.0  0.85096  0.47673  0.73687  1.0000
  C   C219      1.0  0.64904  0.97673  0.76313  1.0000
  C   C220      1.0  0.85096  0.02327  0.76313  1.0000
  C   C221      1.0  0.35096  0.47673  0.26313  1.0000
  C   C222      1.0  0.14904  0.52327  0.26313  1.0000
  C   C223      1.0  0.35096  0.02327  0.23687  1.0000
  C   C224      1.0  0.14904  0.97673  0.23687  1.0000
  C   C225      1.0  0.62130  0.53423  0.78786  1.0000
  C   C226      1.0  0.87870  0.46577  0.78786  1.0000
  C   C227      1.0  0.62130  0.96577  0.71214  1.0000
  C   C228      1.0  0.87870  0.03423  0.71214  1.0000
  C   C229      1.0  0.37870  0.46577  0.21214  1.0000
  C   C230      1.0  0.12130  0.53423  0.21214  1.0000
  C   C231      1.0  0.37870  0.03423  0.28786  1.0000
  C   C232      1.0  0.12130  0.96577  0.28786  1.0000
  H   H121      1.0  0.59340  0.52707  0.78264  1.0000
  H   H122      1.0  0.90660  0.47293  0.78264  1.0000
  H   H123      1.0  0.59340  0.97293  0.71736  1.0000
  H   H124      1.0  0.90660  0.02707  0.71736  1.0000
  H   H125      1.0  0.40660  0.47293  0.21736  1.0000
  H   H126      1.0  0.09340  0.52707  0.21736  1.0000
  H   H127      1.0  0.40660  0.02707  0.28264  1.0000
  H   H128      1.0  0.09340  0.97293  0.28264  1.0000
  C   C233      1.0  0.63503  0.55584  0.84656  1.0000
  C   C234      1.0  0.86497  0.44416  0.84656  1.0000
  C   C235      1.0  0.63503  0.94416  0.65344  1.0000
  C   C236      1.0  0.86497  0.05584  0.65344  1.0000
  C   C237      1.0  0.36497  0.44416  0.15344  1.0000
  C   C238      1.0  0.13503  0.55584  0.15344  1.0000
  C   C239      1.0  0.36497  0.05584  0.34656  1.0000
  C   C240      1.0  0.13503  0.94416  0.34656  1.0000
  C   C241      1.0  0.67687  0.56693  0.85182  1.0000
  C   C242      1.0  0.82313  0.43307  0.85182  1.0000
  C   C243      1.0  0.67687  0.93307  0.64818  1.0000
  C   C244      1.0  0.82313  0.06693  0.64818  1.0000
  C   C245      1.0  0.32313  0.43307  0.14818  1.0000
  C   C246      1.0  0.17687  0.56693  0.14818  1.0000
  C   C247      1.0  0.32313  0.06693  0.35182  1.0000
  C   C248      1.0  0.17687  0.93307  0.35182  1.0000
  H   H129      1.0  0.68631  0.58182  0.89101  1.0000
  H   H130      1.0  0.81369  0.41818  0.89101  1.0000
  H   H131      1.0  0.68631  0.91818  0.60899  1.0000
  H   H132      1.0  0.81369  0.08182  0.60899  1.0000
  H   H133      1.0  0.31369  0.41818  0.10899  1.0000
  H   H134      1.0  0.18631  0.58182  0.10899  1.0000
  H   H135      1.0  0.31369  0.08182  0.39101  1.0000
  H   H136      1.0  0.18631  0.91818  0.39101  1.0000
  C   C249      1.0  0.70486  0.55662  0.80098  1.0000
  C   C250      1.0  0.79514  0.44338  0.80098  1.0000
  C   C251      1.0  0.70486  0.94338  0.69902  1.0000
  C   C252      1.0  0.79514  0.05662  0.69902  1.0000
  C   C253      1.0  0.29514  0.44338  0.19902  1.0000
  C   C254      1.0  0.20486  0.55662  0.19902  1.0000
  C   C255      1.0  0.29514  0.05662  0.30098  1.0000
  C   C256      1.0  0.20486  0.94338  0.30098  1.0000
  C   C257      1.0  0.69085  0.53427  0.74308  1.0000
  C   C258      1.0  0.80915  0.46573  0.74308  1.0000
  C   C259      1.0  0.69085  0.96573  0.75692  1.0000
  C   C260      1.0  0.80915  0.03427  0.75692  1.0000
  C   C261      1.0  0.30915  0.46573  0.25692  1.0000
  C   C262      1.0  0.19085  0.53427  0.25692  1.0000
  C   C263      1.0  0.30915  0.03427  0.24308  1.0000
  C   C264      1.0  0.19085  0.96573  0.24308  1.0000
  H   H137      1.0  0.70921  0.52660  0.70841  1.0000
  H   H138      1.0  0.79079  0.47340  0.70841  1.0000
  H   H139      1.0  0.70921  0.97340  0.79159  1.0000
  H   H140      1.0  0.79079  0.02660  0.79159  1.0000
  H   H141      1.0  0.29079  0.47340  0.29159  1.0000
  H   H142      1.0  0.20921  0.52660  0.29159  1.0000
  H   H143      1.0  0.29079  0.02660  0.20841  1.0000
  H   H144      1.0  0.20921  0.97340  0.20841  1.0000
  C   C265      1.0  0.74980  0.56728  0.80869  1.0000
  C   C266      1.0  0.75020  0.43272  0.80869  1.0000
  C   C267      1.0  0.74980  0.93272  0.69131  1.0000
  C   C268      1.0  0.75020  0.06728  0.69131  1.0000
  C   C269      1.0  0.25020  0.43272  0.19131  1.0000
  C   C270      1.0  0.24980  0.56728  0.19131  1.0000
  C   C271      1.0  0.25020  0.06728  0.30869  1.0000
  C   C272      1.0  0.24980  0.93272  0.30869  1.0000
  C   C273      1.0  0.77292  0.58508  0.75425  1.0000
  C   C274      1.0  0.72708  0.41492  0.75425  1.0000
  C   C275      1.0  0.77292  0.91492  0.74575  1.0000
  C   C276      1.0  0.72708  0.08508  0.74575  1.0000
  C   C277      1.0  0.22708  0.41492  0.24575  1.0000
  C   C278      1.0  0.27292  0.58508  0.24575  1.0000
  C   C279      1.0  0.22708  0.08508  0.25425  1.0000
  C   C280      1.0  0.27292  0.91492  0.25425  1.0000
  H   H145      1.0  0.75999  0.59152  0.71307  1.0000
  H   H146      1.0  0.74001  0.40848  0.71307  1.0000
  H   H147      1.0  0.75999  0.90848  0.78693  1.0000
  H   H148      1.0  0.74001  0.09152  0.78693  1.0000
  H   H149      1.0  0.24001  0.40848  0.28693  1.0000
  H   H150      1.0  0.25999  0.59152  0.28693  1.0000
  H   H151      1.0  0.24001  0.09152  0.21307  1.0000
  H   H152      1.0  0.25999  0.90848  0.21307  1.0000
  C   C281      1.0  0.81489  0.59314  0.76137  1.0000
  C   C282      1.0  0.68511  0.40686  0.76137  1.0000
  C   C283      1.0  0.81489  0.90686  0.73863  1.0000
  C   C284      1.0  0.68511  0.09314  0.73863  1.0000
  C   C285      1.0  0.18511  0.40686  0.23863  1.0000
  C   C286      1.0  0.31489  0.59314  0.23863  1.0000
  C   C287      1.0  0.18511  0.09314  0.26137  1.0000
  C   C288      1.0  0.31489  0.90686  0.26137  1.0000
  H   H153      1.0  0.82978  0.60546  0.72501  1.0000
  H   H154      1.0  0.67022  0.39454  0.72501  1.0000
  H   H155      1.0  0.82978  0.89454  0.77499  1.0000
  H   H156      1.0  0.67022  0.10546  0.77499  1.0000
  H   H157      1.0  0.17022  0.39454  0.27499  1.0000
  H   H158      1.0  0.32978  0.60546  0.27499  1.0000
  H   H159      1.0  0.17022  0.10546  0.22501  1.0000
  H   H160      1.0  0.32978  0.89454  0.22501  1.0000
  C   C289      1.0  0.83512  0.58321  0.82162  1.0000
  C   C290      1.0  0.66488  0.41679  0.82162  1.0000
  C   C291      1.0  0.83512  0.91679  0.67838  1.0000
  C   C292      1.0  0.66488  0.08321  0.67838  1.0000
  C   C293      1.0  0.16488  0.41679  0.17838  1.0000
  C   C294      1.0  0.33512  0.58321  0.17838  1.0000
  C   C295      1.0  0.16488  0.08321  0.32162  1.0000
  C   C296      1.0  0.33512  0.91679  0.32162  1.0000
  C   C297      1.0  0.81172  0.56603  0.87499  1.0000
  C   C298      1.0  0.68828  0.43397  0.87499  1.0000
  C   C299      1.0  0.81172  0.93397  0.62501  1.0000
  C   C300      1.0  0.68828  0.06603  0.62501  1.0000
  C   C301      1.0  0.18828  0.43397  0.12501  1.0000
  C   C302      1.0  0.31172  0.56603  0.12501  1.0000
  C   C303      1.0  0.18828  0.06603  0.37499  1.0000
  C   C304      1.0  0.31172  0.93397  0.37499  1.0000
  H   H161      1.0  0.82464  0.55934  0.91609  1.0000
  H   H162      1.0  0.67536  0.44066  0.91609  1.0000
  H   H163      1.0  0.82464  0.94066  0.58391  1.0000
  H   H164      1.0  0.67536  0.05934  0.58391  1.0000
  H   H165      1.0  0.17536  0.44066  0.08391  1.0000
  H   H166      1.0  0.32464  0.55934  0.08391  1.0000
  H   H167      1.0  0.17536  0.05934  0.41609  1.0000
  H   H168      1.0  0.32464  0.94066  0.41609  1.0000
  C   C305      1.0  0.77014  0.55862  0.86898  1.0000
  C   C306      1.0  0.72986  0.44138  0.86898  1.0000
  C   C307      1.0  0.77014  0.94138  0.63102  1.0000
  C   C308      1.0  0.72986  0.05862  0.63102  1.0000
  C   C309      1.0  0.22986  0.44138  0.13102  1.0000
  C   C310      1.0  0.27014  0.55862  0.13102  1.0000
  C   C311      1.0  0.22986  0.05862  0.36898  1.0000
  C   C312      1.0  0.27014  0.94138  0.36898  1.0000
  H   H169      1.0  0.75529  0.54753  0.90619  1.0000
  H   H170      1.0  0.74471  0.45247  0.90619  1.0000
  H   H171      1.0  0.75529  0.95247  0.59381  1.0000
  H   H172      1.0  0.74471  0.04753  0.59381  1.0000
  H   H173      1.0  0.24471  0.45247  0.09381  1.0000
  H   H174      1.0  0.25529  0.54753  0.09381  1.0000
  H   H175      1.0  0.24471  0.04753  0.40619  1.0000
  H   H176      1.0  0.25529  0.95247  0.40619  1.0000
  C   C313      1.0  0.88041  0.59165  0.82808  1.0000
  C   C314      1.0  0.61959  0.40835  0.82808  1.0000
  C   C315      1.0  0.88041  0.90835  0.67192  1.0000
  C   C316      1.0  0.61959  0.09165  0.67192  1.0000
  C   C317      1.0  0.11959  0.40835  0.17192  1.0000
  C   C318      1.0  0.38041  0.59165  0.17192  1.0000
  C   C319      1.0  0.11959  0.09165  0.32808  1.0000
  C   C320      1.0  0.38041  0.90835  0.32808  1.0000
