data_image0
_chemical_formula_structural       Sn8F32O32C80H8C8H8C8H8C8H8C8H8C16H8C8H8C8H8C8H8C8H8C16H8C8H8C8H8C8H8C8H8
_chemical_formula_sum              "Sn8 F32 O32 C208 H120"
_cell_length_a       25.951
_cell_length_b       14.364
_cell_length_c       19.628
_cell_angle_alpha    90
_cell_angle_beta     121.921
_cell_angle_gamma    90

_space_group_name_H-M_alt    "P 1"
_space_group_IT_number       1

loop_
  _space_group_symop_operation_xyz
  'x, y, z'

loop_
  _atom_site_type_symbol
  _atom_site_label
  _atom_site_symmetry_multiplicity
  _atom_site_fract_x
  _atom_site_fract_y
  _atom_site_fract_z
  _atom_site_occupancy
  Sn  Sn1       1.0  0.30546  0.59076  0.30121  1.0000
  Sn  Sn2       1.0  0.80546  0.09076  0.30121  1.0000
  Sn  Sn3       1.0  0.69454  0.59076  0.19879  1.0000
  Sn  Sn4       1.0  0.19454  0.09076  0.19879  1.0000
  Sn  Sn5       1.0  0.69454  0.40924  0.69879  1.0000
  Sn  Sn6       1.0  0.19454  0.90924  0.69879  1.0000
  Sn  Sn7       1.0  0.30546  0.40924  0.80121  1.0000
  Sn  Sn8       1.0  0.80546  0.90924  0.80121  1.0000
  F   F1        1.0  0.17500  0.57910  0.35010  1.0000
  F   F2        1.0  0.67500  0.07910  0.35010  1.0000
  F   F3        1.0  0.82500  0.57910  0.14990  1.0000
  F   F4        1.0  0.32500  0.07910  0.14990  1.0000
  F   F5        1.0  0.82500  0.42090  0.64990  1.0000
  F   F6        1.0  0.32500  0.92090  0.64990  1.0000
  F   F7        1.0  0.17500  0.42090  0.85010  1.0000
  F   F8        1.0  0.67500  0.92090  0.85010  1.0000
  F   F9        1.0  0.05590  0.60000  0.24780  1.0000
  F   F10       1.0  0.55590  0.10000  0.24780  1.0000
  F   F11       1.0  0.94410  0.60000  0.25220  1.0000
  F   F12       1.0  0.44410  0.10000  0.25220  1.0000
  F   F13       1.0  0.94410  0.40000  0.75220  1.0000
  F   F14       1.0  0.44410  0.90000  0.75220  1.0000
  F   F15       1.0  0.05590  0.40000  0.74780  1.0000
  F   F16       1.0  0.55590  0.90000  0.74780  1.0000
  F   F17       1.0  0.99040  0.46330  0.14180  1.0000
  F   F18       1.0  0.49040  0.96330  0.14180  1.0000
  F   F19       1.0  0.00960  0.46330  0.35820  1.0000
  F   F20       1.0  0.50960  0.96330  0.35820  1.0000
  F   F21       1.0  0.00960  0.53670  0.85820  1.0000
  F   F22       1.0  0.50960  0.03670  0.85820  1.0000
  F   F23       1.0  0.99040  0.53670  0.64180  1.0000
  F   F24       1.0  0.49040  0.03670  0.64180  1.0000
  F   F25       1.0  0.04460  0.30750  0.13620  1.0000
  F   F26       1.0  0.54460  0.80750  0.13620  1.0000
  F   F27       1.0  0.95540  0.30750  0.36380  1.0000
  F   F28       1.0  0.45540  0.80750  0.36380  1.0000
  F   F29       1.0  0.95540  0.69250  0.86380  1.0000
  F   F30       1.0  0.45540  0.19250  0.86380  1.0000
  F   F31       1.0  0.04460  0.69250  0.63620  1.0000
  F   F32       1.0  0.54460  0.19250  0.63620  1.0000
  O   O1        1.0  0.27890  0.47400  0.36000  1.0000
  O   O2        1.0  0.77890  0.97400  0.36000  1.0000
  O   O3        1.0  0.72110  0.47400  0.14000  1.0000
  O   O4        1.0  0.22110  0.97400  0.14000  1.0000
  O   O5        1.0  0.72110  0.52600  0.64000  1.0000
  O   O6        1.0  0.22110  0.02600  0.64000  1.0000
  O   O7        1.0  0.27890  0.52600  0.86000  1.0000
  O   O8        1.0  0.77890  0.02600  0.86000  1.0000
  O   O9        1.0  0.25340  0.34990  0.40220  1.0000
  O   O10       1.0  0.75340  0.84990  0.40220  1.0000
  O   O11       1.0  0.74660  0.34990  0.09780  1.0000
  O   O12       1.0  0.24660  0.84990  0.09780  1.0000
  O   O13       1.0  0.74660  0.65010  0.59780  1.0000
  O   O14       1.0  0.24660  0.15010  0.59780  1.0000
  O   O15       1.0  0.25340  0.65010  0.90220  1.0000
  O   O16       1.0  0.75340  0.15010  0.90220  1.0000
  O   O17       1.0  0.15320  0.19720  0.23490  1.0000
  O   O18       1.0  0.65320  0.69720  0.23490  1.0000
  O   O19       1.0  0.84680  0.19720  0.26510  1.0000
  O   O20       1.0  0.34680  0.69720  0.26510  1.0000
  O   O21       1.0  0.84680  0.80280  0.76510  1.0000
  O   O22       1.0  0.34680  0.30280  0.76510  1.0000
  O   O23       1.0  0.15320  0.80280  0.73490  1.0000
  O   O24       1.0  0.65320  0.30280  0.73490  1.0000
  O   O25       1.0  0.21690  0.29370  0.22790  1.0000
  O   O26       1.0  0.71690  0.79370  0.22790  1.0000
  O   O27       1.0  0.78310  0.29370  0.27210  1.0000
  O   O28       1.0  0.28310  0.79370  0.27210  1.0000
  O   O29       1.0  0.78310  0.70630  0.77210  1.0000
  O   O30       1.0  0.28310  0.20630  0.77210  1.0000
  O   O31       1.0  0.21690  0.70630  0.72790  1.0000
  O   O32       1.0  0.71690  0.20630  0.72790  1.0000
  C   C1        1.0  0.24130  0.41780  0.35680  1.0000
  C   C2        1.0  0.74130  0.91780  0.35680  1.0000
  C   C3        1.0  0.75870  0.41780  0.14320  1.0000
  C   C4        1.0  0.25870  0.91780  0.14320  1.0000
  C   C5        1.0  0.75870  0.58220  0.64320  1.0000
  C   C6        1.0  0.25870  0.08220  0.64320  1.0000
  C   C7        1.0  0.24130  0.58220  0.85680  1.0000
  C   C8        1.0  0.74130  0.08220  0.85680  1.0000
  C   C9        1.0  0.17410  0.43090  0.29590  1.0000
  C   C10       1.0  0.67410  0.93090  0.29590  1.0000
  C   C11       1.0  0.82590  0.43090  0.20410  1.0000
  C   C12       1.0  0.32590  0.93090  0.20410  1.0000
  C   C13       1.0  0.82590  0.56910  0.70410  1.0000
  C   C14       1.0  0.32590  0.06910  0.70410  1.0000
  C   C15       1.0  0.17410  0.56910  0.79590  1.0000
  C   C16       1.0  0.67410  0.06910  0.79590  1.0000
  C   C17       1.0  0.14460  0.50950  0.29760  1.0000
  C   C18       1.0  0.64460  0.00950  0.29760  1.0000
  C   C19       1.0  0.85540  0.50950  0.20240  1.0000
  C   C20       1.0  0.35540  0.00950  0.20240  1.0000
  C   C21       1.0  0.85540  0.49050  0.70240  1.0000
  C   C22       1.0  0.35540  0.99050  0.70240  1.0000
  C   C23       1.0  0.14460  0.49050  0.79760  1.0000
  C   C24       1.0  0.64460  0.99050  0.79760  1.0000
  C   C25       1.0  0.08350  0.52120  0.24660  1.0000
  C   C26       1.0  0.58350  0.02120  0.24660  1.0000
  C   C27       1.0  0.91650  0.52120  0.25340  1.0000
  C   C28       1.0  0.41650  0.02120  0.25340  1.0000
  C   C29       1.0  0.91650  0.47880  0.75340  1.0000
  C   C30       1.0  0.41650  0.97880  0.75340  1.0000
  C   C31       1.0  0.08350  0.47880  0.74660  1.0000
  C   C32       1.0  0.58350  0.97880  0.74660  1.0000
  C   C33       1.0  0.05000  0.45210  0.19330  1.0000
  C   C34       1.0  0.55000  0.95210  0.19330  1.0000
  C   C35       1.0  0.95000  0.45210  0.30670  1.0000
  C   C36       1.0  0.45000  0.95210  0.30670  1.0000
  C   C37       1.0  0.95000  0.54790  0.80670  1.0000
  C   C38       1.0  0.45000  0.04790  0.80670  1.0000
  C   C39       1.0  0.05000  0.54790  0.69330  1.0000
  C   C40       1.0  0.55000  0.04790  0.69330  1.0000
  C   C41       1.0  0.07890  0.37300  0.19160  1.0000
  C   C42       1.0  0.57890  0.87300  0.19160  1.0000
  C   C43       1.0  0.92110  0.37300  0.30840  1.0000
  C   C44       1.0  0.42110  0.87300  0.30840  1.0000
  C   C45       1.0  0.92110  0.62700  0.80840  1.0000
  C   C46       1.0  0.42110  0.12700  0.80840  1.0000
  C   C47       1.0  0.07890  0.62700  0.69160  1.0000
  C   C48       1.0  0.57890  0.12700  0.69160  1.0000
  C   C49       1.0  0.14040  0.36000  0.24150  1.0000
  C   C50       1.0  0.64040  0.86000  0.24150  1.0000
  C   C51       1.0  0.85960  0.36000  0.25850  1.0000
  C   C52       1.0  0.35960  0.86000  0.25850  1.0000
  C   C53       1.0  0.85960  0.64000  0.75850  1.0000
  C   C54       1.0  0.35960  0.14000  0.75850  1.0000
  C   C55       1.0  0.14040  0.64000  0.74150  1.0000
  C   C56       1.0  0.64040  0.14000  0.74150  1.0000
  C   C57       1.0  0.17370  0.27810  0.23460  1.0000
  C   C58       1.0  0.67370  0.77810  0.23460  1.0000
  C   C59       1.0  0.82630  0.27810  0.26540  1.0000
  C   C60       1.0  0.32630  0.77810  0.26540  1.0000
  C   C61       1.0  0.82630  0.72190  0.76540  1.0000
  C   C62       1.0  0.32630  0.22190  0.76540  1.0000
  C   C63       1.0  0.17370  0.72190  0.73460  1.0000
  C   C64       1.0  0.67370  0.22190  0.73460  1.0000
  C   C65       1.0  0.36380  0.49160  0.29280  1.0000
  C   C66       1.0  0.86380  0.99160  0.29280  1.0000
  C   C67       1.0  0.63620  0.49160  0.20720  1.0000
  C   C68       1.0  0.13620  0.99160  0.20720  1.0000
  C   C69       1.0  0.63620  0.50840  0.70720  1.0000
  C   C70       1.0  0.13620  0.00840  0.70720  1.0000
  C   C71       1.0  0.36380  0.50840  0.79280  1.0000
  C   C72       1.0  0.86380  0.00840  0.79280  1.0000
  C   C73       1.0  0.34470  0.40180  0.26650  1.0000
  C   C74       1.0  0.84470  0.90180  0.26650  1.0000
  C   C75       1.0  0.65530  0.40180  0.23350  1.0000
  C   C76       1.0  0.15530  0.90180  0.23350  1.0000
  C   C77       1.0  0.65530  0.59820  0.73350  1.0000
  C   C78       1.0  0.15530  0.09820  0.73350  1.0000
  C   C79       1.0  0.34470  0.59820  0.76650  1.0000
  C   C80       1.0  0.84470  0.09820  0.76650  1.0000
  H   H1        1.0  0.30740  0.38170  0.25720  1.0000
  H   H2        1.0  0.80740  0.88170  0.25720  1.0000
  H   H3        1.0  0.69260  0.38170  0.24280  1.0000
  H   H4        1.0  0.19260  0.88170  0.24280  1.0000
  H   H5        1.0  0.69260  0.61830  0.74280  1.0000
  H   H6        1.0  0.19260  0.11830  0.74280  1.0000
  H   H7        1.0  0.30740  0.61830  0.75720  1.0000
  H   H8        1.0  0.80740  0.11830  0.75720  1.0000
  C   C81       1.0  0.38020  0.34160  0.25400  1.0000
  C   C82       1.0  0.88020  0.84160  0.25400  1.0000
  C   C83       1.0  0.61980  0.34160  0.24600  1.0000
  C   C84       1.0  0.11980  0.84160  0.24600  1.0000
  C   C85       1.0  0.61980  0.65840  0.74600  1.0000
  C   C86       1.0  0.11980  0.15840  0.74600  1.0000
  C   C87       1.0  0.38020  0.65840  0.75400  1.0000
  C   C88       1.0  0.88020  0.15840  0.75400  1.0000
  H   H9        1.0  0.36550  0.28250  0.23370  1.0000
  H   H10       1.0  0.86550  0.78250  0.23370  1.0000
  H   H11       1.0  0.63450  0.28250  0.26630  1.0000
  H   H12       1.0  0.13450  0.78250  0.26630  1.0000
  H   H13       1.0  0.63450  0.71750  0.76630  1.0000
  H   H14       1.0  0.13450  0.21750  0.76630  1.0000
  H   H15       1.0  0.36550  0.71750  0.73370  1.0000
  H   H16       1.0  0.86550  0.21750  0.73370  1.0000
  C   C89       1.0  0.43600  0.36660  0.27070  1.0000
  C   C90       1.0  0.93600  0.86660  0.27070  1.0000
  C   C91       1.0  0.56400  0.36660  0.22930  1.0000
  C   C92       1.0  0.06400  0.86660  0.22930  1.0000
  C   C93       1.0  0.56400  0.63340  0.72930  1.0000
  C   C94       1.0  0.06400  0.13340  0.72930  1.0000
  C   C95       1.0  0.43600  0.63340  0.77070  1.0000
  C   C96       1.0  0.93600  0.13340  0.77070  1.0000
  H   H17       1.0  0.46030  0.32480  0.26370  1.0000
  H   H18       1.0  0.96030  0.82480  0.26370  1.0000
  H   H19       1.0  0.53970  0.32480  0.23630  1.0000
  H   H20       1.0  0.03970  0.82480  0.23630  1.0000
  H   H21       1.0  0.53970  0.67520  0.73630  1.0000
  H   H22       1.0  0.03970  0.17520  0.73630  1.0000
  H   H23       1.0  0.46030  0.67520  0.76370  1.0000
  H   H24       1.0  0.96030  0.17520  0.76370  1.0000
  C   C97       1.0  0.45580  0.45500  0.29820  1.0000
  C   C98       1.0  0.95580  0.95500  0.29820  1.0000
  C   C99       1.0  0.54420  0.45500  0.20180  1.0000
  C   C100      1.0  0.04420  0.95500  0.20180  1.0000
  C   C101      1.0  0.54420  0.54500  0.70180  1.0000
  C   C102      1.0  0.04420  0.04500  0.70180  1.0000
  C   C103      1.0  0.45580  0.54500  0.79820  1.0000
  C   C104      1.0  0.95580  0.04500  0.79820  1.0000
  H   H25       1.0  0.49410  0.47330  0.31010  1.0000
  H   H26       1.0  0.99410  0.97330  0.31010  1.0000
  H   H27       1.0  0.50590  0.47330  0.18990  1.0000
  H   H28       1.0  0.00590  0.97330  0.18990  1.0000
  H   H29       1.0  0.50590  0.52670  0.68990  1.0000
  H   H30       1.0  0.00590  0.02670  0.68990  1.0000
  H   H31       1.0  0.49410  0.52670  0.81010  1.0000
  H   H32       1.0  0.99410  0.02670  0.81010  1.0000
  C   C105      1.0  0.42020  0.51780  0.30860  1.0000
  C   C106      1.0  0.92020  0.01780  0.30860  1.0000
  C   C107      1.0  0.57980  0.51780  0.19140  1.0000
  C   C108      1.0  0.07980  0.01780  0.19140  1.0000
  C   C109      1.0  0.57980  0.48220  0.69140  1.0000
  C   C110      1.0  0.07980  0.98220  0.69140  1.0000
  C   C111      1.0  0.42020  0.48220  0.80860  1.0000
  C   C112      1.0  0.92020  0.98220  0.80860  1.0000
  H   H33       1.0  0.43430  0.57790  0.32640  1.0000
  H   H34       1.0  0.93430  0.07790  0.32640  1.0000
  H   H35       1.0  0.56570  0.57790  0.17360  1.0000
  H   H36       1.0  0.06570  0.07790  0.17360  1.0000
  H   H37       1.0  0.56570  0.42210  0.67360  1.0000
  H   H38       1.0  0.06570  0.92210  0.67360  1.0000
  H   H39       1.0  0.43430  0.42210  0.82640  1.0000
  H   H40       1.0  0.93430  0.92210  0.82640  1.0000
  C   C113      1.0  0.21560  0.58880  0.19860  1.0000
  C   C114      1.0  0.71560  0.08880  0.19860  1.0000
  C   C115      1.0  0.78440  0.58880  0.30140  1.0000
  C   C116      1.0  0.28440  0.08880  0.30140  1.0000
  C   C117      1.0  0.78440  0.41120  0.80140  1.0000
  C   C118      1.0  0.28440  0.91120  0.80140  1.0000
  C   C119      1.0  0.21560  0.41120  0.69860  1.0000
  C   C120      1.0  0.71560  0.91120  0.69860  1.0000
  C   C121      1.0  0.19430  0.51030  0.15110  1.0000
  C   C122      1.0  0.69430  0.01030  0.15110  1.0000
  C   C123      1.0  0.80570  0.51030  0.34890  1.0000
  C   C124      1.0  0.30570  0.01030  0.34890  1.0000
  C   C125      1.0  0.80570  0.48970  0.84890  1.0000
  C   C126      1.0  0.30570  0.98970  0.84890  1.0000
  C   C127      1.0  0.19430  0.48970  0.65110  1.0000
  C   C128      1.0  0.69430  0.98970  0.65110  1.0000
  H   H41       1.0  0.22020  0.46010  0.16220  1.0000
  H   H42       1.0  0.72020  0.96010  0.16220  1.0000
  H   H43       1.0  0.77980  0.46010  0.33780  1.0000
  H   H44       1.0  0.27980  0.96010  0.33780  1.0000
  H   H45       1.0  0.77980  0.53990  0.83780  1.0000
  H   H46       1.0  0.27980  0.03990  0.83780  1.0000
  H   H47       1.0  0.22020  0.53990  0.66220  1.0000
  H   H48       1.0  0.72020  0.03990  0.66220  1.0000
  C   C129      1.0  0.13410  0.50510  0.08620  1.0000
  C   C130      1.0  0.63410  0.00510  0.08620  1.0000
  C   C131      1.0  0.86590  0.50510  0.41380  1.0000
  C   C132      1.0  0.36590  0.00510  0.41380  1.0000
  C   C133      1.0  0.86590  0.49490  0.91380  1.0000
  C   C134      1.0  0.36590  0.99490  0.91380  1.0000
  C   C135      1.0  0.13410  0.49490  0.58620  1.0000
  C   C136      1.0  0.63410  0.99490  0.58620  1.0000
  H   H49       1.0  0.12090  0.45280  0.05330  1.0000
  H   H50       1.0  0.62090  0.95280  0.05330  1.0000
  H   H51       1.0  0.87910  0.45280  0.44670  1.0000
  H   H52       1.0  0.37910  0.95280  0.44670  1.0000
  H   H53       1.0  0.87910  0.54720  0.94670  1.0000
  H   H54       1.0  0.37910  0.04720  0.94670  1.0000
  H   H55       1.0  0.12090  0.54720  0.55330  1.0000
  H   H56       1.0  0.62090  0.04720  0.55330  1.0000
  C   C137      1.0  0.09460  0.57720  0.07120  1.0000
  C   C138      1.0  0.59460  0.07720  0.07120  1.0000
  C   C139      1.0  0.90540  0.57720  0.42880  1.0000
  C   C140      1.0  0.40540  0.07720  0.42880  1.0000
  C   C141      1.0  0.90540  0.42280  0.92880  1.0000
  C   C142      1.0  0.40540  0.92280  0.92880  1.0000
  C   C143      1.0  0.09460  0.42280  0.57120  1.0000
  C   C144      1.0  0.59460  0.92280  0.57120  1.0000
  H   H57       1.0  0.05390  0.57260  0.03060  1.0000
  H   H58       1.0  0.55390  0.07260  0.03060  1.0000
  H   H59       1.0  0.94610  0.57260  0.46940  1.0000
  H   H60       1.0  0.44610  0.07260  0.46940  1.0000
  H   H61       1.0  0.94610  0.42740  0.96940  1.0000
  H   H62       1.0  0.44610  0.92740  0.96940  1.0000
  H   H63       1.0  0.05390  0.42740  0.53060  1.0000
  H   H64       1.0  0.55390  0.92740  0.53060  1.0000
  C   C145      1.0  0.11570  0.65360  0.11590  1.0000
  C   C146      1.0  0.61570  0.15360  0.11590  1.0000
  C   C147      1.0  0.88430  0.65360  0.38410  1.0000
  C   C148      1.0  0.38430  0.15360  0.38410  1.0000
  C   C149      1.0  0.88430  0.34640  0.88410  1.0000
  C   C150      1.0  0.38430  0.84640  0.88410  1.0000
  C   C151      1.0  0.11570  0.34640  0.61590  1.0000
  C   C152      1.0  0.61570  0.84640  0.61590  1.0000
  H   H65       1.0  0.08990  0.70410  0.10420  1.0000
  H   H66       1.0  0.58990  0.20410  0.10420  1.0000
  H   H67       1.0  0.91010  0.70410  0.39580  1.0000
  H   H68       1.0  0.41010  0.20410  0.39580  1.0000
  H   H69       1.0  0.91010  0.29590  0.89580  1.0000
  H   H70       1.0  0.41010  0.79590  0.89580  1.0000
  H   H71       1.0  0.08990  0.29590  0.60420  1.0000
  H   H72       1.0  0.58990  0.79590  0.60420  1.0000
  C   C153      1.0  0.17500  0.65970  0.17930  1.0000
  C   C154      1.0  0.67500  0.15970  0.17930  1.0000
  C   C155      1.0  0.82500  0.65970  0.32070  1.0000
  C   C156      1.0  0.32500  0.15970  0.32070  1.0000
  C   C157      1.0  0.82500  0.34030  0.82070  1.0000
  C   C158      1.0  0.32500  0.84030  0.82070  1.0000
  C   C159      1.0  0.17500  0.34030  0.67930  1.0000
  C   C160      1.0  0.67500  0.84030  0.67930  1.0000
  H   H73       1.0  0.18780  0.71380  0.20990  1.0000
  H   H74       1.0  0.68780  0.21380  0.20990  1.0000
  H   H75       1.0  0.81220  0.71380  0.29010  1.0000
  H   H76       1.0  0.31220  0.21380  0.29010  1.0000
  H   H77       1.0  0.81220  0.28620  0.79010  1.0000
  H   H78       1.0  0.31220  0.78620  0.79010  1.0000
  H   H79       1.0  0.18780  0.28620  0.70990  1.0000
  H   H80       1.0  0.68780  0.78620  0.70990  1.0000
  C   C161      1.0  0.34100  0.65840  0.41410  1.0000
  C   C162      1.0  0.84100  0.15840  0.41410  1.0000
  C   C163      1.0  0.65900  0.65840  0.08590  1.0000
  C   C164      1.0  0.15900  0.15840  0.08590  1.0000
  C   C165      1.0  0.65900  0.34160  0.58590  1.0000
  C   C166      1.0  0.15900  0.84160  0.58590  1.0000
  C   C167      1.0  0.34100  0.34160  0.91410  1.0000
  C   C168      1.0  0.84100  0.84160  0.91410  1.0000
  C   C169      1.0  0.40160  0.67020  0.46220  1.0000
  C   C170      1.0  0.90160  0.17020  0.46220  1.0000
  C   C171      1.0  0.59840  0.67020  0.03780  1.0000
  C   C172      1.0  0.09840  0.17020  0.03780  1.0000
  C   C173      1.0  0.59840  0.32980  0.53780  1.0000
  C   C174      1.0  0.09840  0.82980  0.53780  1.0000
  C   C175      1.0  0.40160  0.32980  0.96220  1.0000
  C   C176      1.0  0.90160  0.82980  0.96220  1.0000
  H   H81       1.0  0.42690  0.64520  0.44670  1.0000
  H   H82       1.0  0.92690  0.14520  0.44670  1.0000
  H   H83       1.0  0.57310  0.64520  0.05330  1.0000
  H   H84       1.0  0.07310  0.14520  0.05330  1.0000
  H   H85       1.0  0.57310  0.35480  0.55330  1.0000
  H   H86       1.0  0.07310  0.85480  0.55330  1.0000
  H   H87       1.0  0.42690  0.35480  0.94670  1.0000
  H   H88       1.0  0.92690  0.85480  0.94670  1.0000
  C   C177      1.0  0.42710  0.71880  0.53440  1.0000
  C   C178      1.0  0.92710  0.21880  0.53440  1.0000
  C   C179      1.0  0.57290  0.71880  0.96560  1.0000
  C   C180      1.0  0.07290  0.21880  0.96560  1.0000
  C   C181      1.0  0.57290  0.28120  0.46560  1.0000
  C   C182      1.0  0.07290  0.78120  0.46560  1.0000
  C   C183      1.0  0.42710  0.28120  0.03440  1.0000
  C   C184      1.0  0.92710  0.78120  0.03440  1.0000
  H   H89       1.0  0.46910  0.72570  0.56620  1.0000
  H   H90       1.0  0.96910  0.22570  0.56620  1.0000
  H   H91       1.0  0.53090  0.72570  0.93380  1.0000
  H   H92       1.0  0.03090  0.22570  0.93380  1.0000
  H   H93       1.0  0.53090  0.27430  0.43380  1.0000
  H   H94       1.0  0.03090  0.77430  0.43380  1.0000
  H   H95       1.0  0.46910  0.27430  0.06620  1.0000
  H   H96       1.0  0.96910  0.77430  0.06620  1.0000
  C   C185      1.0  0.39230  0.75520  0.55810  1.0000
  C   C186      1.0  0.89230  0.25520  0.55810  1.0000
  C   C187      1.0  0.60770  0.75520  0.94190  1.0000
  C   C188      1.0  0.10770  0.25520  0.94190  1.0000
  C   C189      1.0  0.60770  0.24480  0.44190  1.0000
  C   C190      1.0  0.10770  0.74480  0.44190  1.0000
  C   C191      1.0  0.39230  0.24480  0.05810  1.0000
  C   C192      1.0  0.89230  0.74480  0.05810  1.0000
  H   H97       1.0  0.40950  0.78700  0.60660  1.0000
  H   H98       1.0  0.90950  0.28700  0.60660  1.0000
  H   H99       1.0  0.59050  0.78700  0.89340  1.0000
  H   H100      1.0  0.09050  0.28700  0.89340  1.0000
  H   H101      1.0  0.59050  0.21300  0.39340  1.0000
  H   H102      1.0  0.09050  0.71300  0.39340  1.0000
  H   H103      1.0  0.40950  0.21300  0.10660  1.0000
  H   H104      1.0  0.90950  0.71300  0.10660  1.0000
  C   C193      1.0  0.33120  0.74550  0.51080  1.0000
  C   C194      1.0  0.83120  0.24550  0.51080  1.0000
  C   C195      1.0  0.66880  0.74550  0.98920  1.0000
  C   C196      1.0  0.16880  0.24550  0.98920  1.0000
  C   C197      1.0  0.66880  0.25450  0.48920  1.0000
  C   C198      1.0  0.16880  0.75450  0.48920  1.0000
  C   C199      1.0  0.33120  0.25450  0.01080  1.0000
  C   C200      1.0  0.83120  0.75450  0.01080  1.0000
  H   H105      1.0  0.30630  0.77090  0.52680  1.0000
  H   H106      1.0  0.80630  0.27090  0.52680  1.0000
  H   H107      1.0  0.69370  0.77090  0.97320  1.0000
  H   H108      1.0  0.19370  0.27090  0.97320  1.0000
  H   H109      1.0  0.69370  0.22910  0.47320  1.0000
  H   H110      1.0  0.19370  0.72910  0.47320  1.0000
  H   H111      1.0  0.30630  0.22910  0.02680  1.0000
  H   H112      1.0  0.80630  0.72910  0.02680  1.0000
  C   C201      1.0  0.30580  0.69800  0.43870  1.0000
  C   C202      1.0  0.80580  0.19800  0.43870  1.0000
  C   C203      1.0  0.69420  0.69800  0.06130  1.0000
  C   C204      1.0  0.19420  0.19800  0.06130  1.0000
  C   C205      1.0  0.69420  0.30200  0.56130  1.0000
  C   C206      1.0  0.19420  0.80200  0.56130  1.0000
  C   C207      1.0  0.30580  0.30200  0.93870  1.0000
  C   C208      1.0  0.80580  0.80200  0.93870  1.0000
  H   H113      1.0  0.26380  0.69300  0.40640  1.0000
  H   H114      1.0  0.76380  0.19300  0.40640  1.0000
  H   H115      1.0  0.73620  0.69300  0.09360  1.0000
  H   H116      1.0  0.23620  0.19300  0.09360  1.0000
  H   H117      1.0  0.73620  0.30700  0.59360  1.0000
  H   H118      1.0  0.23620  0.80700  0.59360  1.0000
  H   H119      1.0  0.26380  0.30700  0.90640  1.0000
  H   H120      1.0  0.76380  0.80700  0.90640  1.0000
