data_image0
_chemical_formula_structural       U4O28C2H2C2H2C2H2C2H2C2H2
_chemical_formula_sum              "U4 O28 C10 H10"
_cell_length_a       11.5792
_cell_length_b       12.8431
_cell_length_c       8.6056
_cell_angle_alpha    90
_cell_angle_beta     107.657
_cell_angle_gamma    90

_space_group_name_H-M_alt    "P 1"
_space_group_IT_number       1

loop_
  _space_group_symop_operation_xyz
  'x, y, z'

loop_
  _atom_site_type_symbol
  _atom_site_label
  _atom_site_symmetry_multiplicity
  _atom_site_fract_x
  _atom_site_fract_y
  _atom_site_fract_z
  _atom_site_occupancy
  U   U1        1.0  0.41288  0.49712  0.01182  1.0000
  U   U2        1.0  0.58712  0.99712  0.98818  1.0000
  U   U3        1.0  0.90905  0.34608  0.94795  1.0000
  U   U4        1.0  0.09095  0.84608  0.05205  1.0000
  O   O1        1.0  0.47430  0.46870  0.21700  1.0000
  O   O2        1.0  0.52570  0.96870  0.78300  1.0000
  O   O3        1.0  0.34730  0.52980  0.80400  1.0000
  O   O4        1.0  0.65270  0.02980  0.19600  1.0000
  O   O5        1.0  0.86090  0.30630  0.11910  1.0000
  O   O6        1.0  0.13910  0.80630  0.88090  1.0000
  O   O7        1.0  0.95680  0.38450  0.78330  1.0000
  O   O8        1.0  0.04320  0.88450  0.21670  1.0000
  O   O9        1.0  0.41660  0.31560  0.94900  1.0000
  O   O10       1.0  0.58340  0.81560  0.05100  1.0000
  O   O11       1.0  0.47520  0.15270  0.95100  1.0000
  O   O12       1.0  0.52480  0.65270  0.04900  1.0000
  O   O13       1.0  0.98300  0.17480  0.91300  1.0000
  O   O14       1.0  0.01700  0.67480  0.08700  1.0000
  O   O15       1.0  0.02960  0.00810  0.92830  1.0000
  O   O16       1.0  0.97040  0.50810  0.07170  1.0000
  O   O17       1.0  0.22430  0.42300  0.02000  1.0000
  O   O18       1.0  0.77570  0.92300  0.98000  1.0000
  O   O19       1.0  0.11470  0.32360  0.13400  1.0000
  O   O20       1.0  0.88530  0.82360  0.86600  1.0000
  O   O21       1.0  0.60600  0.45490  0.96700  1.0000
  O   O22       1.0  0.39400  0.95490  0.03300  1.0000
  O   O23       1.0  0.74620  0.46490  0.84100  1.0000
  O   O24       1.0  0.25380  0.96490  0.15900  1.0000
  O   O25       1.0  0.75100  0.24830  0.75500  1.0000
  O   O26       1.0  0.24900  0.74830  0.24500  1.0000
  O   O27       1.0  0.70100  0.13150  0.90770  1.0000
  O   O28       1.0  0.29900  0.63150  0.09230  1.0000
  C   C1        1.0  0.49300  0.24800  0.99600  1.0000
  C   C2        1.0  0.50700  0.74800  0.00400  1.0000
  H   H1        1.0  0.56910  0.26640  0.06980  1.0000
  H   H2        1.0  0.43090  0.76640  0.93020  1.0000
  C   C3        1.0  0.98800  0.09000  0.98300  1.0000
  C   C4        1.0  0.01200  0.59000  0.01700  1.0000
  H   H3        1.0  0.96080  0.08490  0.07610  1.0000
  H   H4        1.0  0.03920  0.58490  0.92390  1.0000
  C   C5        1.0  0.20900  0.36700  0.12400  1.0000
  C   C6        1.0  0.79100  0.86700  0.87600  1.0000
  H   H5        1.0  0.27940  0.35270  0.21230  1.0000
  H   H6        1.0  0.72060  0.85270  0.78770  1.0000
  C   C7        1.0  0.64700  0.49100  0.85500  1.0000
  C   C8        1.0  0.35300  0.99100  0.14500  1.0000
  H   H7        1.0  0.59850  0.53930  0.77970  1.0000
  H   H8        1.0  0.40150  0.03930  0.22030  1.0000
  C   C9        1.0  0.69000  0.17100  0.77400  1.0000
  C   C10       1.0  0.31000  0.67100  0.22600  1.0000
  H   H9        1.0  0.63310  0.14100  0.68030  1.0000
  H   H10       1.0  0.36690  0.64100  0.31970  1.0000
