data_image0
_chemical_formula_structural       Pr4O20C8O8C56O8H40
_chemical_formula_sum              "Pr4 O36 C64 H40"
_cell_length_a       9.5051
_cell_length_b       14.6243
_cell_length_c       13.5603
_cell_angle_alpha    90
_cell_angle_beta     90
_cell_angle_gamma    90

_space_group_name_H-M_alt    "P 1"
_space_group_IT_number       1

loop_
  _space_group_symop_operation_xyz
  'x, y, z'

loop_
  _atom_site_type_symbol
  _atom_site_label
  _atom_site_symmetry_multiplicity
  _atom_site_fract_x
  _atom_site_fract_y
  _atom_site_fract_z
  _atom_site_occupancy
  Pr  Pr1       1.0  0.25000  0.00000  0.60466  1.0000
  Pr  Pr2       1.0  0.25000  0.50000  0.89534  1.0000
  Pr  Pr3       1.0  0.75000  0.00000  0.39534  1.0000
  Pr  Pr4       1.0  0.75000  0.50000  0.10466  1.0000
  O   O1        1.0  0.08190  0.11096  0.55062  1.0000
  O   O2        1.0  0.41810  0.88904  0.55062  1.0000
  O   O3        1.0  0.41810  0.61096  0.94938  1.0000
  O   O4        1.0  0.08190  0.38904  0.94938  1.0000
  O   O5        1.0  0.91810  0.88904  0.44938  1.0000
  O   O6        1.0  0.58190  0.11096  0.44938  1.0000
  O   O7        1.0  0.58190  0.38904  0.05062  1.0000
  O   O8        1.0  0.91810  0.61096  0.05062  1.0000
  O   O9        1.0  0.25000  0.00000  0.40690  1.0000
  O   O10       1.0  0.25000  0.50000  0.09310  1.0000
  O   O11       1.0  0.75000  0.00000  0.59310  1.0000
  O   O12       1.0  0.75000  0.50000  0.90690  1.0000
  O   O13       1.0  0.90769  0.11830  0.44381  1.0000
  O   O14       1.0  0.59231  0.88170  0.44381  1.0000
  O   O15       1.0  0.59231  0.61830  0.05619  1.0000
  O   O16       1.0  0.90769  0.38170  0.05619  1.0000
  O   O17       1.0  0.09231  0.88170  0.55619  1.0000
  O   O18       1.0  0.40769  0.11830  0.55619  1.0000
  O   O19       1.0  0.40769  0.38170  0.94381  1.0000
  O   O20       1.0  0.09231  0.61830  0.94381  1.0000
  C   C1        1.0  0.03120  0.28949  0.61719  1.0000
  C   C2        1.0  0.46880  0.71051  0.61719  1.0000
  C   C3        1.0  0.46880  0.78949  0.88281  1.0000
  C   C4        1.0  0.03120  0.21051  0.88281  1.0000
  C   C5        1.0  0.96880  0.71051  0.38281  1.0000
  C   C6        1.0  0.53120  0.28949  0.38281  1.0000
  C   C7        1.0  0.53120  0.21051  0.11719  1.0000
  C   C8        1.0  0.96880  0.78949  0.11719  1.0000
  O   O21       1.0  0.20456  0.39117  0.74982  1.0000
  O   O22       1.0  0.29544  0.60883  0.74982  1.0000
  O   O23       1.0  0.29544  0.89117  0.75018  1.0000
  O   O24       1.0  0.20456  0.10883  0.75018  1.0000
  O   O25       1.0  0.79544  0.60883  0.25018  1.0000
  O   O26       1.0  0.70456  0.39117  0.25018  1.0000
  O   O27       1.0  0.70456  0.10883  0.24982  1.0000
  O   O28       1.0  0.79544  0.89117  0.24982  1.0000
  C   C9        1.0  0.00660  0.37983  0.64350  1.0000
  C   C10       1.0  0.49340  0.62017  0.64350  1.0000
  C   C11       1.0  0.49340  0.87983  0.85650  1.0000
  C   C12       1.0  0.00660  0.12017  0.85650  1.0000
  C   C13       1.0  0.99340  0.62017  0.35650  1.0000
  C   C14       1.0  0.50660  0.37983  0.35650  1.0000
  C   C15       1.0  0.50660  0.12017  0.14350  1.0000
  C   C16       1.0  0.99340  0.87983  0.14350  1.0000
  C   C17       1.0  0.08790  0.42415  0.72530  1.0000
  C   C18       1.0  0.41210  0.57585  0.72530  1.0000
  C   C19       1.0  0.41210  0.92415  0.77470  1.0000
  C   C20       1.0  0.08790  0.07585  0.77470  1.0000
  C   C21       1.0  0.91210  0.57585  0.27470  1.0000
  C   C22       1.0  0.58790  0.42415  0.27470  1.0000
  C   C23       1.0  0.58790  0.07585  0.22530  1.0000
  C   C24       1.0  0.91210  0.92415  0.22530  1.0000
  C   C25       1.0  0.90760  0.43011  0.59140  1.0000
  C   C26       1.0  0.59240  0.56989  0.59140  1.0000
  C   C27       1.0  0.59240  0.93011  0.90860  1.0000
  C   C28       1.0  0.90760  0.06989  0.90860  1.0000
  C   C29       1.0  0.09240  0.56989  0.40860  1.0000
  C   C30       1.0  0.40760  0.43011  0.40860  1.0000
  C   C31       1.0  0.40760  0.06989  0.09140  1.0000
  C   C32       1.0  0.09240  0.93011  0.09140  1.0000
  C   C33       1.0  0.98400  0.15192  0.50985  1.0000
  C   C34       1.0  0.51600  0.84808  0.50985  1.0000
  C   C35       1.0  0.51600  0.65192  0.99015  1.0000
  C   C36       1.0  0.98400  0.34808  0.99015  1.0000
  C   C37       1.0  0.01600  0.84808  0.49015  1.0000
  C   C38       1.0  0.48400  0.15192  0.49015  1.0000
  C   C39       1.0  0.48400  0.34808  0.00985  1.0000
  C   C40       1.0  0.01600  0.65192  0.00985  1.0000
  C   C41       1.0  0.95660  0.24909  0.54051  1.0000
  C   C42       1.0  0.54340  0.75091  0.54051  1.0000
  C   C43       1.0  0.54340  0.74909  0.95949  1.0000
  C   C44       1.0  0.95660  0.25091  0.95949  1.0000
  C   C45       1.0  0.04340  0.75091  0.45949  1.0000
  C   C46       1.0  0.45660  0.24909  0.45949  1.0000
  C   C47       1.0  0.45660  0.25091  0.04051  1.0000
  C   C48       1.0  0.04340  0.74909  0.04051  1.0000
  C   C49       1.0  0.85720  0.30033  0.49019  1.0000
  C   C50       1.0  0.64280  0.69967  0.49019  1.0000
  C   C51       1.0  0.64280  0.80033  0.00981  1.0000
  C   C52       1.0  0.85720  0.19967  0.00981  1.0000
  C   C53       1.0  0.14280  0.69967  0.50981  1.0000
  C   C54       1.0  0.35720  0.30033  0.50981  1.0000
  C   C55       1.0  0.35720  0.19967  0.99019  1.0000
  C   C56       1.0  0.14280  0.80033  0.99019  1.0000
  C   C57       1.0  0.83460  0.39042  0.51460  1.0000
  C   C58       1.0  0.66540  0.60958  0.51460  1.0000
  C   C59       1.0  0.66540  0.89042  0.98540  1.0000
  C   C60       1.0  0.83460  0.10958  0.98540  1.0000
  C   C61       1.0  0.16540  0.60958  0.48540  1.0000
  C   C62       1.0  0.33460  0.39042  0.48540  1.0000
  C   C63       1.0  0.33460  0.10958  0.01460  1.0000
  C   C64       1.0  0.16540  0.89042  0.01460  1.0000
  O   O29       1.0  0.03577  0.49361  0.76841  1.0000
  O   O30       1.0  0.46423  0.50639  0.76841  1.0000
  O   O31       1.0  0.46423  0.99361  0.73159  1.0000
  O   O32       1.0  0.03577  0.00639  0.73159  1.0000
  O   O33       1.0  0.96423  0.50639  0.23159  1.0000
  O   O34       1.0  0.53577  0.49361  0.23159  1.0000
  O   O35       1.0  0.53577  0.00639  0.26841  1.0000
  O   O36       1.0  0.96423  0.99361  0.26841  1.0000
  H   H1        1.0  0.09600  0.25490  0.64960  1.0000
  H   H2        1.0  0.40400  0.74510  0.64960  1.0000
  H   H3        1.0  0.40400  0.75490  0.85040  1.0000
  H   H4        1.0  0.09600  0.24510  0.85040  1.0000
  H   H5        1.0  0.90400  0.74510  0.35040  1.0000
  H   H6        1.0  0.59600  0.25490  0.35040  1.0000
  H   H7        1.0  0.59600  0.24510  0.14960  1.0000
  H   H8        1.0  0.90400  0.75490  0.14960  1.0000
  H   H9        1.0  0.80400  0.27490  0.44200  1.0000
  H   H10       1.0  0.69600  0.72510  0.44200  1.0000
  H   H11       1.0  0.69600  0.77490  0.05800  1.0000
  H   H12       1.0  0.80400  0.22510  0.05800  1.0000
  H   H13       1.0  0.19600  0.72510  0.55800  1.0000
  H   H14       1.0  0.30400  0.27490  0.55800  1.0000
  H   H15       1.0  0.30400  0.22510  0.94200  1.0000
  H   H16       1.0  0.19600  0.77490  0.94200  1.0000
  H   H17       1.0  0.88100  0.48800  0.61700  1.0000
  H   H18       1.0  0.61900  0.51200  0.61700  1.0000
  H   H19       1.0  0.61900  0.98800  0.88300  1.0000
  H   H20       1.0  0.88100  0.01200  0.88300  1.0000
  H   H21       1.0  0.11900  0.51200  0.38300  1.0000
  H   H22       1.0  0.38100  0.48800  0.38300  1.0000
  H   H23       1.0  0.38100  0.01200  0.11700  1.0000
  H   H24       1.0  0.11900  0.98800  0.11700  1.0000
  H   H25       1.0  0.76900  0.42200  0.47800  1.0000
  H   H26       1.0  0.73100  0.57800  0.47800  1.0000
  H   H27       1.0  0.73100  0.92200  0.02200  1.0000
  H   H28       1.0  0.76900  0.07800  0.02200  1.0000
  H   H29       1.0  0.23100  0.57800  0.52200  1.0000
  H   H30       1.0  0.26900  0.42200  0.52200  1.0000
  H   H31       1.0  0.26900  0.07800  0.97800  1.0000
  H   H32       1.0  0.23100  0.92200  0.97800  1.0000
  H   H33       1.0  0.17600  0.99100  0.36700  1.0000
  H   H34       1.0  0.32400  0.00900  0.36700  1.0000
  H   H35       1.0  0.32400  0.49100  0.13300  1.0000
  H   H36       1.0  0.17600  0.50900  0.13300  1.0000
  H   H37       1.0  0.82400  0.00900  0.63300  1.0000
  H   H38       1.0  0.67600  0.99100  0.63300  1.0000
  H   H39       1.0  0.67600  0.50900  0.86700  1.0000
  H   H40       1.0  0.82400  0.49100  0.86700  1.0000
