data_image0
_chemical_formula_structural       Cd20C16H8C8H8C16H8C8H8C24H8C16H8C24H8C8H8C16H8C8H8C24H8C8H8C8H8C8H8N48O64
_chemical_formula_sum              "Cd20 C192 H112 N48 O64"
_cell_length_a       18.349
_cell_length_b       20.616
_cell_length_c       17.669
_cell_angle_alpha    90
_cell_angle_beta     102.256
_cell_angle_gamma    90

_space_group_name_H-M_alt    "P 1"
_space_group_IT_number       1

loop_
  _space_group_symop_operation_xyz
  'x, y, z'

loop_
  _atom_site_type_symbol
  _atom_site_label
  _atom_site_symmetry_multiplicity
  _atom_site_fract_x
  _atom_site_fract_y
  _atom_site_fract_z
  _atom_site_occupancy
  Cd  Cd1       1.0  0.00000  0.54289  0.25000  1.0000
  Cd  Cd2       1.0  0.50000  0.04289  0.25000  1.0000
  Cd  Cd3       1.0  0.00000  0.45711  0.75000  1.0000
  Cd  Cd4       1.0  0.50000  0.95711  0.75000  1.0000
  Cd  Cd5       1.0  0.18511  0.58993  0.20087  1.0000
  Cd  Cd6       1.0  0.81489  0.58993  0.29913  1.0000
  Cd  Cd7       1.0  0.68511  0.08993  0.20087  1.0000
  Cd  Cd8       1.0  0.31489  0.08993  0.29913  1.0000
  Cd  Cd9       1.0  0.81489  0.41007  0.79913  1.0000
  Cd  Cd10      1.0  0.18511  0.41007  0.70087  1.0000
  Cd  Cd11      1.0  0.31489  0.91007  0.79913  1.0000
  Cd  Cd12      1.0  0.68511  0.91007  0.70087  1.0000
  Cd  Cd13      1.0  0.25277  0.48131  0.07250  1.0000
  Cd  Cd14      1.0  0.74723  0.48131  0.42750  1.0000
  Cd  Cd15      1.0  0.75277  0.98131  0.07250  1.0000
  Cd  Cd16      1.0  0.24723  0.98131  0.42750  1.0000
  Cd  Cd17      1.0  0.74723  0.51869  0.92750  1.0000
  Cd  Cd18      1.0  0.25277  0.51869  0.57250  1.0000
  Cd  Cd19      1.0  0.24723  0.01869  0.92750  1.0000
  Cd  Cd20      1.0  0.75277  0.01869  0.57250  1.0000
  C   C1        1.0  0.90610  0.82610  0.11620  1.0000
  C   C2        1.0  0.09390  0.82610  0.38380  1.0000
  C   C3        1.0  0.40610  0.32610  0.11620  1.0000
  C   C4        1.0  0.59390  0.32610  0.38380  1.0000
  C   C5        1.0  0.09390  0.17390  0.88380  1.0000
  C   C6        1.0  0.90610  0.17390  0.61620  1.0000
  C   C7        1.0  0.59390  0.67390  0.88380  1.0000
  C   C8        1.0  0.40610  0.67390  0.61620  1.0000
  C   C9        1.0  0.88640  0.76250  0.12150  1.0000
  C   C10       1.0  0.11360  0.76250  0.37850  1.0000
  C   C11       1.0  0.38640  0.26250  0.12150  1.0000
  C   C12       1.0  0.61360  0.26250  0.37850  1.0000
  C   C13       1.0  0.11360  0.23750  0.87850  1.0000
  C   C14       1.0  0.88640  0.23750  0.62150  1.0000
  C   C15       1.0  0.61360  0.73750  0.87850  1.0000
  C   C16       1.0  0.38640  0.73750  0.62150  1.0000
  H   H1        1.0  0.83640  0.75090  0.11290  1.0000
  H   H2        1.0  0.16360  0.75090  0.38710  1.0000
  H   H3        1.0  0.33640  0.25090  0.11290  1.0000
  H   H4        1.0  0.66360  0.25090  0.38710  1.0000
  H   H5        1.0  0.16360  0.24910  0.88710  1.0000
  H   H6        1.0  0.83640  0.24910  0.61290  1.0000
  H   H7        1.0  0.66360  0.74910  0.88710  1.0000
  H   H8        1.0  0.33640  0.74910  0.61290  1.0000
  C   C17       1.0  0.94130  0.71560  0.13970  1.0000
  C   C18       1.0  0.05870  0.71560  0.36030  1.0000
  C   C19       1.0  0.44130  0.21560  0.13970  1.0000
  C   C20       1.0  0.55870  0.21560  0.36030  1.0000
  C   C21       1.0  0.05870  0.28440  0.86030  1.0000
  C   C22       1.0  0.94130  0.28440  0.63970  1.0000
  C   C23       1.0  0.55870  0.78440  0.86030  1.0000
  C   C24       1.0  0.44130  0.78440  0.63970  1.0000
  H   H9        1.0  0.92790  0.67220  0.14080  1.0000
  H   H10       1.0  0.07210  0.67220  0.35920  1.0000
  H   H11       1.0  0.42790  0.17220  0.14080  1.0000
  H   H12       1.0  0.57210  0.17220  0.35920  1.0000
  H   H13       1.0  0.07210  0.32780  0.85920  1.0000
  H   H14       1.0  0.92790  0.32780  0.64080  1.0000
  H   H15       1.0  0.57210  0.82780  0.85920  1.0000
  H   H16       1.0  0.42790  0.82780  0.64080  1.0000
  C   C25       1.0  0.01630  0.73280  0.15630  1.0000
  C   C26       1.0  0.98370  0.73280  0.34370  1.0000
  C   C27       1.0  0.51630  0.23280  0.15630  1.0000
  C   C28       1.0  0.48370  0.23280  0.34370  1.0000
  C   C29       1.0  0.98370  0.26720  0.84370  1.0000
  C   C30       1.0  0.01630  0.26720  0.65630  1.0000
  C   C31       1.0  0.48370  0.76720  0.84370  1.0000
  C   C32       1.0  0.51630  0.76720  0.65630  1.0000
  C   C33       1.0  0.03580  0.79690  0.15330  1.0000
  C   C34       1.0  0.96420  0.79690  0.34670  1.0000
  C   C35       1.0  0.53580  0.29690  0.15330  1.0000
  C   C36       1.0  0.46420  0.29690  0.34670  1.0000
  C   C37       1.0  0.96420  0.20310  0.84670  1.0000
  C   C38       1.0  0.03580  0.20310  0.65330  1.0000
  C   C39       1.0  0.46420  0.70310  0.84670  1.0000
  C   C40       1.0  0.53580  0.70310  0.65330  1.0000
  H   H17       1.0  0.08570  0.80900  0.16600  1.0000
  H   H18       1.0  0.91430  0.80900  0.33400  1.0000
  H   H19       1.0  0.58570  0.30900  0.16600  1.0000
  H   H20       1.0  0.41430  0.30900  0.33400  1.0000
  H   H21       1.0  0.91430  0.19100  0.83400  1.0000
  H   H22       1.0  0.08570  0.19100  0.66600  1.0000
  H   H23       1.0  0.41430  0.69100  0.83400  1.0000
  H   H24       1.0  0.58570  0.69100  0.66600  1.0000
  C   C41       1.0  0.98080  0.84390  0.13140  1.0000
  C   C42       1.0  0.01920  0.84390  0.36860  1.0000
  C   C43       1.0  0.48080  0.34390  0.13140  1.0000
  C   C44       1.0  0.51920  0.34390  0.36860  1.0000
  C   C45       1.0  0.01920  0.15610  0.86860  1.0000
  C   C46       1.0  0.98080  0.15610  0.63140  1.0000
  C   C47       1.0  0.51920  0.65610  0.86860  1.0000
  C   C48       1.0  0.48080  0.65610  0.63140  1.0000
  H   H25       1.0  0.99410  0.88700  0.12690  1.0000
  H   H26       1.0  0.00590  0.88700  0.37310  1.0000
  H   H27       1.0  0.49410  0.38700  0.12690  1.0000
  H   H28       1.0  0.50590  0.38700  0.37310  1.0000
  H   H29       1.0  0.00590  0.11300  0.87310  1.0000
  H   H30       1.0  0.99410  0.11300  0.62690  1.0000
  H   H31       1.0  0.50590  0.61300  0.87310  1.0000
  H   H32       1.0  0.49410  0.61300  0.62690  1.0000
  C   C49       1.0  0.84790  0.87830  0.09730  1.0000
  C   C50       1.0  0.15210  0.87830  0.40270  1.0000
  C   C51       1.0  0.34790  0.37830  0.09730  1.0000
  C   C52       1.0  0.65210  0.37830  0.40270  1.0000
  C   C53       1.0  0.15210  0.12170  0.90270  1.0000
  C   C54       1.0  0.84790  0.12170  0.59730  1.0000
  C   C55       1.0  0.65210  0.62170  0.90270  1.0000
  C   C56       1.0  0.34790  0.62170  0.59730  1.0000
  C   C57       1.0  0.07450  0.68130  0.17920  1.0000
  C   C58       1.0  0.92550  0.68130  0.32080  1.0000
  C   C59       1.0  0.57450  0.18130  0.17920  1.0000
  C   C60       1.0  0.42550  0.18130  0.32080  1.0000
  C   C61       1.0  0.92550  0.31870  0.82080  1.0000
  C   C62       1.0  0.07450  0.31870  0.67920  1.0000
  C   C63       1.0  0.42550  0.81870  0.82080  1.0000
  C   C64       1.0  0.57450  0.81870  0.67920  1.0000
  C   C65       1.0  0.46100  0.62330  0.24400  1.0000
  C   C66       1.0  0.53900  0.62330  0.25600  1.0000
  C   C67       1.0  0.96100  0.12330  0.24400  1.0000
  C   C68       1.0  0.03900  0.12330  0.25600  1.0000
  C   C69       1.0  0.53900  0.37670  0.75600  1.0000
  C   C70       1.0  0.46100  0.37670  0.74400  1.0000
  C   C71       1.0  0.03900  0.87670  0.75600  1.0000
  C   C72       1.0  0.96100  0.87670  0.74400  1.0000
  H   H33       1.0  0.43530  0.66240  0.24120  1.0000
  H   H34       1.0  0.56470  0.66240  0.25880  1.0000
  H   H35       1.0  0.93530  0.16240  0.24120  1.0000
  H   H36       1.0  0.06470  0.16240  0.25880  1.0000
  H   H37       1.0  0.56470  0.33760  0.75880  1.0000
  H   H38       1.0  0.43530  0.33760  0.74120  1.0000
  H   H39       1.0  0.06470  0.83760  0.75880  1.0000
  H   H40       1.0  0.93530  0.83760  0.74120  1.0000
  C   C73       1.0  0.42230  0.56540  0.23620  1.0000
  C   C74       1.0  0.57770  0.56540  0.26380  1.0000
  C   C75       1.0  0.92230  0.06540  0.23620  1.0000
  C   C76       1.0  0.07770  0.06540  0.26380  1.0000
  C   C77       1.0  0.57770  0.43460  0.76380  1.0000
  C   C78       1.0  0.42230  0.43460  0.73620  1.0000
  C   C79       1.0  0.07770  0.93460  0.76380  1.0000
  C   C80       1.0  0.92230  0.93460  0.73620  1.0000
  C   C81       1.0  0.46130  0.50820  0.24220  1.0000
  C   C82       1.0  0.53870  0.50820  0.25780  1.0000
  C   C83       1.0  0.96130  0.00820  0.24220  1.0000
  C   C84       1.0  0.03870  0.00820  0.25780  1.0000
  C   C85       1.0  0.53870  0.49180  0.75780  1.0000
  C   C86       1.0  0.46130  0.49180  0.74220  1.0000
  C   C87       1.0  0.03870  0.99180  0.75780  1.0000
  C   C88       1.0  0.96130  0.99180  0.74220  1.0000
  H   H41       1.0  0.43560  0.46900  0.23580  1.0000
  H   H42       1.0  0.56440  0.46900  0.26420  1.0000
  H   H43       1.0  0.93560  0.96900  0.23580  1.0000
  H   H44       1.0  0.06440  0.96900  0.26420  1.0000
  H   H45       1.0  0.56440  0.53100  0.76420  1.0000
  H   H46       1.0  0.43560  0.53100  0.73580  1.0000
  H   H47       1.0  0.06440  0.03100  0.76420  1.0000
  H   H48       1.0  0.93560  0.03100  0.73580  1.0000
  C   C89       1.0  0.33820  0.56690  0.22200  1.0000
  C   C90       1.0  0.66180  0.56690  0.27800  1.0000
  C   C91       1.0  0.83820  0.06690  0.22200  1.0000
  C   C92       1.0  0.16180  0.06690  0.27800  1.0000
  C   C93       1.0  0.66180  0.43310  0.77800  1.0000
  C   C94       1.0  0.33820  0.43310  0.72200  1.0000
  C   C95       1.0  0.16180  0.93310  0.77800  1.0000
  C   C96       1.0  0.83820  0.93310  0.72200  1.0000
  C   C97       1.0  0.25050  0.68510  0.02190  1.0000
  C   C98       1.0  0.74950  0.68510  0.47810  1.0000
  C   C99       1.0  0.75050  0.18510  0.02190  1.0000
  C   C100      1.0  0.24950  0.18510  0.47810  1.0000
  C   C101      1.0  0.74950  0.31490  0.97810  1.0000
  C   C102      1.0  0.25050  0.31490  0.52190  1.0000
  C   C103      1.0  0.24950  0.81490  0.97810  1.0000
  C   C104      1.0  0.75050  0.81490  0.52190  1.0000
  C   C105      1.0  0.19000  0.72390  0.02350  1.0000
  C   C106      1.0  0.81000  0.72390  0.47650  1.0000
  C   C107      1.0  0.69000  0.22390  0.02350  1.0000
  C   C108      1.0  0.31000  0.22390  0.47650  1.0000
  C   C109      1.0  0.81000  0.27610  0.97650  1.0000
  C   C110      1.0  0.19000  0.27610  0.52350  1.0000
  C   C111      1.0  0.31000  0.77610  0.97650  1.0000
  C   C112      1.0  0.69000  0.77610  0.52350  1.0000
  H   H49       1.0  0.14870  0.70650  0.03890  1.0000
  H   H50       1.0  0.85130  0.70650  0.46110  1.0000
  H   H51       1.0  0.64870  0.20650  0.03890  1.0000
  H   H52       1.0  0.35130  0.20650  0.46110  1.0000
  H   H53       1.0  0.85130  0.29350  0.96110  1.0000
  H   H54       1.0  0.14870  0.29350  0.53890  1.0000
  H   H55       1.0  0.35130  0.79350  0.96110  1.0000
  H   H56       1.0  0.64870  0.79350  0.53890  1.0000
  C   C113      1.0  0.31040  0.71180  0.99740  1.0000
  C   C114      1.0  0.68960  0.71180  0.50260  1.0000
  C   C115      1.0  0.81040  0.21180  0.99740  1.0000
  C   C116      1.0  0.18960  0.21180  0.50260  1.0000
  C   C117      1.0  0.68960  0.28820  0.00260  1.0000
  C   C118      1.0  0.31040  0.28820  0.49740  1.0000
  C   C119      1.0  0.18960  0.78820  0.00260  1.0000
  C   C120      1.0  0.81040  0.78820  0.49740  1.0000
  H   H57       1.0  0.35150  0.68610  0.99500  1.0000
  H   H58       1.0  0.64850  0.68610  0.50500  1.0000
  H   H59       1.0  0.85150  0.18610  0.99500  1.0000
  H   H60       1.0  0.14850  0.18610  0.50500  1.0000
  H   H61       1.0  0.64850  0.31390  0.00500  1.0000
  H   H62       1.0  0.35150  0.31390  0.49500  1.0000
  H   H63       1.0  0.14850  0.81390  0.00500  1.0000
  H   H64       1.0  0.85150  0.81390  0.49500  1.0000
  C   C121      1.0  0.24980  0.61450  0.04400  1.0000
  C   C122      1.0  0.75020  0.61450  0.45600  1.0000
  C   C123      1.0  0.74980  0.11450  0.04400  1.0000
  C   C124      1.0  0.25020  0.11450  0.45600  1.0000
  C   C125      1.0  0.75020  0.38550  0.95600  1.0000
  C   C126      1.0  0.24980  0.38550  0.54400  1.0000
  C   C127      1.0  0.25020  0.88550  0.95600  1.0000
  C   C128      1.0  0.74980  0.88550  0.54400  1.0000
  C   C129      1.0  0.22520  0.56170  0.38960  1.0000
  C   C130      1.0  0.77480  0.56170  0.11040  1.0000
  C   C131      1.0  0.72520  0.06170  0.38960  1.0000
  C   C132      1.0  0.27480  0.06170  0.11040  1.0000
  C   C133      1.0  0.77480  0.43830  0.61040  1.0000
  C   C134      1.0  0.22520  0.43830  0.88960  1.0000
  C   C135      1.0  0.27480  0.93830  0.61040  1.0000
  C   C136      1.0  0.72520  0.93830  0.88960  1.0000
  H   H65       1.0  0.27530  0.57190  0.39460  1.0000
  H   H66       1.0  0.72470  0.57190  0.10540  1.0000
  H   H67       1.0  0.77530  0.07190  0.39460  1.0000
  H   H68       1.0  0.22470  0.07190  0.10540  1.0000
  H   H69       1.0  0.72470  0.42810  0.60540  1.0000
  H   H70       1.0  0.27530  0.42810  0.89460  1.0000
  H   H71       1.0  0.22470  0.92810  0.60540  1.0000
  H   H72       1.0  0.77530  0.92810  0.89460  1.0000
  C   C137      1.0  0.12420  0.53240  0.41460  1.0000
  C   C138      1.0  0.87580  0.53240  0.08540  1.0000
  C   C139      1.0  0.62420  0.03240  0.41460  1.0000
  C   C140      1.0  0.37580  0.03240  0.08540  1.0000
  C   C141      1.0  0.87580  0.46760  0.58540  1.0000
  C   C142      1.0  0.12420  0.46760  0.91460  1.0000
  C   C143      1.0  0.37580  0.96760  0.58540  1.0000
  C   C144      1.0  0.62420  0.96760  0.91460  1.0000
  H   H73       1.0  0.08850  0.51740  0.44070  1.0000
  H   H74       1.0  0.91150  0.51740  0.05930  1.0000
  H   H75       1.0  0.58850  0.01740  0.44070  1.0000
  H   H76       1.0  0.41150  0.01740  0.05930  1.0000
  H   H77       1.0  0.91150  0.48260  0.55930  1.0000
  H   H78       1.0  0.08850  0.48260  0.94070  1.0000
  H   H79       1.0  0.41150  0.98260  0.55930  1.0000
  H   H80       1.0  0.58850  0.98260  0.94070  1.0000
  C   C145      1.0  0.04230  0.41500  0.14310  1.0000
  C   C146      1.0  0.95770  0.41500  0.35690  1.0000
  C   C147      1.0  0.54230  0.91500  0.14310  1.0000
  C   C148      1.0  0.45770  0.91500  0.35690  1.0000
  C   C149      1.0  0.95770  0.58500  0.85690  1.0000
  C   C150      1.0  0.04230  0.58500  0.64310  1.0000
  C   C151      1.0  0.45770  0.08500  0.85690  1.0000
  C   C152      1.0  0.54230  0.08500  0.64310  1.0000
  C   C153      1.0  0.09870  0.40130  0.10300  1.0000
  C   C154      1.0  0.90130  0.40130  0.39700  1.0000
  C   C155      1.0  0.59870  0.90130  0.10300  1.0000
  C   C156      1.0  0.40130  0.90130  0.39700  1.0000
  C   C157      1.0  0.90130  0.59870  0.89700  1.0000
  C   C158      1.0  0.09870  0.59870  0.60300  1.0000
  C   C159      1.0  0.40130  0.09870  0.89700  1.0000
  C   C160      1.0  0.59870  0.09870  0.60300  1.0000
  C   C161      1.0  0.09860  0.34430  0.06130  1.0000
  C   C162      1.0  0.90140  0.34430  0.43870  1.0000
  C   C163      1.0  0.59860  0.84430  0.06130  1.0000
  C   C164      1.0  0.40140  0.84430  0.43870  1.0000
  C   C165      1.0  0.90140  0.65570  0.93870  1.0000
  C   C166      1.0  0.09860  0.65570  0.56130  1.0000
  C   C167      1.0  0.40140  0.15570  0.93870  1.0000
  C   C168      1.0  0.59860  0.15570  0.56130  1.0000
  H   H81       1.0  0.13520  0.33560  0.03350  1.0000
  H   H82       1.0  0.86480  0.33560  0.46650  1.0000
  H   H83       1.0  0.63520  0.83560  0.03350  1.0000
  H   H84       1.0  0.36480  0.83560  0.46650  1.0000
  H   H85       1.0  0.86480  0.66440  0.96650  1.0000
  H   H86       1.0  0.13520  0.66440  0.53350  1.0000
  H   H87       1.0  0.36480  0.16440  0.96650  1.0000
  H   H88       1.0  0.63520  0.16440  0.53350  1.0000
  C   C169      1.0  0.04230  0.30140  0.06300  1.0000
  C   C170      1.0  0.95770  0.30140  0.43700  1.0000
  C   C171      1.0  0.54230  0.80140  0.06300  1.0000
  C   C172      1.0  0.45770  0.80140  0.43700  1.0000
  C   C173      1.0  0.95770  0.69860  0.93700  1.0000
  C   C174      1.0  0.04230  0.69860  0.56300  1.0000
  C   C175      1.0  0.45770  0.19860  0.93700  1.0000
  C   C176      1.0  0.54230  0.19860  0.56300  1.0000
  H   H89       1.0  0.04080  0.26270  0.03560  1.0000
  H   H90       1.0  0.95920  0.26270  0.46440  1.0000
  H   H91       1.0  0.54080  0.76270  0.03560  1.0000
  H   H92       1.0  0.45920  0.76270  0.46440  1.0000
  H   H93       1.0  0.95920  0.73730  0.96440  1.0000
  H   H94       1.0  0.04080  0.73730  0.53560  1.0000
  H   H95       1.0  0.45920  0.23730  0.96440  1.0000
  H   H96       1.0  0.54080  0.23730  0.53560  1.0000
  C   C177      1.0  0.98700  0.31370  0.10420  1.0000
  C   C178      1.0  0.01300  0.31370  0.39580  1.0000
  C   C179      1.0  0.48700  0.81370  0.10420  1.0000
  C   C180      1.0  0.51300  0.81370  0.39580  1.0000
  C   C181      1.0  0.01300  0.68630  0.89580  1.0000
  C   C182      1.0  0.98700  0.68630  0.60420  1.0000
  C   C183      1.0  0.51300  0.18630  0.89580  1.0000
  C   C184      1.0  0.48700  0.18630  0.60420  1.0000
  H   H97       1.0  0.95070  0.28230  0.10420  1.0000
  H   H98       1.0  0.04930  0.28230  0.39580  1.0000
  H   H99       1.0  0.45070  0.78230  0.10420  1.0000
  H   H100      1.0  0.54930  0.78230  0.39580  1.0000
  H   H101      1.0  0.04930  0.71770  0.89580  1.0000
  H   H102      1.0  0.95070  0.71770  0.60420  1.0000
  H   H103      1.0  0.54930  0.21770  0.89580  1.0000
  H   H104      1.0  0.45070  0.21770  0.60420  1.0000
  C   C185      1.0  0.98360  0.37040  0.14510  1.0000
  C   C186      1.0  0.01640  0.37040  0.35490  1.0000
  C   C187      1.0  0.48360  0.87040  0.14510  1.0000
  C   C188      1.0  0.51640  0.87040  0.35490  1.0000
  C   C189      1.0  0.01640  0.62960  0.85490  1.0000
  C   C190      1.0  0.98360  0.62960  0.64510  1.0000
  C   C191      1.0  0.51640  0.12960  0.85490  1.0000
  C   C192      1.0  0.48360  0.12960  0.64510  1.0000
  H   H105      1.0  0.94600  0.37880  0.17180  1.0000
  H   H106      1.0  0.05400  0.37880  0.32820  1.0000
  H   H107      1.0  0.44600  0.87880  0.17180  1.0000
  H   H108      1.0  0.55400  0.87880  0.32820  1.0000
  H   H109      1.0  0.05400  0.62120  0.82820  1.0000
  H   H110      1.0  0.94600  0.62120  0.67180  1.0000
  H   H111      1.0  0.55400  0.12120  0.82820  1.0000
  H   H112      1.0  0.44600  0.12120  0.67180  1.0000
  N   N1        1.0  0.10880  0.54760  0.34100  1.0000
  N   N2        1.0  0.89120  0.54760  0.15900  1.0000
  N   N3        1.0  0.60880  0.04760  0.34100  1.0000
  N   N4        1.0  0.39120  0.04760  0.15900  1.0000
  N   N5        1.0  0.89120  0.45240  0.65900  1.0000
  N   N6        1.0  0.10880  0.45240  0.84100  1.0000
  N   N7        1.0  0.39120  0.95240  0.65900  1.0000
  N   N8        1.0  0.60880  0.95240  0.84100  1.0000
  N   N9        1.0  0.17560  0.56660  0.32400  1.0000
  N   N10       1.0  0.82440  0.56660  0.17600  1.0000
  N   N11       1.0  0.67560  0.06660  0.32400  1.0000
  N   N12       1.0  0.32440  0.06660  0.17600  1.0000
  N   N13       1.0  0.82440  0.43340  0.67600  1.0000
  N   N14       1.0  0.17560  0.43340  0.82400  1.0000
  N   N15       1.0  0.32440  0.93340  0.67600  1.0000
  N   N16       1.0  0.67560  0.93340  0.82400  1.0000
  N   N17       1.0  0.19600  0.54030  0.44890  1.0000
  N   N18       1.0  0.80400  0.54030  0.05110  1.0000
  N   N19       1.0  0.69600  0.04030  0.44890  1.0000
  N   N20       1.0  0.30400  0.04030  0.05110  1.0000
  N   N21       1.0  0.80400  0.45970  0.55110  1.0000
  N   N22       1.0  0.19600  0.45970  0.94890  1.0000
  N   N23       1.0  0.30400  0.95970  0.55110  1.0000
  N   N24       1.0  0.69600  0.95970  0.94890  1.0000
  N   N25       1.0  0.05700  0.47290  0.17720  1.0000
  N   N26       1.0  0.94300  0.47290  0.32280  1.0000
  N   N27       1.0  0.55700  0.97290  0.17720  1.0000
  N   N28       1.0  0.44300  0.97290  0.32280  1.0000
  N   N29       1.0  0.94300  0.52710  0.82280  1.0000
  N   N30       1.0  0.05700  0.52710  0.67720  1.0000
  N   N31       1.0  0.44300  0.02710  0.82280  1.0000
  N   N32       1.0  0.55700  0.02710  0.67720  1.0000
  N   N33       1.0  0.12120  0.49400  0.15860  1.0000
  N   N34       1.0  0.87880  0.49400  0.34140  1.0000
  N   N35       1.0  0.62120  0.99400  0.15860  1.0000
  N   N36       1.0  0.37880  0.99400  0.34140  1.0000
  N   N37       1.0  0.87880  0.50600  0.84140  1.0000
  N   N38       1.0  0.12120  0.50600  0.65860  1.0000
  N   N39       1.0  0.37880  0.00600  0.84140  1.0000
  N   N40       1.0  0.62120  0.00600  0.65860  1.0000
  N   N41       1.0  0.14650  0.45260  0.11420  1.0000
  N   N42       1.0  0.85350  0.45260  0.38580  1.0000
  N   N43       1.0  0.64650  0.95260  0.11420  1.0000
  N   N44       1.0  0.35350  0.95260  0.38580  1.0000
  N   N45       1.0  0.85350  0.54740  0.88580  1.0000
  N   N46       1.0  0.14650  0.54740  0.61420  1.0000
  N   N47       1.0  0.35350  0.04740  0.88580  1.0000
  N   N48       1.0  0.64650  0.04740  0.61420  1.0000
  O   O1        1.0  0.13580  0.93060  0.42920  1.0000
  O   O2        1.0  0.86420  0.93060  0.07080  1.0000
  O   O3        1.0  0.63580  0.43060  0.42920  1.0000
  O   O4        1.0  0.36420  0.43060  0.07080  1.0000
  O   O5        1.0  0.86420  0.06940  0.57080  1.0000
  O   O6        1.0  0.13580  0.06940  0.92920  1.0000
  O   O7        1.0  0.36420  0.56940  0.57080  1.0000
  O   O8        1.0  0.63580  0.56940  0.92920  1.0000
  O   O9        1.0  0.21440  0.86740  0.38860  1.0000
  O   O10       1.0  0.78560  0.86740  0.11140  1.0000
  O   O11       1.0  0.71440  0.36740  0.38860  1.0000
  O   O12       1.0  0.28560  0.36740  0.11140  1.0000
  O   O13       1.0  0.78560  0.13260  0.61140  1.0000
  O   O14       1.0  0.21440  0.13260  0.88860  1.0000
  O   O15       1.0  0.28560  0.63260  0.61140  1.0000
  O   O16       1.0  0.71440  0.63260  0.88860  1.0000
  O   O17       1.0  0.14210  0.69830  0.19200  1.0000
  O   O18       1.0  0.85790  0.69830  0.30800  1.0000
  O   O19       1.0  0.64210  0.19830  0.19200  1.0000
  O   O20       1.0  0.35790  0.19830  0.30800  1.0000
  O   O21       1.0  0.85790  0.30170  0.80800  1.0000
  O   O22       1.0  0.14210  0.30170  0.69200  1.0000
  O   O23       1.0  0.35790  0.80170  0.80800  1.0000
  O   O24       1.0  0.64210  0.80170  0.69200  1.0000
  O   O25       1.0  0.05420  0.62360  0.18300  1.0000
  O   O26       1.0  0.94580  0.62360  0.31700  1.0000
  O   O27       1.0  0.55420  0.12360  0.18300  1.0000
  O   O28       1.0  0.44580  0.12360  0.31700  1.0000
  O   O29       1.0  0.94580  0.37640  0.81700  1.0000
  O   O30       1.0  0.05420  0.37640  0.68300  1.0000
  O   O31       1.0  0.44580  0.87640  0.81700  1.0000
  O   O32       1.0  0.55420  0.87640  0.68300  1.0000
  O   O33       1.0  0.30180  0.51520  0.20320  1.0000
  O   O34       1.0  0.69820  0.51520  0.29680  1.0000
  O   O35       1.0  0.80180  0.01520  0.20320  1.0000
  O   O36       1.0  0.19820  0.01520  0.29680  1.0000
  O   O37       1.0  0.69820  0.48480  0.79680  1.0000
  O   O38       1.0  0.30180  0.48480  0.70320  1.0000
  O   O39       1.0  0.19820  0.98480  0.79680  1.0000
  O   O40       1.0  0.80180  0.98480  0.70320  1.0000
  O   O41       1.0  0.30710  0.62020  0.23270  1.0000
  O   O42       1.0  0.69290  0.62020  0.26730  1.0000
  O   O43       1.0  0.80710  0.12020  0.23270  1.0000
  O   O44       1.0  0.19290  0.12020  0.26730  1.0000
  O   O45       1.0  0.69290  0.37980  0.76730  1.0000
  O   O46       1.0  0.30710  0.37980  0.73270  1.0000
  O   O47       1.0  0.19290  0.87980  0.76730  1.0000
  O   O48       1.0  0.80710  0.87980  0.73270  1.0000
  O   O49       1.0  0.30240  0.57890  0.03440  1.0000
  O   O50       1.0  0.69760  0.57890  0.46560  1.0000
  O   O51       1.0  0.80240  0.07890  0.03440  1.0000
  O   O52       1.0  0.19760  0.07890  0.46560  1.0000
  O   O53       1.0  0.69760  0.42110  0.96560  1.0000
  O   O54       1.0  0.30240  0.42110  0.53440  1.0000
  O   O55       1.0  0.19760  0.92110  0.96560  1.0000
  O   O56       1.0  0.80240  0.92110  0.53440  1.0000
  O   O57       1.0  0.19610  0.59313  0.07120  1.0000
  O   O58       1.0  0.80390  0.59313  0.42880  1.0000
  O   O59       1.0  0.69610  0.09313  0.07120  1.0000
  O   O60       1.0  0.30390  0.09313  0.42880  1.0000
  O   O61       1.0  0.80390  0.40687  0.92880  1.0000
  O   O62       1.0  0.19610  0.40687  0.57120  1.0000
  O   O63       1.0  0.30390  0.90687  0.92880  1.0000
  O   O64       1.0  0.69610  0.90687  0.57120  1.0000
