data_image0
_chemical_formula_structural       Mn16O32C8O8C8O16C8H8O8C24O8C16H8C24H8C16H8C8H8C8H8O8C24H24
_chemical_formula_sum              "Mn16 O80 C144 H72"
_cell_length_a       30.577
_cell_length_b       13.818
_cell_length_c       16.241
_cell_angle_alpha    90
_cell_angle_beta     115.81
_cell_angle_gamma    90

_space_group_name_H-M_alt    "P 1"
_space_group_IT_number       1

loop_
  _space_group_symop_operation_xyz
  'x, y, z'

loop_
  _atom_site_type_symbol
  _atom_site_label
  _atom_site_symmetry_multiplicity
  _atom_site_fract_x
  _atom_site_fract_y
  _atom_site_fract_z
  _atom_site_occupancy
  Mn  Mn1       1.0  0.15163  0.44344  0.48858  1.0000
  Mn  Mn2       1.0  0.84837  0.44344  0.01142  1.0000
  Mn  Mn3       1.0  0.65163  0.94344  0.48858  1.0000
  Mn  Mn4       1.0  0.34837  0.94344  0.01142  1.0000
  Mn  Mn5       1.0  0.84837  0.55656  0.51142  1.0000
  Mn  Mn6       1.0  0.15163  0.55656  0.98858  1.0000
  Mn  Mn7       1.0  0.34837  0.05656  0.51142  1.0000
  Mn  Mn8       1.0  0.65163  0.05656  0.98858  1.0000
  Mn  Mn9       1.0  0.14793  0.47027  0.71392  1.0000
  Mn  Mn10      1.0  0.85207  0.47027  0.78608  1.0000
  Mn  Mn11      1.0  0.64793  0.97027  0.71392  1.0000
  Mn  Mn12      1.0  0.35207  0.97027  0.78608  1.0000
  Mn  Mn13      1.0  0.85207  0.52973  0.28608  1.0000
  Mn  Mn14      1.0  0.14793  0.52973  0.21392  1.0000
  Mn  Mn15      1.0  0.35207  0.02973  0.28608  1.0000
  Mn  Mn16      1.0  0.64793  0.02973  0.21392  1.0000
  O   O1        1.0  0.85698  0.43850  0.40190  1.0000
  O   O2        1.0  0.14302  0.43850  0.09810  1.0000
  O   O3        1.0  0.35698  0.93850  0.40190  1.0000
  O   O4        1.0  0.64302  0.93850  0.09810  1.0000
  O   O5        1.0  0.14302  0.56150  0.59810  1.0000
  O   O6        1.0  0.85698  0.56150  0.90190  1.0000
  O   O7        1.0  0.64302  0.06150  0.59810  1.0000
  O   O8        1.0  0.35698  0.06150  0.90190  1.0000
  O   O9        1.0  0.88067  0.42440  0.22710  1.0000
  O   O10       1.0  0.11933  0.42440  0.27290  1.0000
  O   O11       1.0  0.38067  0.92440  0.22710  1.0000
  O   O12       1.0  0.61933  0.92440  0.27290  1.0000
  O   O13       1.0  0.11933  0.57560  0.77290  1.0000
  O   O14       1.0  0.88067  0.57560  0.72710  1.0000
  O   O15       1.0  0.61933  0.07560  0.77290  1.0000
  O   O16       1.0  0.38067  0.07560  0.72710  1.0000
  O   O17       1.0  0.08098  0.40850  0.62340  1.0000
  O   O18       1.0  0.91902  0.40850  0.87660  1.0000
  O   O19       1.0  0.58098  0.90850  0.62340  1.0000
  O   O20       1.0  0.41902  0.90850  0.87660  1.0000
  O   O21       1.0  0.91902  0.59150  0.37660  1.0000
  O   O22       1.0  0.08098  0.59150  0.12340  1.0000
  O   O23       1.0  0.41902  0.09150  0.37660  1.0000
  O   O24       1.0  0.58098  0.09150  0.12340  1.0000
  O   O25       1.0  0.90749  0.44850  0.54740  1.0000
  O   O26       1.0  0.09251  0.44850  0.95260  1.0000
  O   O27       1.0  0.40749  0.94850  0.54740  1.0000
  O   O28       1.0  0.59251  0.94850  0.95260  1.0000
  O   O29       1.0  0.09251  0.55150  0.45260  1.0000
  O   O30       1.0  0.90749  0.55150  0.04740  1.0000
  O   O31       1.0  0.59251  0.05150  0.45260  1.0000
  O   O32       1.0  0.40749  0.05150  0.04740  1.0000
  C   C1        1.0  0.89744  0.41700  0.47010  1.0000
  C   C2        1.0  0.10256  0.41700  0.02990  1.0000
  C   C3        1.0  0.39744  0.91700  0.47010  1.0000
  C   C4        1.0  0.60256  0.91700  0.02990  1.0000
  C   C5        1.0  0.10256  0.58300  0.52990  1.0000
  C   C6        1.0  0.89744  0.58300  0.97010  1.0000
  C   C7        1.0  0.60256  0.08300  0.52990  1.0000
  C   C8        1.0  0.39744  0.08300  0.97010  1.0000
  O   O33       1.0  0.15479  0.63370  0.31690  1.0000
  O   O34       1.0  0.84521  0.63370  0.18310  1.0000
  O   O35       1.0  0.65479  0.13370  0.31690  1.0000
  O   O36       1.0  0.34521  0.13370  0.18310  1.0000
  O   O37       1.0  0.84521  0.36630  0.68310  1.0000
  O   O38       1.0  0.15479  0.36630  0.81690  1.0000
  O   O39       1.0  0.34521  0.86630  0.68310  1.0000
  O   O40       1.0  0.65479  0.86630  0.81690  1.0000
  C   C9        1.0  0.92220  0.29250  0.38170  1.0000
  C   C10       1.0  0.07780  0.29250  0.11830  1.0000
  C   C11       1.0  0.42220  0.79250  0.38170  1.0000
  C   C12       1.0  0.57780  0.79250  0.11830  1.0000
  C   C13       1.0  0.07780  0.70750  0.61830  1.0000
  C   C14       1.0  0.92220  0.70750  0.88170  1.0000
  C   C15       1.0  0.57780  0.20750  0.61830  1.0000
  C   C16       1.0  0.42220  0.20750  0.88170  1.0000
  O   O41       1.0  0.71669  0.11290  0.09330  1.0000
  O   O42       1.0  0.28331  0.11290  0.40670  1.0000
  O   O43       1.0  0.21669  0.61290  0.09330  1.0000
  O   O44       1.0  0.78331  0.61290  0.40670  1.0000
  O   O45       1.0  0.28331  0.88710  0.90670  1.0000
  O   O46       1.0  0.71669  0.88710  0.59330  1.0000
  O   O47       1.0  0.78331  0.38710  0.90670  1.0000
  O   O48       1.0  0.21669  0.38710  0.59330  1.0000
  O   O49       1.0  0.19211  0.54590  0.44140  1.0000
  O   O50       1.0  0.80789  0.54590  0.05860  1.0000
  O   O51       1.0  0.69211  0.04590  0.44140  1.0000
  O   O52       1.0  0.30789  0.04590  0.05860  1.0000
  O   O53       1.0  0.80789  0.45410  0.55860  1.0000
  O   O54       1.0  0.19211  0.45410  0.94140  1.0000
  O   O55       1.0  0.30789  0.95410  0.55860  1.0000
  O   O56       1.0  0.69211  0.95410  0.94140  1.0000
  C   C17       1.0  0.98278  0.37950  0.50800  1.0000
  C   C18       1.0  0.01722  0.37950  0.99200  1.0000
  C   C19       1.0  0.48278  0.87950  0.50800  1.0000
  C   C20       1.0  0.51722  0.87950  0.99200  1.0000
  C   C21       1.0  0.01722  0.62050  0.49200  1.0000
  C   C22       1.0  0.98278  0.62050  0.00800  1.0000
  C   C23       1.0  0.51722  0.12050  0.49200  1.0000
  C   C24       1.0  0.48278  0.12050  0.00800  1.0000
  H   H1        1.0  0.99090  0.42070  0.55950  1.0000
  H   H2        1.0  0.00910  0.42070  0.94050  1.0000
  H   H3        1.0  0.49090  0.92070  0.55950  1.0000
  H   H4        1.0  0.50910  0.92070  0.94050  1.0000
  H   H5        1.0  0.00910  0.57930  0.44050  1.0000
  H   H6        1.0  0.99090  0.57930  0.05950  1.0000
  H   H7        1.0  0.50910  0.07930  0.44050  1.0000
  H   H8        1.0  0.49090  0.07930  0.05950  1.0000
  O   O57       1.0  0.10195  0.35020  0.51820  1.0000
  O   O58       1.0  0.89805  0.35020  0.98180  1.0000
  O   O59       1.0  0.60195  0.85020  0.51820  1.0000
  O   O60       1.0  0.39805  0.85020  0.98180  1.0000
  O   O61       1.0  0.89805  0.64980  0.48180  1.0000
  O   O62       1.0  0.10195  0.64980  0.01820  1.0000
  O   O63       1.0  0.39805  0.14980  0.48180  1.0000
  O   O64       1.0  0.60195  0.14980  0.01820  1.0000
  C   C25       1.0  0.01965  0.34200  0.48990  1.0000
  C   C26       1.0  0.98035  0.34200  0.01010  1.0000
  C   C27       1.0  0.51965  0.84200  0.48990  1.0000
  C   C28       1.0  0.48035  0.84200  0.01010  1.0000
  C   C29       1.0  0.98035  0.65800  0.51010  1.0000
  C   C30       1.0  0.01965  0.65800  0.98990  1.0000
  C   C31       1.0  0.48035  0.15800  0.51010  1.0000
  C   C32       1.0  0.51965  0.15800  0.98990  1.0000
  C   C33       1.0  0.87124  0.25550  0.32800  1.0000
  C   C34       1.0  0.12876  0.25550  0.17200  1.0000
  C   C35       1.0  0.37124  0.75550  0.32800  1.0000
  C   C36       1.0  0.62876  0.75550  0.17200  1.0000
  C   C37       1.0  0.12876  0.74450  0.67200  1.0000
  C   C38       1.0  0.87124  0.74450  0.82800  1.0000
  C   C39       1.0  0.62876  0.24450  0.67200  1.0000
  C   C40       1.0  0.37124  0.24450  0.82800  1.0000
  C   C41       1.0  0.86062  0.34730  0.18470  1.0000
  C   C42       1.0  0.13938  0.34730  0.31530  1.0000
  C   C43       1.0  0.36062  0.84730  0.18470  1.0000
  C   C44       1.0  0.63938  0.84730  0.31530  1.0000
  C   C45       1.0  0.13938  0.65270  0.81530  1.0000
  C   C46       1.0  0.86062  0.65270  0.68470  1.0000
  C   C47       1.0  0.63938  0.15270  0.81530  1.0000
  C   C48       1.0  0.36062  0.15270  0.68470  1.0000
  O   O65       1.0  0.85133  0.33160  0.10320  1.0000
  O   O66       1.0  0.14867  0.33160  0.39680  1.0000
  O   O67       1.0  0.35133  0.83160  0.10320  1.0000
  O   O68       1.0  0.64867  0.83160  0.39680  1.0000
  O   O69       1.0  0.14867  0.66840  0.89680  1.0000
  O   O70       1.0  0.85133  0.66840  0.60320  1.0000
  O   O71       1.0  0.64867  0.16840  0.89680  1.0000
  O   O72       1.0  0.35133  0.16840  0.60320  1.0000
  C   C49       1.0  0.78139  0.16560  0.23030  1.0000
  C   C50       1.0  0.21861  0.16560  0.26970  1.0000
  C   C51       1.0  0.28139  0.66560  0.23030  1.0000
  C   C52       1.0  0.71861  0.66560  0.26970  1.0000
  C   C53       1.0  0.21861  0.83440  0.76970  1.0000
  C   C54       1.0  0.78139  0.83440  0.73030  1.0000
  C   C55       1.0  0.71861  0.33440  0.76970  1.0000
  C   C56       1.0  0.28139  0.33440  0.73030  1.0000
  C   C57       1.0  0.80089  0.22480  0.18530  1.0000
  C   C58       1.0  0.19911  0.22480  0.31470  1.0000
  C   C59       1.0  0.30089  0.72480  0.18530  1.0000
  C   C60       1.0  0.69911  0.72480  0.31470  1.0000
  C   C61       1.0  0.19911  0.77520  0.81470  1.0000
  C   C62       1.0  0.80089  0.77520  0.68530  1.0000
  C   C63       1.0  0.69911  0.27520  0.81470  1.0000
  C   C64       1.0  0.30089  0.27520  0.68530  1.0000
  H   H9        1.0  0.78410  0.23250  0.12090  1.0000
  H   H10       1.0  0.21590  0.23250  0.37910  1.0000
  H   H11       1.0  0.28410  0.73250  0.12090  1.0000
  H   H12       1.0  0.71590  0.73250  0.37910  1.0000
  H   H13       1.0  0.21590  0.76750  0.87910  1.0000
  H   H14       1.0  0.78410  0.76750  0.62090  1.0000
  H   H15       1.0  0.71590  0.26750  0.87910  1.0000
  H   H16       1.0  0.28410  0.26750  0.62090  1.0000
  C   C65       1.0  0.07130  0.36800  0.54850  1.0000
  C   C66       1.0  0.92870  0.36800  0.95150  1.0000
  C   C67       1.0  0.57130  0.86800  0.54850  1.0000
  C   C68       1.0  0.42870  0.86800  0.95150  1.0000
  C   C69       1.0  0.92870  0.63200  0.45150  1.0000
  C   C70       1.0  0.07130  0.63200  0.04850  1.0000
  C   C71       1.0  0.42870  0.13200  0.45150  1.0000
  C   C72       1.0  0.57130  0.13200  0.04850  1.0000
  C   C73       1.0  0.93370  0.35840  0.45260  1.0000
  C   C74       1.0  0.06630  0.35840  0.04740  1.0000
  C   C75       1.0  0.43370  0.85840  0.45260  1.0000
  C   C76       1.0  0.56630  0.85840  0.04740  1.0000
  C   C77       1.0  0.06630  0.64160  0.54740  1.0000
  C   C78       1.0  0.93370  0.64160  0.95260  1.0000
  C   C79       1.0  0.56630  0.14160  0.54740  1.0000
  C   C80       1.0  0.43370  0.14160  0.95260  1.0000
  C   C81       1.0  0.80687  0.15150  0.32270  1.0000
  C   C82       1.0  0.19313  0.15150  0.17730  1.0000
  C   C83       1.0  0.30687  0.65150  0.32270  1.0000
  C   C84       1.0  0.69313  0.65150  0.17730  1.0000
  C   C85       1.0  0.19313  0.84850  0.67730  1.0000
  C   C86       1.0  0.80687  0.84850  0.82270  1.0000
  C   C87       1.0  0.69313  0.34850  0.67730  1.0000
  C   C88       1.0  0.30687  0.34850  0.82270  1.0000
  H   H17       1.0  0.79350  0.11330  0.35470  1.0000
  H   H18       1.0  0.20650  0.11330  0.14530  1.0000
  H   H19       1.0  0.29350  0.61330  0.35470  1.0000
  H   H20       1.0  0.70650  0.61330  0.14530  1.0000
  H   H21       1.0  0.20650  0.88670  0.64530  1.0000
  H   H22       1.0  0.79350  0.88670  0.85470  1.0000
  H   H23       1.0  0.70650  0.38670  0.64530  1.0000
  H   H24       1.0  0.29350  0.38670  0.85470  1.0000
  C   C89       1.0  0.84460  0.27270  0.23340  1.0000
  C   C90       1.0  0.15540  0.27270  0.26660  1.0000
  C   C91       1.0  0.34460  0.77270  0.23340  1.0000
  C   C92       1.0  0.65540  0.77270  0.26660  1.0000
  C   C93       1.0  0.15540  0.72730  0.76660  1.0000
  C   C94       1.0  0.84460  0.72730  0.73340  1.0000
  C   C95       1.0  0.65540  0.22730  0.76660  1.0000
  C   C96       1.0  0.34460  0.22730  0.73340  1.0000
  C   C97       1.0  0.85211  0.19310  0.36910  1.0000
  C   C98       1.0  0.14789  0.19310  0.13090  1.0000
  C   C99       1.0  0.35211  0.69310  0.36910  1.0000
  C   C100      1.0  0.64789  0.69310  0.13090  1.0000
  C   C101      1.0  0.14789  0.80690  0.63090  1.0000
  C   C102      1.0  0.85211  0.80690  0.86910  1.0000
  C   C103      1.0  0.64789  0.30690  0.63090  1.0000
  C   C104      1.0  0.35211  0.30690  0.86910  1.0000
  H   H25       1.0  0.87070  0.17780  0.43190  1.0000
  H   H26       1.0  0.12930  0.17780  0.06810  1.0000
  H   H27       1.0  0.37070  0.67780  0.43190  1.0000
  H   H28       1.0  0.62930  0.67780  0.06810  1.0000
  H   H29       1.0  0.12930  0.82220  0.56810  1.0000
  H   H30       1.0  0.87070  0.82220  0.93190  1.0000
  H   H31       1.0  0.62930  0.32220  0.56810  1.0000
  H   H32       1.0  0.37070  0.32220  0.93190  1.0000
  C   C105      1.0  0.95912  0.25240  0.36430  1.0000
  C   C106      1.0  0.04088  0.25240  0.13570  1.0000
  C   C107      1.0  0.45912  0.75240  0.36430  1.0000
  C   C108      1.0  0.54088  0.75240  0.13570  1.0000
  C   C109      1.0  0.04088  0.74760  0.63570  1.0000
  C   C110      1.0  0.95912  0.74760  0.86430  1.0000
  C   C111      1.0  0.54088  0.24760  0.63570  1.0000
  C   C112      1.0  0.45912  0.24760  0.86430  1.0000
  H   H33       1.0  0.95100  0.20780  0.31530  1.0000
  H   H34       1.0  0.04900  0.20780  0.18470  1.0000
  H   H35       1.0  0.45100  0.70780  0.31530  1.0000
  H   H36       1.0  0.54900  0.70780  0.18470  1.0000
  H   H37       1.0  0.04900  0.79220  0.68470  1.0000
  H   H38       1.0  0.95100  0.79220  0.81530  1.0000
  H   H39       1.0  0.54900  0.29220  0.68470  1.0000
  H   H40       1.0  0.45100  0.29220  0.81530  1.0000
  C   C113      1.0  0.00752  0.27600  0.41710  1.0000
  C   C114      1.0  0.99248  0.27600  0.08290  1.0000
  C   C115      1.0  0.50752  0.77600  0.41710  1.0000
  C   C116      1.0  0.49248  0.77600  0.08290  1.0000
  C   C117      1.0  0.99248  0.72400  0.58290  1.0000
  C   C118      1.0  0.00752  0.72400  0.91710  1.0000
  C   C119      1.0  0.49248  0.22400  0.58290  1.0000
  C   C120      1.0  0.50752  0.22400  0.91710  1.0000
  H   H41       1.0  0.03220  0.24790  0.40430  1.0000
  H   H42       1.0  0.96780  0.24790  0.09570  1.0000
  H   H43       1.0  0.53220  0.74790  0.40430  1.0000
  H   H44       1.0  0.46780  0.74790  0.09570  1.0000
  H   H45       1.0  0.96780  0.75210  0.59570  1.0000
  H   H46       1.0  0.03220  0.75210  0.90430  1.0000
  H   H47       1.0  0.46780  0.25210  0.59570  1.0000
  H   H48       1.0  0.53220  0.25210  0.90430  1.0000
  O   O73       1.0  0.71172  0.08540  0.22480  1.0000
  O   O74       1.0  0.28828  0.08540  0.27520  1.0000
  O   O75       1.0  0.21172  0.58540  0.22480  1.0000
  O   O76       1.0  0.78828  0.58540  0.27520  1.0000
  O   O77       1.0  0.28828  0.91460  0.77520  1.0000
  O   O78       1.0  0.71172  0.91460  0.72480  1.0000
  O   O79       1.0  0.78828  0.41460  0.77520  1.0000
  O   O80       1.0  0.21172  0.41460  0.72480  1.0000
  C   C121      1.0  0.73220  0.12060  0.17680  1.0000
  C   C122      1.0  0.26780  0.12060  0.32320  1.0000
  C   C123      1.0  0.23220  0.62060  0.17680  1.0000
  C   C124      1.0  0.76780  0.62060  0.32320  1.0000
  C   C125      1.0  0.26780  0.87940  0.82320  1.0000
  C   C126      1.0  0.73220  0.87940  0.67680  1.0000
  C   C127      1.0  0.76780  0.37940  0.82320  1.0000
  C   C128      1.0  0.23220  0.37940  0.67680  1.0000
  C   C129      1.0  0.17560  0.61900  0.40300  1.0000
  C   C130      1.0  0.82440  0.61900  0.09700  1.0000
  C   C131      1.0  0.67560  0.11900  0.40300  1.0000
  C   C132      1.0  0.32440  0.11900  0.09700  1.0000
  C   C133      1.0  0.82440  0.38100  0.59700  1.0000
  C   C134      1.0  0.17560  0.38100  0.90300  1.0000
  C   C135      1.0  0.32440  0.88100  0.59700  1.0000
  C   C136      1.0  0.67560  0.88100  0.90300  1.0000
  C   C137      1.0  0.17790  0.71320  0.45690  1.0000
  C   C138      1.0  0.82210  0.71320  0.04310  1.0000
  C   C139      1.0  0.67790  0.21320  0.45690  1.0000
  C   C140      1.0  0.32210  0.21320  0.04310  1.0000
  C   C141      1.0  0.82210  0.28680  0.54310  1.0000
  C   C142      1.0  0.17790  0.28680  0.95690  1.0000
  C   C143      1.0  0.32210  0.78680  0.54310  1.0000
  C   C144      1.0  0.67790  0.78680  0.95690  1.0000
  H   H49       1.0  0.19400  0.69970  0.52270  1.0000
  H   H50       1.0  0.80600  0.69970  0.97730  1.0000
  H   H51       1.0  0.69400  0.19970  0.52270  1.0000
  H   H52       1.0  0.30600  0.19970  0.97730  1.0000
  H   H53       1.0  0.80600  0.30030  0.47730  1.0000
  H   H54       1.0  0.19400  0.30030  0.02270  1.0000
  H   H55       1.0  0.30600  0.80030  0.47730  1.0000
  H   H56       1.0  0.69400  0.80030  0.02270  1.0000
  H   H57       1.0  0.14490  0.73680  0.44020  1.0000
  H   H58       1.0  0.85510  0.73680  0.05980  1.0000
  H   H59       1.0  0.64490  0.23680  0.44020  1.0000
  H   H60       1.0  0.35510  0.23680  0.05980  1.0000
  H   H61       1.0  0.85510  0.26320  0.55980  1.0000
  H   H62       1.0  0.14490  0.26320  0.94020  1.0000
  H   H63       1.0  0.35510  0.76320  0.55980  1.0000
  H   H64       1.0  0.64490  0.76320  0.94020  1.0000
  H   H65       1.0  0.19630  0.76260  0.44200  1.0000
  H   H66       1.0  0.80370  0.76260  0.05800  1.0000
  H   H67       1.0  0.69630  0.26260  0.44200  1.0000
  H   H68       1.0  0.30370  0.26260  0.05800  1.0000
  H   H69       1.0  0.80370  0.23740  0.55800  1.0000
  H   H70       1.0  0.19630  0.23740  0.94200  1.0000
  H   H71       1.0  0.30370  0.73740  0.55800  1.0000
  H   H72       1.0  0.69630  0.73740  0.94200  1.0000
