data_image0
_chemical_formula_structural       In3O24C18H6C6H12C6H12C6H18C6H18C6H18C12
_chemical_formula_sum              "In3 O24 C60 H84"
_cell_length_a       12.7624
_cell_length_b       12.7624
_cell_length_c       17.6291
_cell_angle_alpha    90
_cell_angle_beta     90
_cell_angle_gamma    120

_space_group_name_H-M_alt    "P 1"
_space_group_IT_number       1

loop_
  _space_group_symop_operation_xyz
  'x, y, z'

loop_
  _atom_site_type_symbol
  _atom_site_label
  _atom_site_symmetry_multiplicity
  _atom_site_fract_x
  _atom_site_fract_y
  _atom_site_fract_z
  _atom_site_occupancy
  In  In1       1.0  0.00000  0.37204  0.16670  1.0000
  In  In2       1.0  0.62796  0.62796  0.50003  1.0000
  In  In3       1.0  0.37204  0.00000  0.83337  1.0000
  O   O1        1.0  0.20570  0.50260  0.15480  1.0000
  O   O2        1.0  0.49740  0.70310  0.48813  1.0000
  O   O3        1.0  0.29690  0.79430  0.82147  1.0000
  O   O4        1.0  0.50260  0.20570  0.84520  1.0000
  O   O5        1.0  0.70310  0.49740  0.51187  1.0000
  O   O6        1.0  0.79430  0.29690  0.17853  1.0000
  O   O7        1.0  0.51610  0.49360  0.41420  1.0000
  O   O8        1.0  0.50640  0.02250  0.74753  1.0000
  O   O9        1.0  0.97750  0.48390  0.08087  1.0000
  O   O10       1.0  0.49360  0.51610  0.58580  1.0000
  O   O11       1.0  0.02250  0.50640  0.25247  1.0000
  O   O12       1.0  0.48390  0.97750  0.91913  1.0000
  O   O13       1.0  0.14110  0.31530  0.18000  1.0000
  O   O14       1.0  0.68470  0.82580  0.51333  1.0000
  O   O15       1.0  0.17420  0.85890  0.84667  1.0000
  O   O16       1.0  0.31530  0.14110  0.82000  1.0000
  O   O17       1.0  0.82580  0.68470  0.48667  1.0000
  O   O18       1.0  0.85890  0.17420  0.15333  1.0000
  O   O19       1.0  0.64770  0.66960  0.36770  1.0000
  O   O20       1.0  0.33040  0.97810  0.70103  1.0000
  O   O21       1.0  0.02190  0.35230  0.03437  1.0000
  O   O22       1.0  0.66960  0.64770  0.63230  1.0000
  O   O23       1.0  0.97810  0.33040  0.29897  1.0000
  O   O24       1.0  0.35230  0.02190  0.96563  1.0000
  C   C1        1.0  0.35750  0.45240  0.18700  1.0000
  C   C2        1.0  0.54760  0.90510  0.52033  1.0000
  C   C3        1.0  0.09490  0.64250  0.85367  1.0000
  C   C4        1.0  0.45240  0.35750  0.81300  1.0000
  C   C5        1.0  0.90510  0.54760  0.47967  1.0000
  C   C6        1.0  0.64250  0.09490  0.14633  1.0000
  C   C7        1.0  0.41350  0.53830  0.25430  1.0000
  C   C8        1.0  0.46170  0.87520  0.58763  1.0000
  C   C9        1.0  0.12480  0.58650  0.92097  1.0000
  C   C10       1.0  0.53830  0.41350  0.74570  1.0000
  C   C11       1.0  0.87520  0.46170  0.41237  1.0000
  C   C12       1.0  0.58650  0.12480  0.07903  1.0000
  C   C13       1.0  0.51860  0.51840  0.27770  1.0000
  C   C14       1.0  0.48160  0.00020  0.61103  1.0000
  C   C15       1.0  0.99980  0.48140  0.94437  1.0000
  C   C16       1.0  0.51840  0.51860  0.72230  1.0000
  C   C17       1.0  0.00020  0.48160  0.38897  1.0000
  C   C18       1.0  0.48140  0.99980  0.05563  1.0000
  H   H1        1.0  0.58620  0.56360  0.24270  1.0000
  H   H2        1.0  0.43640  0.02260  0.57603  1.0000
  H   H3        1.0  0.97740  0.41380  0.90937  1.0000
  H   H4        1.0  0.56360  0.58620  0.75730  1.0000
  H   H5        1.0  0.02260  0.43640  0.42397  1.0000
  H   H6        1.0  0.41380  0.97740  0.09063  1.0000
  C   C19       1.0  0.47000  0.38460  0.26540  1.0000
  C   C20       1.0  0.61540  0.08540  0.59873  1.0000
  C   C21       1.0  0.91460  0.53000  0.93207  1.0000
  C   C22       1.0  0.38460  0.47000  0.73460  1.0000
  C   C23       1.0  0.08540  0.61540  0.40127  1.0000
  C   C24       1.0  0.53000  0.91460  0.06793  1.0000
  H   H7        1.0  0.53270  0.37090  0.24480  1.0000
  H   H8        1.0  0.62910  0.16180  0.57813  1.0000
  H   H9        1.0  0.83820  0.46730  0.91147  1.0000
  H   H10       1.0  0.37090  0.53270  0.75520  1.0000
  H   H11       1.0  0.16180  0.62910  0.42187  1.0000
  H   H12       1.0  0.46730  0.83820  0.08853  1.0000
  H   H13       1.0  0.44230  0.34120  0.31300  1.0000
  H   H14       1.0  0.65880  0.10110  0.64633  1.0000
  H   H15       1.0  0.89890  0.55770  0.97967  1.0000
  H   H16       1.0  0.34120  0.44230  0.68700  1.0000
  H   H17       1.0  0.10110  0.65880  0.35367  1.0000
  H   H18       1.0  0.55770  0.89890  0.02033  1.0000
  C   C25       1.0  0.36640  0.34160  0.21040  1.0000
  C   C26       1.0  0.65840  0.02480  0.54373  1.0000
  C   C27       1.0  0.97520  0.63360  0.87707  1.0000
  C   C28       1.0  0.34160  0.36640  0.78960  1.0000
  C   C29       1.0  0.02480  0.65840  0.45627  1.0000
  C   C30       1.0  0.63360  0.97520  0.12293  1.0000
  H   H19       1.0  0.29160  0.28170  0.23420  1.0000
  H   H20       1.0  0.71830  0.00990  0.56753  1.0000
  H   H21       1.0  0.99010  0.70840  0.90087  1.0000
  H   H22       1.0  0.28170  0.29160  0.76580  1.0000
  H   H23       1.0  0.00990  0.71830  0.43247  1.0000
  H   H24       1.0  0.70840  0.99010  0.09913  1.0000
  H   H25       1.0  0.38090  0.30520  0.16630  1.0000
  H   H26       1.0  0.69480  0.07570  0.49963  1.0000
  H   H27       1.0  0.92430  0.61910  0.83297  1.0000
  H   H28       1.0  0.30520  0.38090  0.83370  1.0000
  H   H29       1.0  0.07570  0.69480  0.50037  1.0000
  H   H30       1.0  0.61910  0.92430  0.16703  1.0000
  C   C31       1.0  0.42930  0.51130  0.11090  1.0000
  C   C32       1.0  0.48870  0.91800  0.44423  1.0000
  C   C33       1.0  0.08200  0.57070  0.77757  1.0000
  C   C34       1.0  0.51130  0.42930  0.88910  1.0000
  C   C35       1.0  0.91800  0.48870  0.55577  1.0000
  C   C36       1.0  0.57070  0.08200  0.22243  1.0000
  H   H31       1.0  0.51280  0.53420  0.11750  1.0000
  H   H32       1.0  0.46580  0.97860  0.45083  1.0000
  H   H33       1.0  0.02140  0.48720  0.78417  1.0000
  H   H34       1.0  0.53420  0.51280  0.88250  1.0000
  H   H35       1.0  0.97860  0.46580  0.54917  1.0000
  H   H36       1.0  0.48720  0.02140  0.21583  1.0000
  H   H37       1.0  0.42360  0.58160  0.09890  1.0000
  H   H38       1.0  0.41840  0.84200  0.43223  1.0000
  H   H39       1.0  0.15800  0.57640  0.76557  1.0000
  H   H40       1.0  0.58160  0.42360  0.90110  1.0000
  H   H41       1.0  0.84200  0.41840  0.56777  1.0000
  H   H42       1.0  0.57640  0.15800  0.23443  1.0000
  H   H43       1.0  0.39510  0.45370  0.07040  1.0000
  H   H44       1.0  0.54630  0.94140  0.40373  1.0000
  H   H45       1.0  0.05860  0.60490  0.73707  1.0000
  H   H46       1.0  0.45370  0.39510  0.92960  1.0000
  H   H47       1.0  0.94140  0.54630  0.59627  1.0000
  H   H48       1.0  0.60490  0.05860  0.26293  1.0000
  C   C37       1.0  0.32090  0.50820  0.31820  1.0000
  C   C38       1.0  0.49180  0.81270  0.65153  1.0000
  C   C39       1.0  0.18730  0.67910  0.98487  1.0000
  C   C40       1.0  0.50820  0.32090  0.68180  1.0000
  C   C41       1.0  0.81270  0.49180  0.34847  1.0000
  C   C42       1.0  0.67910  0.18730  0.01513  1.0000
  H   H49       1.0  0.28850  0.42540  0.33340  1.0000
  H   H50       1.0  0.57460  0.86310  0.66673  1.0000
  H   H51       1.0  0.13690  0.71150  0.00007  1.0000
  H   H52       1.0  0.42540  0.28850  0.66660  1.0000
  H   H53       1.0  0.86310  0.57460  0.33327  1.0000
  H   H54       1.0  0.71150  0.13690  0.99993  1.0000
  H   H55       1.0  0.25650  0.52010  0.30050  1.0000
  H   H56       1.0  0.47990  0.73640  0.63383  1.0000
  H   H57       1.0  0.26360  0.74350  0.96717  1.0000
  H   H58       1.0  0.52010  0.25650  0.69950  1.0000
  H   H59       1.0  0.73640  0.47990  0.36617  1.0000
  H   H60       1.0  0.74350  0.26360  0.03283  1.0000
  H   H61       1.0  0.35980  0.56020  0.36080  1.0000
  H   H62       1.0  0.43980  0.79960  0.69413  1.0000
  H   H63       1.0  0.20040  0.64020  0.02747  1.0000
  H   H64       1.0  0.56020  0.35980  0.63920  1.0000
  H   H65       1.0  0.79960  0.43980  0.30587  1.0000
  H   H66       1.0  0.64020  0.20040  0.97253  1.0000
  C   C43       1.0  0.45840  0.67450  0.23400  1.0000
  C   C44       1.0  0.32550  0.78390  0.56733  1.0000
  C   C45       1.0  0.21610  0.54160  0.90067  1.0000
  C   C46       1.0  0.67450  0.45840  0.76600  1.0000
  C   C47       1.0  0.78390  0.32550  0.43267  1.0000
  C   C48       1.0  0.54160  0.21610  0.09933  1.0000
  H   H67       1.0  0.51890  0.70090  0.19510  1.0000
  H   H68       1.0  0.29910  0.81800  0.52843  1.0000
  H   H69       1.0  0.18200  0.48110  0.86177  1.0000
  H   H70       1.0  0.70090  0.51890  0.80490  1.0000
  H   H71       1.0  0.81800  0.29910  0.47157  1.0000
  H   H72       1.0  0.48110  0.18200  0.13823  1.0000
  H   H73       1.0  0.49220  0.72370  0.27840  1.0000
  H   H74       1.0  0.27630  0.76850  0.61173  1.0000
  H   H75       1.0  0.23150  0.50780  0.94507  1.0000
  H   H76       1.0  0.72370  0.49220  0.72160  1.0000
  H   H77       1.0  0.76850  0.27630  0.38827  1.0000
  H   H78       1.0  0.50780  0.23150  0.05493  1.0000
  H   H79       1.0  0.39130  0.68190  0.21620  1.0000
  H   H80       1.0  0.31810  0.70940  0.54953  1.0000
  H   H81       1.0  0.29060  0.60870  0.88287  1.0000
  H   H82       1.0  0.68190  0.39130  0.78380  1.0000
  H   H83       1.0  0.70940  0.31810  0.45047  1.0000
  H   H84       1.0  0.60870  0.29060  0.11713  1.0000
  C   C49       1.0  0.22590  0.41990  0.17260  1.0000
  C   C50       1.0  0.58010  0.80600  0.50593  1.0000
  C   C51       1.0  0.19400  0.77410  0.83927  1.0000
  C   C52       1.0  0.41990  0.22590  0.82740  1.0000
  C   C53       1.0  0.80600  0.58010  0.49407  1.0000
  C   C54       1.0  0.77410  0.19400  0.16073  1.0000
  C   C55       1.0  0.56310  0.56160  0.35860  1.0000
  C   C56       1.0  0.43840  0.00150  0.69193  1.0000
  C   C57       1.0  0.99850  0.43690  0.02527  1.0000
  C   C58       1.0  0.56160  0.56310  0.64140  1.0000
  C   C59       1.0  0.00150  0.43840  0.30807  1.0000
  C   C60       1.0  0.43690  0.99850  0.97473  1.0000
