data_image0
_chemical_formula_structural       In3O24C18H6C6H12C6H12C6H18C6H18C6H18C12
_chemical_formula_sum              "In3 O24 C60 H84"
_cell_length_a       12.9913
_cell_length_b       12.9913
_cell_length_c       17.3911
_cell_angle_alpha    90
_cell_angle_beta     90
_cell_angle_gamma    120

_space_group_name_H-M_alt    "P 1"
_space_group_IT_number       1

loop_
  _space_group_symop_operation_xyz
  'x, y, z'

loop_
  _atom_site_type_symbol
  _atom_site_label
  _atom_site_symmetry_multiplicity
  _atom_site_fract_x
  _atom_site_fract_y
  _atom_site_fract_z
  _atom_site_occupancy
  In  In1       1.0  0.62290  0.62290  0.50000  1.0000
  In  In2       1.0  0.37710  0.00000  0.16667  1.0000
  In  In3       1.0  0.00000  0.37710  0.83333  1.0000
  O   O1        1.0  0.67550  0.81350  0.48570  1.0000
  O   O2        1.0  0.18650  0.86200  0.15237  1.0000
  O   O3        1.0  0.13800  0.32450  0.81903  1.0000
  O   O4        1.0  0.81350  0.67550  0.51430  1.0000
  O   O5        1.0  0.86200  0.18650  0.84763  1.0000
  O   O6        1.0  0.32450  0.13800  0.18097  1.0000
  O   O7        1.0  0.48840  0.69140  0.51290  1.0000
  O   O8        1.0  0.30860  0.79700  0.17957  1.0000
  O   O9        1.0  0.20300  0.51160  0.84623  1.0000
  O   O10       1.0  0.69140  0.48840  0.48710  1.0000
  O   O11       1.0  0.79700  0.30860  0.82043  1.0000
  O   O12       1.0  0.51160  0.20300  0.15377  1.0000
  O   O13       1.0  0.50290  0.01860  0.25670  1.0000
  O   O14       1.0  0.98140  0.48430  0.92337  1.0000
  O   O15       1.0  0.51570  0.49710  0.59003  1.0000
  O   O16       1.0  0.01860  0.50290  0.74330  1.0000
  O   O17       1.0  0.48430  0.98140  0.07663  1.0000
  O   O18       1.0  0.49710  0.51570  0.40997  1.0000
  O   O19       1.0  0.33270  0.97640  0.30210  1.0000
  O   O20       1.0  0.02360  0.35630  0.96877  1.0000
  O   O21       1.0  0.64370  0.66730  0.63543  1.0000
  O   O22       1.0  0.97640  0.33270  0.69790  1.0000
  O   O23       1.0  0.35630  0.02360  0.03123  1.0000
  O   O24       1.0  0.66730  0.64370  0.36457  1.0000
  C   C1        1.0  0.54070  0.89240  0.48490  1.0000
  C   C2        1.0  0.10760  0.64830  0.15157  1.0000
  C   C3        1.0  0.35170  0.45930  0.81823  1.0000
  C   C4        1.0  0.89240  0.54070  0.51510  1.0000
  C   C5        1.0  0.64830  0.10760  0.84843  1.0000
  C   C6        1.0  0.45930  0.35170  0.18177  1.0000
  C   C7        1.0  0.45580  0.86620  0.41350  1.0000
  C   C8        1.0  0.13380  0.58960  0.08017  1.0000
  C   C9        1.0  0.41040  0.54420  0.74683  1.0000
  C   C10       1.0  0.86620  0.45580  0.58650  1.0000
  C   C11       1.0  0.58960  0.13380  0.91983  1.0000
  C   C12       1.0  0.54420  0.41040  0.25317  1.0000
  C   C13       1.0  0.47910  0.99070  0.39300  1.0000
  C   C14       1.0  0.00930  0.48840  0.05967  1.0000
  C   C15       1.0  0.51160  0.52090  0.72633  1.0000
  C   C16       1.0  0.99070  0.47910  0.60700  1.0000
  C   C17       1.0  0.48840  0.00930  0.94033  1.0000
  C   C18       1.0  0.52090  0.51160  0.27367  1.0000
  H   H1        1.0  0.43690  0.01260  0.43040  1.0000
  H   H2        1.0  0.98740  0.42430  0.09707  1.0000
  H   H3        1.0  0.57570  0.56310  0.76373  1.0000
  H   H4        1.0  0.01260  0.43690  0.56960  1.0000
  H   H5        1.0  0.42430  0.98740  0.90293  1.0000
  H   H6        1.0  0.56310  0.57570  0.23627  1.0000
  C   C19       1.0  0.61510  0.07430  0.40550  1.0000
  C   C20       1.0  0.92570  0.54080  0.07217  1.0000
  C   C21       1.0  0.45920  0.38490  0.73883  1.0000
  C   C22       1.0  0.07430  0.61510  0.59450  1.0000
  C   C23       1.0  0.54080  0.92570  0.92783  1.0000
  C   C24       1.0  0.38490  0.45920  0.26117  1.0000
  H   H7        1.0  0.65910  0.08260  0.35860  1.0000
  H   H8        1.0  0.91740  0.57650  0.02527  1.0000
  H   H9        1.0  0.42350  0.34090  0.69193  1.0000
  H   H10       1.0  0.08260  0.65910  0.64140  1.0000
  H   H11       1.0  0.57650  0.91740  0.97473  1.0000
  H   H12       1.0  0.34090  0.42350  0.30807  1.0000
  H   H13       1.0  0.63230  0.15250  0.42260  1.0000
  H   H14       1.0  0.84750  0.47980  0.08927  1.0000
  H   H15       1.0  0.52020  0.36770  0.75593  1.0000
  H   H16       1.0  0.15250  0.63230  0.57740  1.0000
  H   H17       1.0  0.47980  0.84750  0.91073  1.0000
  H   H18       1.0  0.36770  0.52020  0.24407  1.0000
  C   C25       1.0  0.64440  0.01260  0.46620  1.0000
  C   C26       1.0  0.98740  0.63180  0.13287  1.0000
  C   C27       1.0  0.36820  0.35560  0.79953  1.0000
  C   C28       1.0  0.01260  0.64440  0.53380  1.0000
  C   C29       1.0  0.63180  0.98740  0.86713  1.0000
  C   C30       1.0  0.35560  0.36820  0.20047  1.0000
  H   H19       1.0  0.66910  0.06100  0.51240  1.0000
  H   H20       1.0  0.93900  0.60810  0.17907  1.0000
  H   H21       1.0  0.39190  0.33090  0.84573  1.0000
  H   H22       1.0  0.06100  0.66910  0.48760  1.0000
  H   H23       1.0  0.60810  0.93900  0.82093  1.0000
  H   H24       1.0  0.33090  0.39190  0.15427  1.0000
  H   H25       1.0  0.71050  0.00360  0.44910  1.0000
  H   H26       1.0  0.99640  0.70690  0.11577  1.0000
  H   H27       1.0  0.29310  0.28950  0.78243  1.0000
  H   H28       1.0  0.00360  0.71050  0.55090  1.0000
  H   H29       1.0  0.70690  0.99640  0.88423  1.0000
  H   H30       1.0  0.28950  0.29310  0.21757  1.0000
  C   C31       1.0  0.49180  0.90930  0.56150  1.0000
  C   C32       1.0  0.09070  0.58250  0.22817  1.0000
  C   C33       1.0  0.41750  0.50820  0.89483  1.0000
  C   C34       1.0  0.90930  0.49180  0.43850  1.0000
  C   C35       1.0  0.58250  0.09070  0.77183  1.0000
  C   C36       1.0  0.50820  0.41750  0.10517  1.0000
  H   H31       1.0  0.54770  0.92340  0.60190  1.0000
  H   H32       1.0  0.07660  0.62430  0.26857  1.0000
  H   H33       1.0  0.37570  0.45230  0.93523  1.0000
  H   H34       1.0  0.92340  0.54770  0.39810  1.0000
  H   H35       1.0  0.62430  0.07660  0.73143  1.0000
  H   H36       1.0  0.45230  0.37570  0.06477  1.0000
  H   H37       1.0  0.41760  0.83890  0.57290  1.0000
  H   H38       1.0  0.16110  0.57870  0.23957  1.0000
  H   H39       1.0  0.42130  0.58240  0.90623  1.0000
  H   H40       1.0  0.83890  0.41760  0.42710  1.0000
  H   H41       1.0  0.57870  0.16110  0.76043  1.0000
  H   H42       1.0  0.58240  0.42130  0.09377  1.0000
  H   H43       1.0  0.47940  0.97600  0.55740  1.0000
  H   H44       1.0  0.02400  0.50340  0.22407  1.0000
  H   H45       1.0  0.49660  0.52060  0.89073  1.0000
  H   H46       1.0  0.97600  0.47940  0.44260  1.0000
  H   H47       1.0  0.50340  0.02400  0.77593  1.0000
  H   H48       1.0  0.52060  0.49660  0.10927  1.0000
  C   C37       1.0  0.32950  0.78460  0.43180  1.0000
  C   C38       1.0  0.21540  0.54490  0.09847  1.0000
  C   C39       1.0  0.45510  0.67050  0.76513  1.0000
  C   C40       1.0  0.78460  0.32950  0.56820  1.0000
  C   C41       1.0  0.54490  0.21540  0.90153  1.0000
  C   C42       1.0  0.67050  0.45510  0.23487  1.0000
  H   H49       1.0  0.28210  0.77230  0.38660  1.0000
  H   H50       1.0  0.22770  0.50980  0.05327  1.0000
  H   H51       1.0  0.49020  0.71790  0.71993  1.0000
  H   H52       1.0  0.77230  0.28210  0.61340  1.0000
  H   H53       1.0  0.50980  0.22770  0.94673  1.0000
  H   H54       1.0  0.71790  0.49020  0.28007  1.0000
  H   H55       1.0  0.30470  0.81850  0.47170  1.0000
  H   H56       1.0  0.18150  0.48620  0.13837  1.0000
  H   H57       1.0  0.51380  0.69530  0.80503  1.0000
  H   H58       1.0  0.81850  0.30470  0.52830  1.0000
  H   H59       1.0  0.48620  0.18150  0.86163  1.0000
  H   H60       1.0  0.69530  0.51380  0.19497  1.0000
  H   H61       1.0  0.31940  0.70980  0.44880  1.0000
  H   H62       1.0  0.29020  0.60960  0.11547  1.0000
  H   H63       1.0  0.39040  0.68060  0.78213  1.0000
  H   H64       1.0  0.70980  0.31940  0.55120  1.0000
  H   H65       1.0  0.60960  0.29020  0.88453  1.0000
  H   H66       1.0  0.68060  0.39040  0.21787  1.0000
  C   C43       1.0  0.47930  0.80570  0.35270  1.0000
  C   C44       1.0  0.19430  0.67360  0.01937  1.0000
  C   C45       1.0  0.32640  0.52070  0.68603  1.0000
  C   C46       1.0  0.80570  0.47930  0.64730  1.0000
  C   C47       1.0  0.67360  0.19430  0.98063  1.0000
  C   C48       1.0  0.52070  0.32640  0.31397  1.0000
  H   H67       1.0  0.42690  0.79300  0.31030  1.0000
  H   H68       1.0  0.20700  0.63390  0.97697  1.0000
  H   H69       1.0  0.36610  0.57310  0.64363  1.0000
  H   H70       1.0  0.79300  0.42690  0.68970  1.0000
  H   H71       1.0  0.63390  0.20700  0.02303  1.0000
  H   H72       1.0  0.57310  0.36610  0.35637  1.0000
  H   H73       1.0  0.46630  0.73050  0.37120  1.0000
  H   H74       1.0  0.26950  0.73580  0.03787  1.0000
  H   H75       1.0  0.26420  0.53370  0.70453  1.0000
  H   H76       1.0  0.73050  0.46630  0.62880  1.0000
  H   H77       1.0  0.73580  0.26950  0.96213  1.0000
  H   H78       1.0  0.53370  0.26420  0.29547  1.0000
  H   H79       1.0  0.56020  0.85320  0.33610  1.0000
  H   H80       1.0  0.14680  0.70700  0.00277  1.0000
  H   H81       1.0  0.29300  0.43980  0.66943  1.0000
  H   H82       1.0  0.85320  0.56020  0.66390  1.0000
  H   H83       1.0  0.70700  0.14680  0.99723  1.0000
  H   H84       1.0  0.43980  0.29300  0.33057  1.0000
  C   C49       1.0  0.57110  0.79440  0.49630  1.0000
  C   C50       1.0  0.20560  0.77670  0.16297  1.0000
  C   C51       1.0  0.22330  0.42890  0.82963  1.0000
  C   C52       1.0  0.79440  0.57110  0.50370  1.0000
  C   C53       1.0  0.77670  0.20560  0.83703  1.0000
  C   C54       1.0  0.42890  0.22330  0.17037  1.0000
  C   C55       1.0  0.43550  0.99790  0.31330  1.0000
  C   C56       1.0  0.00210  0.43760  0.97997  1.0000
  C   C57       1.0  0.56240  0.56450  0.64663  1.0000
  C   C58       1.0  0.99790  0.43550  0.68670  1.0000
  C   C59       1.0  0.43760  0.00210  0.02003  1.0000
  C   C60       1.0  0.56450  0.56240  0.35337  1.0000
