data_image0
_chemical_formula_structural       Co2O12C2H16C2O2C4Co2C8O10C4O2C2O4H16C2O10CoO4H8
_chemical_formula_sum              "Co5 O44 C24 H40"
_cell_length_a       8.7373
_cell_length_b       9.7058
_cell_length_c       15.3909
_cell_angle_alpha    84.254
_cell_angle_beta     81.361
_cell_angle_gamma    78.367

_space_group_name_H-M_alt    "P 1"
_space_group_IT_number       1

loop_
  _space_group_symop_operation_xyz
  'x, y, z'

loop_
  _atom_site_type_symbol
  _atom_site_label
  _atom_site_symmetry_multiplicity
  _atom_site_fract_x
  _atom_site_fract_y
  _atom_site_fract_z
  _atom_site_occupancy
  Co  Co1       1.0  0.77505  0.24847  0.89361  1.0000
  Co  Co2       1.0  0.22495  0.75153  0.10639  1.0000
  O   O1        1.0  0.65480  0.24140  0.01840  1.0000
  O   O2        1.0  0.34520  0.75860  0.98160  1.0000
  O   O3        1.0  0.56480  0.20680  0.85910  1.0000
  O   O4        1.0  0.43520  0.79320  0.14090  1.0000
  O   O5        1.0  0.85760  0.02740  0.91920  1.0000
  O   O6        1.0  0.14240  0.97260  0.08080  1.0000
  O   O7        1.0  0.98960  0.28210  0.92870  1.0000
  O   O8        1.0  0.01040  0.71790  0.07130  1.0000
  O   O9        1.0  0.88550  0.22780  0.76600  1.0000
  O   O10       1.0  0.11450  0.77220  0.23400  1.0000
  O   O11       1.0  0.69880  0.46640  0.87060  1.0000
  O   O12       1.0  0.30120  0.53360  0.12940  1.0000
  C   C1        1.0  0.70270  0.23740  0.09270  1.0000
  C   C2        1.0  0.29730  0.76260  0.90730  1.0000
  H   H1        1.0  0.54800  0.17100  0.81300  1.0000
  H   H2        1.0  0.45200  0.82900  0.18700  1.0000
  H   H3        1.0  0.49800  0.28300  0.86900  1.0000
  H   H4        1.0  0.50200  0.71700  0.13100  1.0000
  H   H5        1.0  0.93400  0.05300  0.93900  1.0000
  H   H6        1.0  0.06600  0.94700  0.06100  1.0000
  H   H7        1.0  0.82500  0.96100  0.95300  1.0000
  H   H8        1.0  0.17500  0.03900  0.04700  1.0000
  H   H9        1.0  0.06000  0.20900  0.91600  1.0000
  H   H10       1.0  0.94000  0.79100  0.08400  1.0000
  H   H11       1.0  0.99500  0.30800  0.98000  1.0000
  H   H12       1.0  0.00500  0.69200  0.02000  1.0000
  H   H13       1.0  0.85500  0.30000  0.73200  1.0000
  H   H14       1.0  0.14500  0.70000  0.26800  1.0000
  H   H15       1.0  0.98670  0.20500  0.75900  1.0000
  H   H16       1.0  0.01330  0.79500  0.24100  1.0000
  C   C3        1.0  0.57950  0.21630  0.17010  1.0000
  C   C4        1.0  0.42050  0.78370  0.82990  1.0000
  O   O13       1.0  0.83760  0.24670  0.10430  1.0000
  O   O14       1.0  0.16240  0.75330  0.89570  1.0000
  C   C5        1.0  0.45230  0.32600  0.19020  1.0000
  C   C6        1.0  0.54770  0.67400  0.80980  1.0000
  C   C7        1.0  0.59030  0.08560  0.21850  1.0000
  C   C8        1.0  0.40970  0.91440  0.78150  1.0000
  Co  Co3       1.0  0.94773  0.32136  0.20019  1.0000
  Co  Co4       1.0  0.05227  0.67864  0.79981  1.0000
  C   C9        1.0  0.33590  0.30380  0.26190  1.0000
  C   C10       1.0  0.66410  0.69620  0.73810  1.0000
  C   C11       1.0  0.44090  0.46970  0.14030  1.0000
  C   C12       1.0  0.55910  0.53030  0.85970  1.0000
  C   C13       1.0  0.47240  0.06570  0.28890  1.0000
  C   C14       1.0  0.52760  0.93430  0.71110  1.0000
  C   C15       1.0  0.73500  0.97140  0.20060  1.0000
  C   C16       1.0  0.26500  0.02860  0.79940  1.0000
  O   O15       1.0  0.76700  0.31410  0.30500  1.0000
  O   O16       1.0  0.23300  0.68590  0.69500  1.0000
  O   O17       1.0  0.83600  0.52750  0.16920  1.0000
  O   O18       1.0  0.16400  0.47250  0.83080  1.0000
  O   O19       1.0  0.12320  0.34600  0.09460  1.0000
  O   O20       1.0  0.87680  0.65400  0.90540  1.0000
  O   O21       1.0  0.04230  0.11280  0.23200  1.0000
  O   O22       1.0  0.95770  0.88720  0.76800  1.0000
  O   O23       1.0  0.06430  0.41340  0.28200  1.0000
  O   O24       1.0  0.93570  0.58660  0.71800  1.0000
  C   C17       1.0  0.34760  0.17410  0.31060  1.0000
  C   C18       1.0  0.65240  0.82590  0.68940  1.0000
  C   C19       1.0  0.20280  0.42300  0.29020  1.0000
  C   C20       1.0  0.79720  0.57700  0.70980  1.0000
  O   O25       1.0  0.56100  0.51770  0.11780  1.0000
  O   O26       1.0  0.43900  0.48230  0.88220  1.0000
  C   C21       1.0  0.48120  0.92420  0.34250  1.0000
  C   C22       1.0  0.51880  0.07580  0.65750  1.0000
  O   O27       1.0  0.76810  0.92990  0.12440  1.0000
  O   O28       1.0  0.23190  0.07010  0.87560  1.0000
  O   O29       1.0  0.81440  0.92910  0.26330  1.0000
  O   O30       1.0  0.18560  0.07090  0.73670  1.0000
  H   H17       1.0  0.69600  0.38200  0.32500  1.0000
  H   H18       1.0  0.30400  0.61800  0.67500  1.0000
  H   H19       1.0  0.76300  0.23800  0.33800  1.0000
  H   H20       1.0  0.23700  0.76200  0.66200  1.0000
  H   H21       1.0  0.74000  0.53600  0.15900  1.0000
  H   H22       1.0  0.26000  0.46400  0.84100  1.0000
  H   H23       1.0  0.84000  0.57400  0.21300  1.0000
  H   H24       1.0  0.16000  0.42600  0.78700  1.0000
  H   H25       1.0  0.16200  0.41900  0.10100  1.0000
  H   H26       1.0  0.83800  0.58100  0.89900  1.0000
  H   H27       1.0  0.19600  0.28100  0.07200  1.0000
  H   H28       1.0  0.80400  0.71900  0.92800  1.0000
  H   H29       1.0  0.07900  0.07700  0.28000  1.0000
  H   H30       1.0  0.92100  0.92300  0.72000  1.0000
  H   H31       1.0  0.07200  0.05600  0.19100  1.0000
  H   H32       1.0  0.92800  0.94400  0.80900  1.0000
  C   C23       1.0  0.22690  0.16030  0.39080  1.0000
  C   C24       1.0  0.77310  0.83970  0.60920  1.0000
  O   O31       1.0  0.23670  0.52230  0.32490  1.0000
  O   O32       1.0  0.76330  0.47770  0.67510  1.0000
  O   O33       1.0  0.45710  0.92930  0.42410  1.0000
  O   O34       1.0  0.54290  0.07070  0.57590  1.0000
  O   O35       1.0  0.51410  0.81510  0.30140  1.0000
  O   O36       1.0  0.48590  0.18490  0.69860  1.0000
  O   O37       1.0  0.21880  0.23900  0.45130  1.0000
  O   O38       1.0  0.78120  0.76100  0.54870  1.0000
  O   O39       1.0  0.13810  0.07120  0.39010  1.0000
  O   O40       1.0  0.86190  0.92880  0.60990  1.0000
  Co  Co5       1.0  0.00000  0.00000  0.50000  1.0000
  O   O41       1.0  0.94150  0.19690  0.54900  1.0000
  O   O42       1.0  0.05850  0.80310  0.45100  1.0000
  O   O43       1.0  0.79530  0.04580  0.42540  1.0000
  O   O44       1.0  0.20470  0.95420  0.57460  1.0000
  H   H33       1.0  0.03200  0.22100  0.54500  1.0000
  H   H34       1.0  0.96800  0.77900  0.45500  1.0000
  H   H35       1.0  0.86800  0.27100  0.55400  1.0000
  H   H36       1.0  0.13200  0.72900  0.44600  1.0000
  H   H37       1.0  0.71100  0.04100  0.46200  1.0000
  H   H38       1.0  0.28900  0.95900  0.53800  1.0000
  H   H39       1.0  0.80300  0.99000  0.38400  1.0000
  H   H40       1.0  0.19700  0.01000  0.61600  1.0000
