data_image0
_chemical_formula_structural       Cu2N2C2H2C2H2C4H2C2H2C4H2C2H2N2C2H2C2H2Mo8O26
_chemical_formula_sum              "Cu2 N4 C20 H16 Mo8 O26"
_cell_length_a       7.7964
_cell_length_b       10.4432
_cell_length_c       13.0463
_cell_angle_alpha    100.635
_cell_angle_beta     100.924
_cell_angle_gamma    108.981

_space_group_name_H-M_alt    "P 1"
_space_group_IT_number       1

loop_
  _space_group_symop_operation_xyz
  'x, y, z'

loop_
  _atom_site_type_symbol
  _atom_site_label
  _atom_site_symmetry_multiplicity
  _atom_site_fract_x
  _atom_site_fract_y
  _atom_site_fract_z
  _atom_site_occupancy
  Cu  Cu1       1.0  0.29890  0.83109  0.06509  1.0000
  Cu  Cu2       1.0  0.70110  0.16891  0.93491  1.0000
  N   N1        1.0  0.32510  0.99780  0.05460  1.0000
  N   N2        1.0  0.67490  0.00220  0.94540  1.0000
  C   C1        1.0  0.21520  0.01560  0.97320  1.0000
  C   C2        1.0  0.78480  0.98440  0.02680  1.0000
  H   H1        1.0  0.14090  0.93710  0.91610  1.0000
  H   H2        1.0  0.85910  0.06290  0.08390  1.0000
  C   C3        1.0  0.20250  0.13920  0.96660  1.0000
  C   C4        1.0  0.79750  0.86080  0.03340  1.0000
  H   H3        1.0  0.12340  0.14470  0.90600  1.0000
  H   H4        1.0  0.87660  0.85530  0.09400  1.0000
  C   C5        1.0  0.31040  0.26130  0.05270  1.0000
  C   C6        1.0  0.68960  0.73870  0.94730  1.0000
  C   C7        1.0  0.43060  0.24390  0.13830  1.0000
  C   C8        1.0  0.56940  0.75610  0.86170  1.0000
  H   H5        1.0  0.50780  0.32040  0.19630  1.0000
  H   H6        1.0  0.49220  0.67960  0.80370  1.0000
  C   C9        1.0  0.43340  0.11420  0.13580  1.0000
  C   C10       1.0  0.56660  0.88580  0.86420  1.0000
  H   H7        1.0  0.51470  0.10470  0.19350  1.0000
  H   H8        1.0  0.48530  0.89530  0.80650  1.0000
  C   C11       1.0  0.29600  0.39640  0.05190  1.0000
  C   C12       1.0  0.70400  0.60360  0.94810  1.0000
  C   C13       1.0  0.22130  0.42780  0.95620  1.0000
  C   C14       1.0  0.77870  0.57220  0.04380  1.0000
  H   H9        1.0  0.17350  0.35900  0.89060  1.0000
  H   H10       1.0  0.82650  0.64100  0.10940  1.0000
  C   C15       1.0  0.21930  0.55760  0.95990  1.0000
  C   C16       1.0  0.78070  0.44240  0.04010  1.0000
  H   H11       1.0  0.17070  0.57620  0.89590  1.0000
  H   H12       1.0  0.82930  0.42380  0.10410  1.0000
  N   N3        1.0  0.28470  0.66070  0.05230  1.0000
  N   N4        1.0  0.71530  0.33930  0.94770  1.0000
  C   C17       1.0  0.34630  0.62900  0.14470  1.0000
  C   C18       1.0  0.65370  0.37100  0.85530  1.0000
  H   H13       1.0  0.38340  0.69770  0.20970  1.0000
  H   H14       1.0  0.61660  0.30230  0.79030  1.0000
  C   C19       1.0  0.35700  0.50300  0.14790  1.0000
  C   C20       1.0  0.64300  0.49700  0.85210  1.0000
  H   H15       1.0  0.40460  0.48760  0.21350  1.0000
  H   H16       1.0  0.59540  0.51240  0.78650  1.0000
  Mo  Mo1       1.0  0.95583  0.75823  0.67092  1.0000
  Mo  Mo2       1.0  0.04417  0.24177  0.32908  1.0000
  Mo  Mo3       1.0  0.22505  0.03354  0.58778  1.0000
  Mo  Mo4       1.0  0.77495  0.96646  0.41222  1.0000
  Mo  Mo5       1.0  0.91134  0.70582  0.41004  1.0000
  Mo  Mo6       1.0  0.08866  0.29418  0.58996  1.0000
  Mo  Mo7       1.0  0.18650  0.97987  0.33246  1.0000
  Mo  Mo8       1.0  0.81350  0.02013  0.66754  1.0000
  O   O1        1.0  0.90100  0.89090  0.53730  1.0000
  O   O2        1.0  0.09900  0.10910  0.46270  1.0000
  O   O3        1.0  0.20220  0.89540  0.45790  1.0000
  O   O4        1.0  0.79780  0.10460  0.54210  1.0000
  O   O5        1.0  0.23160  0.92870  0.67750  1.0000
  O   O6        1.0  0.76840  0.07130  0.32250  1.0000
  O   O7        1.0  0.01700  0.67600  0.54400  1.0000
  O   O8        1.0  0.98300  0.32400  0.45600  1.0000
  O   O9        1.0  0.72320  0.64790  0.63710  1.0000
  O   O10       1.0  0.27680  0.35210  0.36290  1.0000
  O   O11       1.0  0.93570  0.92370  0.74840  1.0000
  O   O12       1.0  0.06430  0.07630  0.25160  1.0000
  O   O13       1.0  0.06820  0.70940  0.77250  1.0000
  O   O14       1.0  0.93180  0.29060  0.22750  1.0000
  O   O15       1.0  0.44960  0.14870  0.61320  1.0000
  O   O16       1.0  0.55040  0.85130  0.38680  1.0000
  O   O17       1.0  0.12150  0.15470  0.66880  1.0000
  O   O18       1.0  0.87850  0.84530  0.33120  1.0000
  O   O19       1.0  0.67950  0.60080  0.38590  1.0000
  O   O20       1.0  0.32050  0.39920  0.61410  1.0000
  O   O21       1.0  0.99740  0.61510  0.32510  1.0000
  O   O22       1.0  0.00260  0.38490  0.67490  1.0000
  O   O23       1.0  0.41250  0.09650  0.36980  1.0000
  O   O24       1.0  0.58750  0.90350  0.63020  1.0000
  O   O25       1.0  0.17510  0.84880  0.22890  1.0000
  O   O26       1.0  0.82490  0.15120  0.77110  1.0000
