data_image0
_chemical_formula_structural       C6H2C4O10U
_chemical_formula_sum              "C10 H2 O10 U1"
_cell_length_a       7.1802
_cell_length_b       7.1899
_cell_length_c       9.1634
_cell_angle_alpha    88.785
_cell_angle_beta     78.454
_cell_angle_gamma    76.599

_space_group_name_H-M_alt    "P 1"
_space_group_IT_number       1

loop_
  _space_group_symop_operation_xyz
  'x, y, z'

loop_
  _atom_site_type_symbol
  _atom_site_label
  _atom_site_symmetry_multiplicity
  _atom_site_fract_x
  _atom_site_fract_y
  _atom_site_fract_z
  _atom_site_occupancy
  C   C1        1.0  0.48970  0.88320  0.12260  1.0000
  C   C2        1.0  0.51030  0.11680  0.87740  1.0000
  C   C3        1.0  0.43570  0.08250  0.14580  1.0000
  C   C4        1.0  0.56430  0.91750  0.85420  1.0000
  C   C5        1.0  0.44930  0.19570  0.02130  1.0000
  C   C6        1.0  0.55070  0.80430  0.97870  1.0000
  H   H1        1.0  0.41590  0.33090  0.03460  1.0000
  H   H2        1.0  0.58410  0.66910  0.96540  1.0000
  C   C7        1.0  0.48810  0.75110  0.24960  1.0000
  C   C8        1.0  0.51190  0.24890  0.75040  1.0000
  C   C9        1.0  0.36110  0.18630  0.29590  1.0000
  C   C10       1.0  0.63890  0.81370  0.70410  1.0000
  O   O1        1.0  0.24020  0.55520  0.54420  1.0000
  O   O2        1.0  0.75980  0.44480  0.45580  1.0000
  O   O3        1.0  0.52090  0.57330  0.22750  1.0000
  O   O4        1.0  0.47910  0.42670  0.77250  1.0000
  O   O5        1.0  0.45710  0.81780  0.38150  1.0000
  O   O6        1.0  0.54290  0.18220  0.61850  1.0000
  O   O7        1.0  0.49150  0.24460  0.34580  1.0000
  O   O8        1.0  0.50850  0.75540  0.65420  1.0000
  O   O9        1.0  0.18580  0.21640  0.35150  1.0000
  O   O10       1.0  0.81420  0.78360  0.64850  1.0000
  U   U1        1.0  0.50000  0.50000  0.50000  1.0000
