data_image0
_chemical_formula_structural       Cd4O24N4C12H4C4H4C4H4C4H4C12H4C4H4C8H4C4H4C4H8C4H8C8H4C4H4C4H4C4H4C12H4C4H4C4H4C4H4C12H8C8H4C4H4C8H4C4H4C8H4C4H4C4H4C4H4C8
_chemical_formula_sum              "Cd4 O24 N4 C168 H120"
_cell_length_a       14.0084
_cell_length_b       12.3736
_cell_length_c       22.6997
_cell_angle_alpha    90
_cell_angle_beta     90.595
_cell_angle_gamma    90

_space_group_name_H-M_alt    "P 1"
_space_group_IT_number       1

loop_
  _space_group_symop_operation_xyz
  'x, y, z'

loop_
  _atom_site_type_symbol
  _atom_site_label
  _atom_site_symmetry_multiplicity
  _atom_site_fract_x
  _atom_site_fract_y
  _atom_site_fract_z
  _atom_site_occupancy
  Cd  Cd1       1.0  0.94644  0.90129  0.43568  1.0000
  Cd  Cd2       1.0  0.55356  0.40129  0.06432  1.0000
  Cd  Cd3       1.0  0.05356  0.09871  0.56432  1.0000
  Cd  Cd4       1.0  0.44644  0.59871  0.93568  1.0000
  O   O1        1.0  0.92506  0.07355  0.38595  1.0000
  O   O2        1.0  0.57494  0.57355  0.11405  1.0000
  O   O3        1.0  0.07494  0.92645  0.61405  1.0000
  O   O4        1.0  0.42506  0.42645  0.88595  1.0000
  O   O5        1.0  0.99311  0.93810  0.34082  1.0000
  O   O6        1.0  0.50689  0.43810  0.15918  1.0000
  O   O7        1.0  0.00689  0.06190  0.65918  1.0000
  O   O8        1.0  0.49311  0.56190  0.84082  1.0000
  O   O9        1.0  0.18970  0.18950  0.59695  1.0000
  O   O10       1.0  0.31030  0.68950  0.90305  1.0000
  O   O11       1.0  0.81030  0.81050  0.40305  1.0000
  O   O12       1.0  0.68970  0.31050  0.09695  1.0000
  O   O13       1.0  0.10664  0.27900  0.53115  1.0000
  O   O14       1.0  0.39336  0.77900  0.96885  1.0000
  O   O15       1.0  0.89336  0.72100  0.46885  1.0000
  O   O16       1.0  0.60664  0.22100  0.03115  1.0000
  O   O17       1.0  0.41772  0.34525  0.02424  1.0000
  O   O18       1.0  0.08228  0.84525  0.47576  1.0000
  O   O19       1.0  0.58228  0.65475  0.97576  1.0000
  O   O20       1.0  0.91772  0.15475  0.52424  1.0000
  O   O21       1.0  0.37981  0.51896  0.01439  1.0000
  O   O22       1.0  0.12019  0.01896  0.48561  1.0000
  O   O23       1.0  0.62019  0.48104  0.98561  1.0000
  O   O24       1.0  0.87981  0.98104  0.51439  1.0000
  N   N1        1.0  0.42923  0.12740  0.27928  1.0000
  N   N2        1.0  0.07077  0.62740  0.22072  1.0000
  N   N3        1.0  0.57077  0.87260  0.72072  1.0000
  N   N4        1.0  0.92923  0.37260  0.77928  1.0000
  C   C1        1.0  0.17710  0.26960  0.56434  1.0000
  C   C2        1.0  0.32290  0.76960  0.93566  1.0000
  C   C3        1.0  0.82290  0.73040  0.43566  1.0000
  C   C4        1.0  0.67710  0.23040  0.06434  1.0000
  C   C5        1.0  0.25090  0.35870  0.56638  1.0000
  C   C6        1.0  0.24910  0.85870  0.93362  1.0000
  C   C7        1.0  0.74910  0.64130  0.43362  1.0000
  C   C8        1.0  0.75090  0.14130  0.06638  1.0000
  C   C9        1.0  0.25400  0.42080  0.61720  1.0000
  C   C10       1.0  0.24600  0.92080  0.88280  1.0000
  C   C11       1.0  0.74600  0.57920  0.38280  1.0000
  C   C12       1.0  0.75400  0.07920  0.11720  1.0000
  H   H1        1.0  0.21330  0.40470  0.64810  1.0000
  H   H2        1.0  0.28670  0.90470  0.85190  1.0000
  H   H3        1.0  0.78670  0.59530  0.35190  1.0000
  H   H4        1.0  0.71330  0.09530  0.14810  1.0000
  C   C13       1.0  0.31700  0.50620  0.62247  1.0000
  C   C14       1.0  0.18300  0.00620  0.87753  1.0000
  C   C15       1.0  0.68300  0.49380  0.37753  1.0000
  C   C16       1.0  0.81700  0.99380  0.12247  1.0000
  H   H5        1.0  0.31850  0.54740  0.65680  1.0000
  H   H6        1.0  0.18150  0.04740  0.84320  1.0000
  H   H7        1.0  0.68150  0.45260  0.34320  1.0000
  H   H8        1.0  0.81850  0.95260  0.15680  1.0000
  C   C17       1.0  0.37690  0.53010  0.57740  1.0000
  C   C18       1.0  0.12310  0.03010  0.92260  1.0000
  C   C19       1.0  0.62310  0.46990  0.42260  1.0000
  C   C20       1.0  0.87690  0.96990  0.07740  1.0000
  H   H9        1.0  0.41860  0.58830  0.58070  1.0000
  H   H10       1.0  0.08140  0.08830  0.91930  1.0000
  H   H11       1.0  0.58140  0.41170  0.41930  1.0000
  H   H12       1.0  0.91860  0.91170  0.08070  1.0000
  C   C21       1.0  0.37570  0.46820  0.52683  1.0000
  C   C22       1.0  0.12430  0.96820  0.97317  1.0000
  C   C23       1.0  0.62430  0.53180  0.47317  1.0000
  C   C24       1.0  0.87570  0.03180  0.02683  1.0000
  H   H13       1.0  0.41750  0.48480  0.49660  1.0000
  H   H14       1.0  0.08250  0.98480  0.00340  1.0000
  H   H15       1.0  0.58250  0.51520  0.50340  1.0000
  H   H16       1.0  0.91750  0.01520  0.99660  1.0000
  C   C25       1.0  0.31280  0.38060  0.51996  1.0000
  C   C26       1.0  0.18720  0.88060  0.98004  1.0000
  C   C27       1.0  0.68720  0.61940  0.48004  1.0000
  C   C28       1.0  0.81280  0.11940  0.01996  1.0000
  C   C29       1.0  0.31680  0.31530  0.46499  1.0000
  C   C30       1.0  0.18320  0.81530  0.03501  1.0000
  C   C31       1.0  0.68320  0.68470  0.53501  1.0000
  C   C32       1.0  0.81680  0.18470  0.96499  1.0000
  C   C33       1.0  0.30030  0.20490  0.46512  1.0000
  C   C34       1.0  0.19970  0.70490  0.03488  1.0000
  C   C35       1.0  0.69970  0.79510  0.53488  1.0000
  C   C36       1.0  0.80030  0.29510  0.96512  1.0000
  H   H17       1.0  0.28500  0.17100  0.50040  1.0000
  H   H18       1.0  0.21500  0.67100  0.99960  1.0000
  H   H19       1.0  0.71500  0.82900  0.49960  1.0000
  H   H20       1.0  0.78500  0.32900  0.00040  1.0000
  C   C37       1.0  0.30590  0.14400  0.41445  1.0000
  C   C38       1.0  0.19410  0.64400  0.08555  1.0000
  C   C39       1.0  0.69410  0.85600  0.58555  1.0000
  C   C40       1.0  0.80590  0.35600  0.91445  1.0000
  H   H21       1.0  0.29440  0.07000  0.41630  1.0000
  H   H22       1.0  0.20560  0.57000  0.08370  1.0000
  H   H23       1.0  0.70560  0.93000  0.58370  1.0000
  H   H24       1.0  0.79440  0.43000  0.91630  1.0000
  C   C41       1.0  0.32800  0.19010  0.36122  1.0000
  C   C42       1.0  0.17200  0.69010  0.13878  1.0000
  C   C43       1.0  0.67200  0.80990  0.63878  1.0000
  C   C44       1.0  0.82800  0.30990  0.86122  1.0000
  C   C45       1.0  0.34580  0.30040  0.36026  1.0000
  C   C46       1.0  0.15420  0.80040  0.13974  1.0000
  C   C47       1.0  0.65420  0.69960  0.63974  1.0000
  C   C48       1.0  0.84580  0.19960  0.86026  1.0000
  H   H25       1.0  0.36180  0.33370  0.32500  1.0000
  H   H26       1.0  0.13820  0.83370  0.17500  1.0000
  H   H27       1.0  0.63820  0.66630  0.67500  1.0000
  H   H28       1.0  0.86180  0.16630  0.82500  1.0000
  C   C49       1.0  0.34010  0.36080  0.41092  1.0000
  C   C50       1.0  0.15990  0.86080  0.08908  1.0000
  C   C51       1.0  0.65990  0.63920  0.58908  1.0000
  C   C52       1.0  0.84010  0.13920  0.91092  1.0000
  H   H29       1.0  0.35220  0.43460  0.40900  1.0000
  H   H30       1.0  0.14780  0.93460  0.09100  1.0000
  H   H31       1.0  0.64780  0.56540  0.59100  1.0000
  H   H32       1.0  0.85220  0.06540  0.90900  1.0000
  C   C53       1.0  0.33460  0.12280  0.30586  1.0000
  C   C54       1.0  0.16540  0.62280  0.19414  1.0000
  C   C55       1.0  0.66540  0.87720  0.69414  1.0000
  C   C56       1.0  0.83460  0.37720  0.80586  1.0000
  H   H33       1.0  0.31960  0.04820  0.31520  1.0000
  H   H34       1.0  0.18040  0.54820  0.18480  1.0000
  H   H35       1.0  0.68040  0.95180  0.68480  1.0000
  H   H36       1.0  0.81960  0.45180  0.81520  1.0000
  H   H37       1.0  0.28750  0.14820  0.27750  1.0000
  H   H38       1.0  0.21250  0.64820  0.22250  1.0000
  H   H39       1.0  0.71250  0.85180  0.72250  1.0000
  H   H40       1.0  0.78750  0.35180  0.77750  1.0000
  C   C57       1.0  0.42800  0.07480  0.22144  1.0000
  C   C58       1.0  0.07200  0.57480  0.27856  1.0000
  C   C59       1.0  0.57200  0.92520  0.77856  1.0000
  C   C60       1.0  0.92800  0.42520  0.72144  1.0000
  H   H41       1.0  0.40310  0.00210  0.22560  1.0000
  H   H42       1.0  0.09690  0.50210  0.27440  1.0000
  H   H43       1.0  0.59690  0.99790  0.77440  1.0000
  H   H44       1.0  0.90310  0.49790  0.72560  1.0000
  H   H45       1.0  0.49290  0.06930  0.20730  1.0000
  H   H46       1.0  0.00710  0.56930  0.29270  1.0000
  H   H47       1.0  0.50710  0.93070  0.79270  1.0000
  H   H48       1.0  0.99290  0.43070  0.70730  1.0000
  C   C61       1.0  0.36860  0.13470  0.17674  1.0000
  C   C62       1.0  0.13140  0.63470  0.32326  1.0000
  C   C63       1.0  0.63140  0.86530  0.82326  1.0000
  C   C64       1.0  0.86860  0.36530  0.67674  1.0000
  C   C65       1.0  0.36680  0.24680  0.17628  1.0000
  C   C66       1.0  0.13320  0.74680  0.32372  1.0000
  C   C67       1.0  0.63320  0.75320  0.82372  1.0000
  C   C68       1.0  0.86680  0.25320  0.67628  1.0000
  H   H49       1.0  0.40090  0.28500  0.20480  1.0000
  H   H50       1.0  0.09910  0.78500  0.29520  1.0000
  H   H51       1.0  0.59910  0.71500  0.79520  1.0000
  H   H52       1.0  0.90090  0.21500  0.70480  1.0000
  C   C69       1.0  0.31520  0.30240  0.13404  1.0000
  C   C70       1.0  0.18480  0.80240  0.36596  1.0000
  C   C71       1.0  0.68480  0.69760  0.86596  1.0000
  C   C72       1.0  0.81520  0.19760  0.63404  1.0000
  H   H53       1.0  0.31350  0.37750  0.13520  1.0000
  H   H54       1.0  0.18650  0.87750  0.36480  1.0000
  H   H55       1.0  0.68650  0.62250  0.86480  1.0000
  H   H56       1.0  0.81350  0.12250  0.63520  1.0000
  C   C73       1.0  0.26630  0.13670  0.09061  1.0000
  C   C74       1.0  0.23370  0.63670  0.40939  1.0000
  C   C75       1.0  0.73370  0.86330  0.90939  1.0000
  C   C76       1.0  0.76630  0.36330  0.59061  1.0000
  H   H57       1.0  0.23330  0.09830  0.06170  1.0000
  H   H58       1.0  0.26670  0.59830  0.43830  1.0000
  H   H59       1.0  0.76670  0.90170  0.93830  1.0000
  H   H60       1.0  0.73330  0.40170  0.56170  1.0000
  C   C77       1.0  0.31590  0.08150  0.13409  1.0000
  C   C78       1.0  0.18410  0.58150  0.36591  1.0000
  C   C79       1.0  0.68410  0.91850  0.86591  1.0000
  C   C80       1.0  0.81590  0.41850  0.63409  1.0000
  H   H61       1.0  0.31370  0.00640  0.13460  1.0000
  H   H62       1.0  0.18630  0.50640  0.36540  1.0000
  H   H63       1.0  0.68630  0.99360  0.86540  1.0000
  H   H64       1.0  0.81370  0.49360  0.63460  1.0000
  C   C81       1.0  0.26520  0.24800  0.08952  1.0000
  C   C82       1.0  0.23480  0.74800  0.41048  1.0000
  C   C83       1.0  0.73480  0.75200  0.91048  1.0000
  C   C84       1.0  0.76520  0.25200  0.58952  1.0000
  C   C85       1.0  0.21230  0.30790  0.04267  1.0000
  C   C86       1.0  0.28770  0.80790  0.45733  1.0000
  C   C87       1.0  0.78770  0.69210  0.95733  1.0000
  C   C88       1.0  0.71230  0.19210  0.54267  1.0000
  C   C89       1.0  0.11640  0.28510  0.03249  1.0000
  C   C90       1.0  0.38360  0.78510  0.46751  1.0000
  C   C91       1.0  0.88360  0.71490  0.96751  1.0000
  C   C92       1.0  0.61640  0.21490  0.53249  1.0000
  H   H65       1.0  0.08740  0.22990  0.05360  1.0000
  H   H66       1.0  0.41260  0.72990  0.44640  1.0000
  H   H67       1.0  0.91260  0.77010  0.94640  1.0000
  H   H68       1.0  0.58740  0.27010  0.55360  1.0000
  C   C93       1.0  0.06320  0.34300  0.99150  1.0000
  C   C94       1.0  0.43680  0.84300  0.50850  1.0000
  C   C95       1.0  0.93680  0.65700  0.00850  1.0000
  C   C96       1.0  0.56320  0.15700  0.49150  1.0000
  H   H69       1.0  0.99910  0.32660  0.98530  1.0000
  H   H70       1.0  0.50090  0.82660  0.51470  1.0000
  H   H71       1.0  0.00090  0.67340  0.01470  1.0000
  H   H72       1.0  0.49910  0.17340  0.48530  1.0000
  C   C97       1.0  0.10480  0.42400  0.96024  1.0000
  C   C98       1.0  0.39520  0.92400  0.53976  1.0000
  C   C99       1.0  0.89520  0.57600  0.03976  1.0000
  C   C100      1.0  0.60480  0.07600  0.46024  1.0000
  H   H73       1.0  0.06850  0.46380  0.93340  1.0000
  H   H74       1.0  0.43150  0.96380  0.56660  1.0000
  H   H75       1.0  0.93150  0.53620  0.06660  1.0000
  H   H76       1.0  0.56850  0.03620  0.43340  1.0000
  C   C101      1.0  0.20000  0.44740  0.96806  1.0000
  C   C102      1.0  0.30000  0.94740  0.53194  1.0000
  C   C103      1.0  0.80000  0.55260  0.03194  1.0000
  C   C104      1.0  0.70000  0.05260  0.46806  1.0000
  H   H77       1.0  0.22840  0.50140  0.94570  1.0000
  H   H78       1.0  0.27160  0.00140  0.55430  1.0000
  H   H79       1.0  0.77160  0.49860  0.05430  1.0000
  H   H80       1.0  0.72840  0.99860  0.44570  1.0000
  C   C105      1.0  0.25424  0.39020  0.00962  1.0000
  C   C106      1.0  0.24576  0.89020  0.49038  1.0000
  C   C107      1.0  0.74576  0.60980  0.99038  1.0000
  C   C108      1.0  0.75424  0.10980  0.50962  1.0000
  C   C109      1.0  0.35770  0.42020  0.01638  1.0000
  C   C110      1.0  0.14230  0.92020  0.48362  1.0000
  C   C111      1.0  0.64230  0.57980  0.98362  1.0000
  C   C112      1.0  0.85770  0.07980  0.51638  1.0000
  C   C113      1.0  0.50010  0.07840  0.31856  1.0000
  C   C114      1.0  0.99990  0.57840  0.18144  1.0000
  C   C115      1.0  0.49990  0.92160  0.68144  1.0000
  C   C116      1.0  0.00010  0.42160  0.81856  1.0000
  H   H81       1.0  0.48840  0.00120  0.32030  1.0000
  H   H82       1.0  0.01160  0.50120  0.17970  1.0000
  H   H83       1.0  0.51160  0.99880  0.67970  1.0000
  H   H84       1.0  0.98840  0.49880  0.82030  1.0000
  H   H85       1.0  0.49160  0.10740  0.35790  1.0000
  H   H86       1.0  0.00840  0.60740  0.14210  1.0000
  H   H87       1.0  0.50840  0.89260  0.64210  1.0000
  H   H88       1.0  0.99160  0.39260  0.85790  1.0000
  C   C117      1.0  0.60190  0.09690  0.30041  1.0000
  C   C118      1.0  0.89810  0.59690  0.19959  1.0000
  C   C119      1.0  0.39810  0.90310  0.69959  1.0000
  C   C120      1.0  0.10190  0.40310  0.80041  1.0000
  C   C121      1.0  0.66750  0.01430  0.30287  1.0000
  C   C122      1.0  0.83250  0.51430  0.19713  1.0000
  C   C123      1.0  0.33250  0.98570  0.69713  1.0000
  C   C124      1.0  0.16750  0.48570  0.80287  1.0000
  H   H89       1.0  0.64730  0.94560  0.31360  1.0000
  H   H90       1.0  0.85270  0.44560  0.18640  1.0000
  H   H91       1.0  0.35270  0.05440  0.68640  1.0000
  H   H92       1.0  0.14730  0.55440  0.81360  1.0000
  C   C125      1.0  0.76270  0.03040  0.28982  1.0000
  C   C126      1.0  0.73730  0.53040  0.21018  1.0000
  C   C127      1.0  0.23730  0.96960  0.71018  1.0000
  C   C128      1.0  0.26270  0.46960  0.78982  1.0000
  H   H93       1.0  0.80510  0.97260  0.29190  1.0000
  H   H94       1.0  0.69490  0.47260  0.20810  1.0000
  H   H95       1.0  0.19490  0.02740  0.70810  1.0000
  H   H96       1.0  0.30510  0.52740  0.79190  1.0000
  C   C129      1.0  0.79550  0.13170  0.27376  1.0000
  C   C130      1.0  0.70450  0.63170  0.22624  1.0000
  C   C131      1.0  0.20450  0.86830  0.72624  1.0000
  C   C132      1.0  0.29550  0.36830  0.77376  1.0000
  C   C133      1.0  0.72910  0.21530  0.27156  1.0000
  C   C134      1.0  0.77090  0.71530  0.22844  1.0000
  C   C135      1.0  0.27090  0.78470  0.72844  1.0000
  C   C136      1.0  0.22910  0.28470  0.77156  1.0000
  H   H97       1.0  0.74910  0.28430  0.26110  1.0000
  H   H98       1.0  0.75090  0.78430  0.23890  1.0000
  H   H99       1.0  0.25090  0.71570  0.73890  1.0000
  H   H100      1.0  0.24910  0.21570  0.76110  1.0000
  C   C137      1.0  0.63430  0.19800  0.28456  1.0000
  C   C138      1.0  0.86570  0.69800  0.21544  1.0000
  C   C139      1.0  0.36570  0.80200  0.71544  1.0000
  C   C140      1.0  0.13430  0.30200  0.78456  1.0000
  H   H101      1.0  0.59150  0.25540  0.28260  1.0000
  H   H102      1.0  0.90850  0.75540  0.21740  1.0000
  H   H103      1.0  0.40850  0.74460  0.71740  1.0000
  H   H104      1.0  0.09150  0.24460  0.78260  1.0000
  C   C141      1.0  0.89670  0.14940  0.25725  1.0000
  C   C142      1.0  0.60330  0.64940  0.24275  1.0000
  C   C143      1.0  0.10330  0.85060  0.74275  1.0000
  C   C144      1.0  0.39670  0.35060  0.75725  1.0000
  C   C145      1.0  0.91730  0.21440  0.20857  1.0000
  C   C146      1.0  0.58270  0.71440  0.29143  1.0000
  C   C147      1.0  0.08270  0.78560  0.79143  1.0000
  C   C148      1.0  0.41730  0.28560  0.70857  1.0000
  H   H105      1.0  0.86750  0.24810  0.18830  1.0000
  H   H106      1.0  0.63250  0.74810  0.31170  1.0000
  H   H107      1.0  0.13250  0.75190  0.81170  1.0000
  H   H108      1.0  0.36750  0.25190  0.68830  1.0000
  C   C149      1.0  0.00950  0.22950  0.18999  1.0000
  C   C150      1.0  0.49050  0.72950  0.31001  1.0000
  C   C151      1.0  0.99050  0.77050  0.81001  1.0000
  C   C152      1.0  0.50950  0.27050  0.68999  1.0000
  H   H109      1.0  0.02140  0.27470  0.15820  1.0000
  H   H110      1.0  0.47860  0.77470  0.34180  1.0000
  H   H111      1.0  0.97860  0.72530  0.84180  1.0000
  H   H112      1.0  0.52140  0.22530  0.65820  1.0000
  C   C153      1.0  0.08360  0.17870  0.21800  1.0000
  C   C154      1.0  0.41640  0.67870  0.28200  1.0000
  C   C155      1.0  0.91640  0.82130  0.78200  1.0000
  C   C156      1.0  0.58360  0.32130  0.71800  1.0000
  H   H113      1.0  0.14590  0.18830  0.20500  1.0000
  H   H114      1.0  0.35410  0.68830  0.29500  1.0000
  H   H115      1.0  0.85410  0.81170  0.79500  1.0000
  H   H116      1.0  0.64590  0.31170  0.70500  1.0000
  C   C157      1.0  0.06540  0.11320  0.26557  1.0000
  C   C158      1.0  0.43460  0.61320  0.23443  1.0000
  C   C159      1.0  0.93460  0.88680  0.73443  1.0000
  C   C160      1.0  0.56540  0.38680  0.76557  1.0000
  H   H117      1.0  0.11580  0.07770  0.28420  1.0000
  H   H118      1.0  0.38420  0.57770  0.21580  1.0000
  H   H119      1.0  0.88420  0.92230  0.71580  1.0000
  H   H120      1.0  0.61580  0.42230  0.78420  1.0000
  C   C161      1.0  0.97400  0.09910  0.28630  1.0000
  C   C162      1.0  0.52600  0.59910  0.21370  1.0000
  C   C163      1.0  0.02600  0.90090  0.71370  1.0000
  C   C164      1.0  0.47400  0.40090  0.78630  1.0000
  C   C165      1.0  0.96230  0.03270  0.34125  1.0000
  C   C166      1.0  0.53770  0.53270  0.15875  1.0000
  C   C167      1.0  0.03770  0.96730  0.65875  1.0000
  C   C168      1.0  0.46230  0.46730  0.84125  1.0000
