data_image0
_chemical_formula_structural       C8H4C12H4C8H4C4O28S4Zn4
_chemical_formula_sum              "C32 H12 O28 S4 Zn4"
_cell_length_a       11.2499
_cell_length_b       11.7888
_cell_length_c       16.2271
_cell_angle_alpha    90
_cell_angle_beta     129.399
_cell_angle_gamma    90

_space_group_name_H-M_alt    "P 1"
_space_group_IT_number       1

loop_
  _space_group_symop_operation_xyz
  'x, y, z'

loop_
  _atom_site_type_symbol
  _atom_site_label
  _atom_site_symmetry_multiplicity
  _atom_site_fract_x
  _atom_site_fract_y
  _atom_site_fract_z
  _atom_site_occupancy
  C   C1        1.0  0.14176  0.89649  0.76824  1.0000
  C   C2        1.0  0.85824  0.39649  0.73176  1.0000
  C   C3        1.0  0.85824  0.10351  0.23176  1.0000
  C   C4        1.0  0.14176  0.60351  0.26824  1.0000
  C   C5        1.0  0.08292  0.80827  0.69581  1.0000
  C   C6        1.0  0.91708  0.30827  0.80419  1.0000
  C   C7        1.0  0.91708  0.19173  0.30419  1.0000
  C   C8        1.0  0.08292  0.69173  0.19581  1.0000
  H   H1        1.0  0.97750  0.78800  0.65400  1.0000
  H   H2        1.0  0.02250  0.28800  0.84600  1.0000
  H   H3        1.0  0.02250  0.21200  0.34600  1.0000
  H   H4        1.0  0.97750  0.71200  0.15400  1.0000
  C   C9        1.0  0.17924  0.74918  0.68447  1.0000
  C   C10       1.0  0.82076  0.24918  0.81553  1.0000
  C   C11       1.0  0.82076  0.25082  0.31553  1.0000
  C   C12       1.0  0.17924  0.75082  0.18447  1.0000
  C   C13       1.0  0.11732  0.65186  0.60859  1.0000
  C   C14       1.0  0.88268  0.15186  0.89141  1.0000
  C   C15       1.0  0.88268  0.34814  0.39141  1.0000
  C   C16       1.0  0.11732  0.84814  0.10859  1.0000
  C   C17       1.0  0.33305  0.78057  0.74481  1.0000
  C   C18       1.0  0.66695  0.28057  0.75519  1.0000
  C   C19       1.0  0.66695  0.21943  0.25519  1.0000
  C   C20       1.0  0.33305  0.71943  0.24481  1.0000
  H   H5        1.0  0.39850  0.74090  0.73670  1.0000
  H   H6        1.0  0.60150  0.24090  0.76330  1.0000
  H   H7        1.0  0.60150  0.25910  0.26330  1.0000
  H   H8        1.0  0.39850  0.75910  0.23670  1.0000
  C   C21       1.0  0.39113  0.86987  0.81698  1.0000
  C   C22       1.0  0.60887  0.36987  0.68302  1.0000
  C   C23       1.0  0.60887  0.13013  0.18302  1.0000
  C   C24       1.0  0.39113  0.63013  0.31698  1.0000
  C   C25       1.0  0.29590  0.92767  0.82970  1.0000
  C   C26       1.0  0.70410  0.42767  0.67030  1.0000
  C   C27       1.0  0.70410  0.07233  0.17030  1.0000
  C   C28       1.0  0.29590  0.57233  0.32970  1.0000
  H   H9        1.0  0.33560  0.98780  0.87980  1.0000
  H   H10       1.0  0.66440  0.48780  0.62020  1.0000
  H   H11       1.0  0.66440  0.01220  0.12020  1.0000
  H   H12       1.0  0.33560  0.51220  0.37980  1.0000
  C   C29       1.0  0.55614  0.90437  0.88058  1.0000
  C   C30       1.0  0.44386  0.40437  0.61942  1.0000
  C   C31       1.0  0.44386  0.09563  0.11942  1.0000
  C   C32       1.0  0.55614  0.59563  0.38058  1.0000
  O   O1        1.0  0.06394  0.92905  0.88594  1.0000
  O   O2        1.0  0.93606  0.42905  0.61406  1.0000
  O   O3        1.0  0.93606  0.07095  0.11406  1.0000
  O   O4        1.0  0.06394  0.57095  0.38594  1.0000
  O   O5        1.0  0.86569  0.94440  0.69572  1.0000
  O   O6        1.0  0.13431  0.44440  0.80428  1.0000
  O   O7        1.0  0.13431  0.05560  0.30428  1.0000
  O   O8        1.0  0.86569  0.55560  0.19572  1.0000
  O   O9        1.0  0.06250  0.09001  0.79374  1.0000
  O   O10       1.0  0.93750  0.59001  0.70626  1.0000
  O   O11       1.0  0.93750  0.90999  0.20626  1.0000
  O   O12       1.0  0.06250  0.40999  0.29374  1.0000
  O   O13       1.0  0.21382  0.57968  0.62553  1.0000
  O   O14       1.0  0.78618  0.07968  0.87447  1.0000
  O   O15       1.0  0.78618  0.42032  0.37447  1.0000
  O   O16       1.0  0.21382  0.92032  0.12553  1.0000
  O   O17       1.0  0.97488  0.64863  0.53378  1.0000
  O   O18       1.0  0.02512  0.14863  0.96622  1.0000
  O   O19       1.0  0.02512  0.35137  0.46622  1.0000
  O   O20       1.0  0.97488  0.85137  0.03378  1.0000
  O   O21       1.0  0.64131  0.85239  0.86892  1.0000
  O   O22       1.0  0.35869  0.35239  0.63108  1.0000
  O   O23       1.0  0.35869  0.14761  0.13108  1.0000
  O   O24       1.0  0.64131  0.64761  0.36892  1.0000
  O   O25       1.0  0.60675  0.98594  0.94495  1.0000
  O   O26       1.0  0.39325  0.48594  0.55505  1.0000
  O   O27       1.0  0.39325  0.01406  0.05505  1.0000
  O   O28       1.0  0.60675  0.51406  0.44495  1.0000
  S   S1        1.0  0.02222  0.97259  0.78504  1.0000
  S   S2        1.0  0.97778  0.47259  0.71496  1.0000
  S   S3        1.0  0.97778  0.02741  0.21496  1.0000
  S   S4        1.0  0.02222  0.52741  0.28504  1.0000
  Zn  Zn1       1.0  0.17668  0.02649  0.01745  1.0000
  Zn  Zn2       1.0  0.82332  0.52649  0.48255  1.0000
  Zn  Zn3       1.0  0.82332  0.97351  0.98255  1.0000
  Zn  Zn4       1.0  0.17668  0.47351  0.51745  1.0000
