data_image0
_chemical_formula_structural       Zn4S4C8H4C8H4C8H4C8O28
_chemical_formula_sum              "Zn4 S4 C32 H12 O28"
_cell_length_a       11.2655
_cell_length_b       11.9962
_cell_length_c       12.5019
_cell_angle_alpha    90
_cell_angle_beta     94.294
_cell_angle_gamma    90

_space_group_name_H-M_alt    "P 1"
_space_group_IT_number       1

loop_
  _space_group_symop_operation_xyz
  'x, y, z'

loop_
  _atom_site_type_symbol
  _atom_site_label
  _atom_site_symmetry_multiplicity
  _atom_site_fract_x
  _atom_site_fract_y
  _atom_site_fract_z
  _atom_site_occupancy
  Zn  Zn1       1.0  0.15934  0.52578  0.48153  1.0000
  Zn  Zn2       1.0  0.34066  0.02578  0.01847  1.0000
  Zn  Zn3       1.0  0.84066  0.47422  0.51847  1.0000
  Zn  Zn4       1.0  0.65934  0.97422  0.98153  1.0000
  S   S1        1.0  0.76197  0.53372  0.28456  1.0000
  S   S2        1.0  0.73803  0.03372  0.21544  1.0000
  S   S3        1.0  0.23803  0.46628  0.71544  1.0000
  S   S4        1.0  0.26197  0.96628  0.78456  1.0000
  C   C1        1.0  0.42507  0.63356  0.31654  1.0000
  C   C2        1.0  0.07493  0.13356  0.18346  1.0000
  C   C3        1.0  0.57493  0.36644  0.68346  1.0000
  C   C4        1.0  0.92507  0.86644  0.81654  1.0000
  C   C5        1.0  0.41209  0.72208  0.24532  1.0000
  C   C6        1.0  0.08791  0.22208  0.25468  1.0000
  C   C7        1.0  0.58791  0.27792  0.75468  1.0000
  C   C8        1.0  0.91209  0.77792  0.74532  1.0000
  H   H1        1.0  0.34010  0.76020  0.23740  1.0000
  H   H2        1.0  0.15990  0.26020  0.26260  1.0000
  H   H3        1.0  0.65990  0.23980  0.76260  1.0000
  H   H4        1.0  0.84010  0.73980  0.73740  1.0000
  C   C9        1.0  0.50562  0.75449  0.18561  1.0000
  C   C10       1.0  0.99438  0.25449  0.31439  1.0000
  C   C11       1.0  0.49438  0.24551  0.81439  1.0000
  C   C12       1.0  0.00562  0.74551  0.68561  1.0000
  C   C13       1.0  0.61277  0.69696  0.19678  1.0000
  C   C14       1.0  0.88723  0.19696  0.30322  1.0000
  C   C15       1.0  0.38723  0.30304  0.80322  1.0000
  C   C16       1.0  0.11277  0.80304  0.69678  1.0000
  H   H5        1.0  0.67540  0.71760  0.15660  1.0000
  H   H6        1.0  0.82460  0.21760  0.34340  1.0000
  H   H7        1.0  0.32460  0.28240  0.84340  1.0000
  H   H8        1.0  0.17540  0.78240  0.65660  1.0000
  C   C17       1.0  0.62587  0.60879  0.26812  1.0000
  C   C18       1.0  0.87413  0.10879  0.23188  1.0000
  C   C19       1.0  0.37413  0.39121  0.73188  1.0000
  C   C20       1.0  0.12587  0.89121  0.76812  1.0000
  C   C21       1.0  0.53317  0.57749  0.32880  1.0000
  C   C22       1.0  0.96683  0.07749  0.17120  1.0000
  C   C23       1.0  0.46683  0.42251  0.67120  1.0000
  C   C24       1.0  0.03317  0.92251  0.82880  1.0000
  H   H9        1.0  0.54340  0.51910  0.37760  1.0000
  H   H10       1.0  0.95660  0.01910  0.12240  1.0000
  H   H11       1.0  0.45660  0.48090  0.62240  1.0000
  H   H12       1.0  0.04340  0.98090  0.87760  1.0000
  C   C25       1.0  0.32360  0.59840  0.37899  1.0000
  C   C26       1.0  0.17640  0.09840  0.12101  1.0000
  C   C27       1.0  0.67640  0.40160  0.62101  1.0000
  C   C28       1.0  0.82360  0.90160  0.87899  1.0000
  C   C29       1.0  0.49201  0.85135  0.11010  1.0000
  C   C30       1.0  0.00799  0.35135  0.38990  1.0000
  C   C31       1.0  0.50799  0.14865  0.88990  1.0000
  C   C32       1.0  0.99201  0.64865  0.61010  1.0000
  O   O1        1.0  0.22645  0.64719  0.36615  1.0000
  O   O2        1.0  0.27355  0.14719  0.13385  1.0000
  O   O3        1.0  0.77355  0.35281  0.63385  1.0000
  O   O4        1.0  0.72645  0.85281  0.86615  1.0000
  O   O5        1.0  0.33714  0.51875  0.44392  1.0000
  O   O6        1.0  0.16286  0.01875  0.05608  1.0000
  O   O7        1.0  0.66286  0.48125  0.55608  1.0000
  O   O8        1.0  0.83714  0.98125  0.94392  1.0000
  O   O9        1.0  0.56036  0.85563  0.03567  1.0000
  O   O10       1.0  0.93964  0.35563  0.46433  1.0000
  O   O11       1.0  0.43964  0.14437  0.96433  1.0000
  O   O12       1.0  0.06036  0.64437  0.53567  1.0000
  O   O13       1.0  0.41181  0.92124  0.12643  1.0000
  O   O14       1.0  0.08819  0.42124  0.37357  1.0000
  O   O15       1.0  0.58819  0.07876  0.87357  1.0000
  O   O16       1.0  0.91181  0.57876  0.62643  1.0000
  O   O17       1.0  0.81864  0.57261  0.38830  1.0000
  O   O18       1.0  0.68136  0.07261  0.11170  1.0000
  O   O19       1.0  0.18136  0.42739  0.61170  1.0000
  O   O20       1.0  0.31864  0.92739  0.88830  1.0000
  O   O21       1.0  0.73054  0.41834  0.28820  1.0000
  O   O22       1.0  0.76946  0.91834  0.21180  1.0000
  O   O23       1.0  0.26946  0.58166  0.71180  1.0000
  O   O24       1.0  0.23054  0.08166  0.78820  1.0000
  O   O25       1.0  0.83052  0.56510  0.19739  1.0000
  O   O26       1.0  0.66948  0.06510  0.30261  1.0000
  O   O27       1.0  0.16948  0.43490  0.80261  1.0000
  O   O28       1.0  0.33052  0.93490  0.69739  1.0000
