data_image0
_chemical_formula_structural       Zn4S4O28C8H4C12H4C8H4C4
_chemical_formula_sum              "Zn4 S4 O28 C32 H12"
_cell_length_a       11.3504
_cell_length_b       12.1923
_cell_length_c       16.1827
_cell_angle_alpha    90
_cell_angle_beta     130.491
_cell_angle_gamma    90

_space_group_name_H-M_alt    "P 1"
_space_group_IT_number       1

loop_
  _space_group_symop_operation_xyz
  'x, y, z'

loop_
  _atom_site_type_symbol
  _atom_site_label
  _atom_site_symmetry_multiplicity
  _atom_site_fract_x
  _atom_site_fract_y
  _atom_site_fract_z
  _atom_site_occupancy
  Zn  Zn1       1.0  0.82070  0.02369  0.48117  1.0000
  Zn  Zn2       1.0  0.17930  0.52369  0.01883  1.0000
  Zn  Zn3       1.0  0.17930  0.97631  0.51883  1.0000
  Zn  Zn4       1.0  0.82070  0.47631  0.98117  1.0000
  S   S1        1.0  0.97655  0.95931  0.71643  1.0000
  S   S2        1.0  0.02345  0.45931  0.78357  1.0000
  S   S3        1.0  0.02345  0.04069  0.28357  1.0000
  S   S4        1.0  0.97655  0.54069  0.21643  1.0000
  O   O1        1.0  0.92500  0.92376  0.61078  1.0000
  O   O2        1.0  0.07500  0.42376  0.88922  1.0000
  O   O3        1.0  0.07500  0.07624  0.38922  1.0000
  O   O4        1.0  0.92500  0.57624  0.11078  1.0000
  O   O5        1.0  0.13290  0.92590  0.80350  1.0000
  O   O6        1.0  0.86710  0.42590  0.69650  1.0000
  O   O7        1.0  0.86710  0.07410  0.19650  1.0000
  O   O8        1.0  0.13290  0.57410  0.30350  1.0000
  O   O9        1.0  0.94510  0.07277  0.71610  1.0000
  O   O10       1.0  0.05490  0.57277  0.78390  1.0000
  O   O11       1.0  0.05490  0.92723  0.28390  1.0000
  O   O12       1.0  0.94510  0.42723  0.21610  1.0000
  O   O13       1.0  0.39570  0.98010  0.55870  1.0000
  O   O14       1.0  0.60430  0.48010  0.94130  1.0000
  O   O15       1.0  0.60430  0.01990  0.44130  1.0000
  O   O16       1.0  0.39570  0.51990  0.05870  1.0000
  O   O17       1.0  0.36240  0.85461  0.63410  1.0000
  O   O18       1.0  0.63760  0.35461  0.86590  1.0000
  O   O19       1.0  0.63760  0.14539  0.36590  1.0000
  O   O20       1.0  0.36240  0.64539  0.13410  1.0000
  O   O21       1.0  0.78290  0.57828  0.87185  1.0000
  O   O22       1.0  0.21710  0.07828  0.62815  1.0000
  O   O23       1.0  0.21710  0.42172  0.12815  1.0000
  O   O24       1.0  0.78290  0.92172  0.37185  1.0000
  O   O25       1.0  0.02376  0.63850  0.96179  1.0000
  O   O26       1.0  0.97624  0.13850  0.53821  1.0000
  O   O27       1.0  0.97624  0.36150  0.03821  1.0000
  O   O28       1.0  0.02376  0.86150  0.46179  1.0000
  C   C1        1.0  0.85730  0.88480  0.73192  1.0000
  C   C2        1.0  0.14270  0.38480  0.76808  1.0000
  C   C3        1.0  0.14270  0.11520  0.26808  1.0000
  C   C4        1.0  0.85730  0.61520  0.23192  1.0000
  C   C5        1.0  0.70490  0.91830  0.67216  1.0000
  C   C6        1.0  0.29510  0.41830  0.82784  1.0000
  C   C7        1.0  0.29510  0.08170  0.32784  1.0000
  C   C8        1.0  0.70490  0.58170  0.17216  1.0000
  H   H1        1.0  0.66700  0.97740  0.62460  1.0000
  H   H2        1.0  0.33300  0.47740  0.87540  1.0000
  H   H3        1.0  0.33300  0.02260  0.37540  1.0000
  H   H4        1.0  0.66700  0.52260  0.12460  1.0000
  C   C9        1.0  0.60950  0.86350  0.68357  1.0000
  C   C10       1.0  0.39050  0.36350  0.81643  1.0000
  C   C11       1.0  0.39050  0.13650  0.31643  1.0000
  C   C12       1.0  0.60950  0.63650  0.18357  1.0000
  C   C13       1.0  0.44590  0.90040  0.62210  1.0000
  C   C14       1.0  0.55410  0.40040  0.87790  1.0000
  C   C15       1.0  0.55410  0.09960  0.37790  1.0000
  C   C16       1.0  0.44590  0.59960  0.12210  1.0000
  C   C17       1.0  0.66620  0.77448  0.75327  1.0000
  C   C18       1.0  0.33380  0.27448  0.74673  1.0000
  C   C19       1.0  0.33380  0.22552  0.24673  1.0000
  C   C20       1.0  0.66620  0.72552  0.25327  1.0000
  H   H5        1.0  0.60180  0.73710  0.76050  1.0000
  H   H6        1.0  0.39820  0.23710  0.73950  1.0000
  H   H7        1.0  0.39820  0.26290  0.23950  1.0000
  H   H8        1.0  0.60180  0.76290  0.26050  1.0000
  C   C21       1.0  0.81880  0.74080  0.81243  1.0000
  C   C22       1.0  0.18120  0.24080  0.68757  1.0000
  C   C23       1.0  0.18120  0.25920  0.18757  1.0000
  C   C24       1.0  0.81880  0.75920  0.31243  1.0000
  C   C25       1.0  0.91510  0.79688  0.80191  1.0000
  C   C26       1.0  0.08490  0.29688  0.69809  1.0000
  C   C27       1.0  0.08490  0.20312  0.19809  1.0000
  C   C28       1.0  0.91510  0.70312  0.30191  1.0000
  H   H9        1.0  0.01760  0.77520  0.84180  1.0000
  H   H10       1.0  0.98240  0.27520  0.65820  1.0000
  H   H11       1.0  0.98240  0.22480  0.15820  1.0000
  H   H12       1.0  0.01760  0.72480  0.34180  1.0000
  C   C29       1.0  0.88060  0.64504  0.88781  1.0000
  C   C30       1.0  0.11940  0.14504  0.61219  1.0000
  C   C31       1.0  0.11940  0.35496  0.11219  1.0000
  C   C32       1.0  0.88060  0.85496  0.38781  1.0000
