data_image0
_chemical_formula_structural       Zn2N8O16C12H4C4H4C8
_chemical_formula_sum              "Zn2 N8 O16 C24 H8"
_cell_length_a       13.2256
_cell_length_b       6.8141
_cell_length_c       17.9889
_cell_angle_alpha    90
_cell_angle_beta     111.013
_cell_angle_gamma    90

_space_group_name_H-M_alt    "P 1"
_space_group_IT_number       1

loop_
  _space_group_symop_operation_xyz
  'x, y, z'

loop_
  _atom_site_type_symbol
  _atom_site_label
  _atom_site_symmetry_multiplicity
  _atom_site_fract_x
  _atom_site_fract_y
  _atom_site_fract_z
  _atom_site_occupancy
  Zn  Zn1       1.0  1.00000  0.00000  0.50000  1.0000
  Zn  Zn2       1.0  0.00000  0.50000  0.00000  1.0000
  N   N1        1.0  0.97579  0.77410  0.41650  1.0000
  N   N2        1.0  0.02421  0.27410  0.08350  1.0000
  N   N3        1.0  0.02421  0.22590  0.58350  1.0000
  N   N4        1.0  0.97579  0.72590  0.91650  1.0000
  N   N5        1.0  0.92414  0.44930  0.31697  1.0000
  N   N6        1.0  0.07586  0.94930  0.18303  1.0000
  N   N7        1.0  0.07586  0.55070  0.68303  1.0000
  N   N8        1.0  0.92414  0.05070  0.81697  1.0000
  O   O1        1.0  0.90033  0.82490  0.53444  1.0000
  O   O2        1.0  0.09967  0.32490  0.96556  1.0000
  O   O3        1.0  0.09967  0.17510  0.46556  1.0000
  O   O4        1.0  0.90033  0.67510  0.03444  1.0000
  O   O5        1.0  0.81853  0.53070  0.51045  1.0000
  O   O6        1.0  0.18147  0.03070  0.98955  1.0000
  O   O7        1.0  0.18147  0.46930  0.48955  1.0000
  O   O8        1.0  0.81853  0.96930  0.01045  1.0000
  O   O9        1.0  0.71207  0.34300  0.34784  1.0000
  O   O10       1.0  0.28793  0.84300  0.15216  1.0000
  O   O11       1.0  0.28793  0.65700  0.65216  1.0000
  O   O12       1.0  0.71207  0.15700  0.84784  1.0000
  O   O13       1.0  0.84996  0.15170  0.41985  1.0000
  O   O14       1.0  0.15004  0.65170  0.08015  1.0000
  O   O15       1.0  0.15004  0.84830  0.58015  1.0000
  O   O16       1.0  0.84996  0.34830  0.91985  1.0000
  C   C1        1.0  0.87279  0.66420  0.49636  1.0000
  C   C2        1.0  0.12721  0.16420  0.00364  1.0000
  C   C3        1.0  0.12721  0.33580  0.50364  1.0000
  C   C4        1.0  0.87279  0.83580  0.99636  1.0000
  C   C5        1.0  0.91244  0.63230  0.42725  1.0000
  C   C6        1.0  0.08756  0.13230  0.07275  1.0000
  C   C7        1.0  0.08756  0.36770  0.57275  1.0000
  C   C8        1.0  0.91244  0.86770  0.92725  1.0000
  C   C9        1.0  0.01430  0.75520  0.35783  1.0000
  C   C10       1.0  0.98570  0.25520  0.14217  1.0000
  C   C11       1.0  0.98570  0.24480  0.64217  1.0000
  C   C12       1.0  0.01430  0.74480  0.85783  1.0000
  H   H1        1.0  0.05910  0.85170  0.34990  1.0000
  H   H2        1.0  0.94090  0.35170  0.15010  1.0000
  H   H3        1.0  0.94090  0.14830  0.65010  1.0000
  H   H4        1.0  0.05910  0.64830  0.84990  1.0000
  C   C13       1.0  0.98790  0.59300  0.30892  1.0000
  C   C14       1.0  0.01210  0.09300  0.19108  1.0000
  C   C15       1.0  0.01210  0.40700  0.69108  1.0000
  C   C16       1.0  0.98790  0.90700  0.80892  1.0000
  H   H5        1.0  0.01580  0.58330  0.26840  1.0000
  H   H6        1.0  0.98420  0.08330  0.23160  1.0000
  H   H7        1.0  0.98420  0.41670  0.73160  1.0000
  H   H8        1.0  0.01580  0.91670  0.76840  1.0000
  C   C17       1.0  0.88694  0.46910  0.37672  1.0000
  C   C18       1.0  0.11306  0.96910  0.12328  1.0000
  C   C19       1.0  0.11306  0.53090  0.62328  1.0000
  C   C20       1.0  0.88694  0.03090  0.87672  1.0000
  C   C21       1.0  0.81140  0.30680  0.38376  1.0000
  C   C22       1.0  0.18860  0.80680  0.11624  1.0000
  C   C23       1.0  0.18860  0.69320  0.61624  1.0000
  C   C24       1.0  0.81140  0.19320  0.88376  1.0000
