data_image0
_chemical_formula_structural       U4N2O12N2O2C2O2C6H2C6H2C2H2C2H2C2H2C4O6H4O8N2O2K2O6H4C4H2C2O4H4N2C6H2C8H2C4H2C2H2C2H2C2H2C2
_chemical_formula_sum              "U4 N8 O42 C56 H36 K2"
_cell_length_a       9.6163
_cell_length_b       14.5969
_cell_length_c       15.0797
_cell_angle_alpha    64.826
_cell_angle_beta     78.327
_cell_angle_gamma    85.208

_space_group_name_H-M_alt    "P 1"
_space_group_IT_number       1

loop_
  _space_group_symop_operation_xyz
  'x, y, z'

loop_
  _atom_site_type_symbol
  _atom_site_label
  _atom_site_symmetry_multiplicity
  _atom_site_fract_x
  _atom_site_fract_y
  _atom_site_fract_z
  _atom_site_occupancy
  U   U1        1.0  0.32739  0.73930  0.56693  1.0000
  U   U2        1.0  0.67261  0.26070  0.43307  1.0000
  U   U3        1.0  0.37259  0.67407  0.19786  1.0000
  U   U4        1.0  0.62741  0.32593  0.80214  1.0000
  N   N1        1.0  0.46410  0.65830  0.03450  1.0000
  N   N2        1.0  0.53590  0.34170  0.96550  1.0000
  O   O1        1.0  0.55410  0.55540  0.19960  1.0000
  O   O2        1.0  0.44590  0.44460  0.80040  1.0000
  O   O3        1.0  0.01770  0.82960  0.32230  1.0000
  O   O4        1.0  0.98230  0.17040  0.67770  1.0000
  O   O5        1.0  0.16400  0.72280  0.27690  1.0000
  O   O6        1.0  0.83600  0.27720  0.72310  1.0000
  O   O7        1.0  0.71790  0.91300  0.05920  1.0000
  O   O8        1.0  0.28210  0.08700  0.94080  1.0000
  O   O9        1.0  0.25830  0.77340  0.06280  1.0000
  O   O10       1.0  0.74170  0.22660  0.93720  1.0000
  O   O11       1.0  0.73510  0.48790  0.12800  1.0000
  O   O12       1.0  0.26490  0.51210  0.87200  1.0000
  N   N3        1.0  0.36860  0.85180  0.19140  1.0000
  N   N4        1.0  0.63140  0.14820  0.80860  1.0000
  O   O13       1.0  0.58200  0.77540  0.11300  1.0000
  O   O14       1.0  0.41800  0.22460  0.88700  1.0000
  C   C1        1.0  0.13270  0.80830  0.28370  1.0000
  C   C2        1.0  0.86730  0.19170  0.71630  1.0000
  O   O15       1.0  0.22860  0.83950  0.90350  1.0000
  O   O16       1.0  0.77140  0.16050  0.09650  1.0000
  C   C3        1.0  0.48110  0.91330  0.14290  1.0000
  C   C4        1.0  0.51890  0.08670  0.85710  1.0000
  C   C5        1.0  0.25190  0.88360  0.23600  1.0000
  C   C6        1.0  0.74810  0.11640  0.76400  1.0000
  C   C7        1.0  0.56970  0.64630  0.85600  1.0000
  C   C8        1.0  0.43030  0.35370  0.14400  1.0000
  H   H1        1.0  0.60800  0.64600  0.79400  1.0000
  H   H2        1.0  0.39200  0.35400  0.20600  1.0000
  C   C9        1.0  0.60540  0.86500  0.10020  1.0000
  C   C10       1.0  0.39460  0.13500  0.89980  1.0000
  C   C11       1.0  0.62820  0.54180  0.12460  1.0000
  C   C12       1.0  0.37180  0.45820  0.87540  1.0000
  C   C13       1.0  0.35890  0.04630  0.17880  1.0000
  C   C14       1.0  0.64110  0.95370  0.82120  1.0000
  H   H3        1.0  0.35300  0.11410  0.16700  1.0000
  H   H4        1.0  0.64700  0.88590  0.83300  1.0000
  C   C15       1.0  0.45470  0.70660  0.86390  1.0000
  C   C16       1.0  0.54530  0.29340  0.13610  1.0000
  H   H5        1.0  0.40600  0.74200  0.81300  1.0000
  H   H6        1.0  0.59400  0.25800  0.18700  1.0000
  C   C17       1.0  0.24350  0.98060  0.23260  1.0000
  C   C18       1.0  0.75650  0.01940  0.76740  1.0000
  H   H7        1.0  0.16600  0.00100  0.26800  1.0000
  H   H8        1.0  0.83400  0.99900  0.73200  1.0000
  C   C19       1.0  0.63500  0.59310  0.93770  1.0000
  C   C20       1.0  0.36500  0.40690  0.06230  1.0000
  H   H9        1.0  0.70700  0.54700  0.93700  1.0000
  H   H10       1.0  0.29300  0.45300  0.06300  1.0000
  C   C21       1.0  0.40510  0.71160  0.95460  1.0000
  C   C22       1.0  0.59490  0.28840  0.04540  1.0000
  C   C23       1.0  0.57550  0.59930  0.02790  1.0000
  C   C24       1.0  0.42450  0.40070  0.97210  1.0000
  O   O17       1.0  0.49380  0.84610  0.43030  1.0000
  O   O18       1.0  0.50620  0.15390  0.56970  1.0000
  O   O19       1.0  0.43130  0.61940  0.50580  1.0000
  O   O20       1.0  0.56870  0.38060  0.49420  1.0000
  O   O21       1.0  0.20050  0.59110  0.69150  1.0000
  O   O22       1.0  0.79950  0.40890  0.30850  1.0000
  H   H11       1.0  0.22800  0.55400  0.75200  1.0000
  H   H12       1.0  0.77200  0.44600  0.24800  1.0000
  H   H13       1.0  0.10200  0.59400  0.69900  1.0000
  H   H14       1.0  0.89800  0.40600  0.30100  1.0000
  O   O23       1.0  0.23000  0.55000  0.19490  1.0000
  O   O24       1.0  0.77000  0.45000  0.80510  1.0000
  O   O25       1.0  0.45450  0.71740  0.64400  1.0000
  O   O26       1.0  0.54550  0.28260  0.35600  1.0000
  O   O27       1.0  0.46300  0.65860  0.34310  1.0000
  O   O28       1.0  0.53700  0.34140  0.65690  1.0000
  O   O29       1.0  0.16010  0.78970  0.67760  1.0000
  O   O30       1.0  0.83990  0.21030  0.32240  1.0000
  N   N5        1.0  0.30010  0.92780  0.51820  1.0000
  N   N6        1.0  0.69990  0.07220  0.48180  1.0000
  O   O31       1.0  0.19770  0.75680  0.49290  1.0000
  O   O32       1.0  0.80230  0.24320  0.50710  1.0000
  K   K1        1.0  0.84219  0.96513  0.20314  1.0000
  K   K2        1.0  0.15781  0.03487  0.79686  1.0000
  O   O33       1.0  0.59550  0.99590  0.32460  1.0000
  O   O34       1.0  0.40450  0.00410  0.67540  1.0000
  O   O35       1.0  0.08420  0.41630  0.26220  1.0000
  O   O36       1.0  0.91580  0.58370  0.73780  1.0000
  O   O37       1.0  0.69530  0.78750  0.30120  1.0000
  O   O38       1.0  0.30470  0.21250  0.69880  1.0000
  H   H15       1.0  0.62600  0.74700  0.29800  1.0000
  H   H16       1.0  0.37400  0.25300  0.70200  1.0000
  H   H17       1.0  0.64900  0.81000  0.35100  1.0000
  H   H18       1.0  0.35100  0.19000  0.64900  1.0000
  C   C25       1.0  0.50160  0.94360  0.39070  1.0000
  C   C26       1.0  0.49840  0.05640  0.60930  1.0000
  C   C27       1.0  0.11350  0.39190  0.46090  1.0000
  C   C28       1.0  0.88650  0.60810  0.53910  1.0000
  H   H19       1.0  0.05500  0.34800  0.45600  1.0000
  H   H20       1.0  0.94500  0.65200  0.54400  1.0000
  C   C29       1.0  0.38100  0.99270  0.43510  1.0000
  C   C30       1.0  0.61900  0.00730  0.56490  1.0000
  O   O39       1.0  0.02680  0.90410  0.71920  1.0000
  O   O40       1.0  0.97320  0.09590  0.28080  1.0000
  O   O41       1.0  0.06570  0.92680  0.07790  1.0000
  O   O42       1.0  0.93430  0.07320  0.92210  1.0000
  H   H21       1.0  0.07800  0.88500  0.04500  1.0000
  H   H22       1.0  0.92200  0.11500  0.95500  1.0000
  H   H23       1.0  0.13500  0.97700  0.04500  1.0000
  H   H24       1.0  0.86500  0.02300  0.95500  1.0000
  N   N7        1.0  0.27820  0.52790  0.36500  1.0000
  N   N8        1.0  0.72180  0.47210  0.63500  1.0000
  C   C31       1.0  0.16330  0.47500  0.26950  1.0000
  C   C32       1.0  0.83670  0.52500  0.73050  1.0000
  C   C33       1.0  0.19310  0.96270  0.56610  1.0000
  C   C34       1.0  0.80690  0.03730  0.43390  1.0000
  C   C35       1.0  0.35240  0.09670  0.39600  1.0000
  C   C36       1.0  0.64760  0.90330  0.60400  1.0000
  H   H25       1.0  0.40800  0.14100  0.33600  1.0000
  H   H26       1.0  0.59200  0.85900  0.66400  1.0000
  C   C37       1.0  0.40580  0.60730  0.43210  1.0000
  C   C38       1.0  0.59420  0.39270  0.56790  1.0000
  C   C39       1.0  0.18470  0.46200  0.37030  1.0000
  C   C40       1.0  0.81530  0.53800  0.62970  1.0000
  C   C41       1.0  0.11910  0.88070  0.66180  1.0000
  C   C42       1.0  0.88090  0.11930  0.33820  1.0000
  C   C43       1.0  0.15510  0.06320  0.53280  1.0000
  C   C44       1.0  0.84490  0.93680  0.46720  1.0000
  H   H27       1.0  0.07900  0.09000  0.56200  1.0000
  H   H28       1.0  0.92100  0.91000  0.43800  1.0000
  C   C45       1.0  0.30180  0.52700  0.44990  1.0000
  C   C46       1.0  0.69820  0.47300  0.55010  1.0000
  C   C47       1.0  0.14030  0.39070  0.54840  1.0000
  C   C48       1.0  0.85970  0.60930  0.45160  1.0000
  H   H29       1.0  0.10200  0.34400  0.61200  1.0000
  H   H30       1.0  0.89800  0.65600  0.38800  1.0000
  C   C49       1.0  0.23490  0.45970  0.54380  1.0000
  C   C50       1.0  0.76510  0.54030  0.45620  1.0000
  H   H31       1.0  0.25200  0.46900  0.59800  1.0000
  H   H32       1.0  0.74800  0.53100  0.40200  1.0000
  C   C51       1.0  0.23680  0.13160  0.44470  1.0000
  C   C52       1.0  0.76320  0.86840  0.55530  1.0000
  H   H33       1.0  0.20800  0.19900  0.42400  1.0000
  H   H34       1.0  0.79200  0.80100  0.57600  1.0000
  C   C53       1.0  0.47850  0.01220  0.13410  1.0000
  C   C54       1.0  0.52150  0.98780  0.86590  1.0000
  H   H35       1.0  0.55300  0.05600  0.09600  1.0000
  H   H36       1.0  0.44700  0.94400  0.90400  1.0000
  C   C55       1.0  0.28540  0.77970  0.97330  1.0000
  C   C56       1.0  0.71460  0.22030  0.02670  1.0000
