data_image0
_chemical_formula_structural       Mo72P6O240Cu36O126N60C18H18C18H18C18H18C18H18C54H18C18H18C18H18C18H18C54H18C18H18C18H18C18H18C36
_chemical_formula_sum              "Mo72 P6 O366 Cu36 N60 C324 H216"
_cell_length_a       16.7919
_cell_length_b       16.7919
_cell_length_c       52.453
_cell_angle_alpha    90
_cell_angle_beta     90
_cell_angle_gamma    120

_space_group_name_H-M_alt    "P 1"
_space_group_IT_number       1

loop_
  _space_group_symop_operation_xyz
  'x, y, z'

loop_
  _atom_site_type_symbol
  _atom_site_label
  _atom_site_symmetry_multiplicity
  _atom_site_fract_x
  _atom_site_fract_y
  _atom_site_fract_z
  _atom_site_occupancy
  Mo  Mo1       1.0  0.79040  0.00389  0.55411  1.0000
  Mo  Mo2       1.0  0.99611  0.78651  0.55411  1.0000
  Mo  Mo3       1.0  0.21349  0.20960  0.55411  1.0000
  Mo  Mo4       1.0  0.99611  0.20960  0.05411  1.0000
  Mo  Mo5       1.0  0.21349  0.00389  0.05411  1.0000
  Mo  Mo6       1.0  0.79040  0.78651  0.05411  1.0000
  Mo  Mo7       1.0  0.45707  0.33722  0.88744  1.0000
  Mo  Mo8       1.0  0.66278  0.11984  0.88744  1.0000
  Mo  Mo9       1.0  0.88016  0.54293  0.88744  1.0000
  Mo  Mo10      1.0  0.66278  0.54293  0.38744  1.0000
  Mo  Mo11      1.0  0.88016  0.33722  0.38744  1.0000
  Mo  Mo12      1.0  0.45707  0.11984  0.38744  1.0000
  Mo  Mo13      1.0  0.12373  0.67056  0.22078  1.0000
  Mo  Mo14      1.0  0.32944  0.45318  0.22078  1.0000
  Mo  Mo15      1.0  0.54682  0.87627  0.22078  1.0000
  Mo  Mo16      1.0  0.32944  0.87627  0.72078  1.0000
  Mo  Mo17      1.0  0.54682  0.67056  0.72078  1.0000
  Mo  Mo18      1.0  0.12373  0.45318  0.72078  1.0000
  Mo  Mo19      1.0  0.85358  0.91549  0.50444  1.0000
  Mo  Mo20      1.0  0.08451  0.93809  0.50444  1.0000
  Mo  Mo21      1.0  0.06191  0.14642  0.50444  1.0000
  Mo  Mo22      1.0  0.08451  0.14642  0.00444  1.0000
  Mo  Mo23      1.0  0.06191  0.91549  0.00444  1.0000
  Mo  Mo24      1.0  0.85358  0.93809  0.00444  1.0000
  Mo  Mo25      1.0  0.52025  0.24882  0.83777  1.0000
  Mo  Mo26      1.0  0.75118  0.27142  0.83777  1.0000
  Mo  Mo27      1.0  0.72858  0.47975  0.83777  1.0000
  Mo  Mo28      1.0  0.75118  0.47975  0.33777  1.0000
  Mo  Mo29      1.0  0.72858  0.24882  0.33777  1.0000
  Mo  Mo30      1.0  0.52025  0.27142  0.33777  1.0000
  Mo  Mo31      1.0  0.18691  0.58216  0.17111  1.0000
  Mo  Mo32      1.0  0.41784  0.60476  0.17111  1.0000
  Mo  Mo33      1.0  0.39524  0.81309  0.17111  1.0000
  Mo  Mo34      1.0  0.41784  0.81309  0.67111  1.0000
  Mo  Mo35      1.0  0.39524  0.58216  0.67111  1.0000
  Mo  Mo36      1.0  0.18691  0.60476  0.67111  1.0000
  Mo  Mo37      1.0  0.78110  0.79592  0.56017  1.0000
  Mo  Mo38      1.0  0.20408  0.98518  0.56017  1.0000
  Mo  Mo39      1.0  0.01482  0.21890  0.56017  1.0000
  Mo  Mo40      1.0  0.20408  0.21890  0.06017  1.0000
  Mo  Mo41      1.0  0.01482  0.79592  0.06017  1.0000
  Mo  Mo42      1.0  0.78110  0.98518  0.06017  1.0000
  Mo  Mo43      1.0  0.44777  0.12925  0.89350  1.0000
  Mo  Mo44      1.0  0.87075  0.31851  0.89350  1.0000
  Mo  Mo45      1.0  0.68149  0.55223  0.89350  1.0000
  Mo  Mo46      1.0  0.87075  0.55223  0.39350  1.0000
  Mo  Mo47      1.0  0.68149  0.12925  0.39350  1.0000
  Mo  Mo48      1.0  0.44777  0.31851  0.39350  1.0000
  Mo  Mo49      1.0  0.11443  0.46259  0.22684  1.0000
  Mo  Mo50      1.0  0.53741  0.65185  0.22684  1.0000
  Mo  Mo51      1.0  0.34815  0.88557  0.22684  1.0000
  Mo  Mo52      1.0  0.53741  0.88557  0.72684  1.0000
  Mo  Mo53      1.0  0.34815  0.46259  0.72684  1.0000
  Mo  Mo54      1.0  0.11443  0.65185  0.72684  1.0000
  Mo  Mo55      1.0  0.94269  0.86378  0.61397  1.0000
  Mo  Mo56      1.0  0.13622  0.07891  0.61397  1.0000
  Mo  Mo57      1.0  0.92109  0.05731  0.61397  1.0000
  Mo  Mo58      1.0  0.13622  0.05731  0.11397  1.0000
  Mo  Mo59      1.0  0.92109  0.86378  0.11397  1.0000
  Mo  Mo60      1.0  0.94269  0.07891  0.11397  1.0000
  Mo  Mo61      1.0  0.60936  0.19711  0.94730  1.0000
  Mo  Mo62      1.0  0.80289  0.41224  0.94730  1.0000
  Mo  Mo63      1.0  0.58776  0.39064  0.94730  1.0000
  Mo  Mo64      1.0  0.80289  0.39064  0.44730  1.0000
  Mo  Mo65      1.0  0.58776  0.19711  0.44730  1.0000
  Mo  Mo66      1.0  0.60936  0.41224  0.44730  1.0000
  Mo  Mo67      1.0  0.27602  0.53045  0.28064  1.0000
  Mo  Mo68      1.0  0.46955  0.74558  0.28064  1.0000
  Mo  Mo69      1.0  0.25442  0.72398  0.28064  1.0000
  Mo  Mo70      1.0  0.46955  0.72398  0.78064  1.0000
  Mo  Mo71      1.0  0.25442  0.53045  0.78064  1.0000
  Mo  Mo72      1.0  0.27602  0.74558  0.78064  1.0000
  P   P1        1.0  0.00000  0.00000  0.55820  1.0000
  P   P2        1.0  0.00000  0.00000  0.05820  1.0000
  P   P3        1.0  0.66667  0.33333  0.89153  1.0000
  P   P4        1.0  0.66667  0.33333  0.39153  1.0000
  P   P5        1.0  0.33333  0.66667  0.22487  1.0000
  P   P6        1.0  0.33333  0.66667  0.72487  1.0000
  O   O1        1.0  0.88720  0.11840  0.55060  1.0000
  O   O2        1.0  0.88160  0.76880  0.55060  1.0000
  O   O3        1.0  0.23120  0.11280  0.55060  1.0000
  O   O4        1.0  0.88160  0.11280  0.05060  1.0000
  O   O5        1.0  0.23120  0.11840  0.05060  1.0000
  O   O6        1.0  0.88720  0.76880  0.05060  1.0000
  O   O7        1.0  0.55387  0.45173  0.88393  1.0000
  O   O8        1.0  0.54827  0.10213  0.88393  1.0000
  O   O9        1.0  0.89787  0.44613  0.88393  1.0000
  O   O10       1.0  0.54827  0.44613  0.38393  1.0000
  O   O11       1.0  0.89787  0.45173  0.38393  1.0000
  O   O12       1.0  0.55387  0.10213  0.38393  1.0000
  O   O13       1.0  0.22053  0.78507  0.21727  1.0000
  O   O14       1.0  0.21493  0.43547  0.21727  1.0000
  O   O15       1.0  0.56453  0.77947  0.21727  1.0000
  O   O16       1.0  0.21493  0.77947  0.71727  1.0000
  O   O17       1.0  0.56453  0.78507  0.71727  1.0000
  O   O18       1.0  0.22053  0.43547  0.71727  1.0000
  O   O19       1.0  0.95230  0.89680  0.50010  1.0000
  O   O20       1.0  0.10320  0.05550  0.50010  1.0000
  O   O21       1.0  0.94450  0.04770  0.50010  1.0000
  O   O22       1.0  0.10320  0.04770  0.00010  1.0000
  O   O23       1.0  0.94450  0.89680  0.00010  1.0000
  O   O24       1.0  0.95230  0.05550  0.00010  1.0000
  O   O25       1.0  0.61897  0.23013  0.83343  1.0000
  O   O26       1.0  0.76987  0.38883  0.83343  1.0000
  O   O27       1.0  0.61117  0.38103  0.83343  1.0000
  O   O28       1.0  0.76987  0.38103  0.33343  1.0000
  O   O29       1.0  0.61117  0.23013  0.33343  1.0000
  O   O30       1.0  0.61897  0.38883  0.33343  1.0000
  O   O31       1.0  0.28563  0.56347  0.16677  1.0000
  O   O32       1.0  0.43653  0.72217  0.16677  1.0000
  O   O33       1.0  0.27783  0.71437  0.16677  1.0000
  O   O34       1.0  0.43653  0.71437  0.66677  1.0000
  O   O35       1.0  0.27783  0.56347  0.66677  1.0000
  O   O36       1.0  0.28563  0.72217  0.66677  1.0000
  O   O37       1.0  0.80210  0.88750  0.47630  1.0000
  O   O38       1.0  0.11250  0.91460  0.47630  1.0000
  O   O39       1.0  0.08540  0.19790  0.47630  1.0000
  O   O40       1.0  0.11250  0.19790  0.97630  1.0000
  O   O41       1.0  0.08540  0.88750  0.97630  1.0000
  O   O42       1.0  0.80210  0.91460  0.97630  1.0000
  O   O43       1.0  0.46877  0.22083  0.80963  1.0000
  O   O44       1.0  0.77917  0.24793  0.80963  1.0000
  O   O45       1.0  0.75207  0.53123  0.80963  1.0000
  O   O46       1.0  0.77917  0.53123  0.30963  1.0000
  O   O47       1.0  0.75207  0.22083  0.30963  1.0000
  O   O48       1.0  0.46877  0.24793  0.30963  1.0000
  O   O49       1.0  0.13543  0.55417  0.14297  1.0000
  O   O50       1.0  0.44583  0.58127  0.14297  1.0000
  O   O51       1.0  0.41873  0.86457  0.14297  1.0000
  O   O52       1.0  0.44583  0.86457  0.64297  1.0000
  O   O53       1.0  0.41873  0.55417  0.64297  1.0000
  O   O54       1.0  0.13543  0.58127  0.64297  1.0000
  O   O55       1.0  0.78300  0.96750  0.52080  1.0000
  O   O56       1.0  0.03250  0.81550  0.52080  1.0000
  O   O57       1.0  0.18450  0.21700  0.52080  1.0000
  O   O58       1.0  0.03250  0.21700  0.02080  1.0000
  O   O59       1.0  0.18450  0.96750  0.02080  1.0000
  O   O60       1.0  0.78300  0.81550  0.02080  1.0000
  O   O61       1.0  0.44967  0.30083  0.85413  1.0000
  O   O62       1.0  0.69917  0.14883  0.85413  1.0000
  O   O63       1.0  0.85117  0.55033  0.85413  1.0000
  O   O64       1.0  0.69917  0.55033  0.35413  1.0000
  O   O65       1.0  0.85117  0.30083  0.35413  1.0000
  O   O66       1.0  0.44967  0.14883  0.35413  1.0000
  O   O67       1.0  0.11633  0.63417  0.18747  1.0000
  O   O68       1.0  0.36583  0.48217  0.18747  1.0000
  O   O69       1.0  0.51783  0.88367  0.18747  1.0000
  O   O70       1.0  0.36583  0.88367  0.68747  1.0000
  O   O71       1.0  0.51783  0.63417  0.68747  1.0000
  O   O72       1.0  0.11633  0.48217  0.68747  1.0000
  O   O73       1.0  0.77930  0.81020  0.52280  1.0000
  O   O74       1.0  0.18980  0.96910  0.52280  1.0000
  O   O75       1.0  0.03090  0.22070  0.52280  1.0000
  O   O76       1.0  0.18980  0.22070  0.02280  1.0000
  O   O77       1.0  0.03090  0.81020  0.02280  1.0000
  O   O78       1.0  0.77930  0.96910  0.02280  1.0000
  O   O79       1.0  0.44597  0.14353  0.85613  1.0000
  O   O80       1.0  0.85647  0.30243  0.85613  1.0000
  O   O81       1.0  0.69757  0.55403  0.85613  1.0000
  O   O82       1.0  0.85647  0.55403  0.35613  1.0000
  O   O83       1.0  0.69757  0.14353  0.35613  1.0000
  O   O84       1.0  0.44597  0.30243  0.35613  1.0000
  O   O85       1.0  0.11263  0.47687  0.18947  1.0000
  O   O86       1.0  0.52313  0.63577  0.18947  1.0000
  O   O87       1.0  0.36423  0.88737  0.18947  1.0000
  O   O88       1.0  0.52313  0.88737  0.68947  1.0000
  O   O89       1.0  0.36423  0.47687  0.68947  1.0000
  O   O90       1.0  0.11263  0.63577  0.68947  1.0000
  O   O91       1.0  0.70000  0.01920  0.55650  1.0000
  O   O92       1.0  0.98080  0.68080  0.55650  1.0000
  O   O93       1.0  0.31920  0.30000  0.55650  1.0000
  O   O94       1.0  0.98080  0.30000  0.05650  1.0000
  O   O95       1.0  0.31920  0.01920  0.05650  1.0000
  O   O96       1.0  0.70000  0.68080  0.05650  1.0000
  O   O97       1.0  0.36667  0.35253  0.88983  1.0000
  O   O98       1.0  0.64747  0.01413  0.88983  1.0000
  O   O99       1.0  0.98587  0.63333  0.88983  1.0000
  O   O100      1.0  0.64747  0.63333  0.38983  1.0000
  O   O101      1.0  0.98587  0.35253  0.38983  1.0000
  O   O102      1.0  0.36667  0.01413  0.38983  1.0000
  O   O103      1.0  0.03333  0.68587  0.22317  1.0000
  O   O104      1.0  0.31413  0.34747  0.22317  1.0000
  O   O105      1.0  0.65253  0.96667  0.22317  1.0000
  O   O106      1.0  0.31413  0.96667  0.72317  1.0000
  O   O107      1.0  0.65253  0.68587  0.72317  1.0000
  O   O108      1.0  0.03333  0.34747  0.72317  1.0000
  O   O109      1.0  0.72870  0.87030  0.56250  1.0000
  O   O110      1.0  0.12970  0.85840  0.56250  1.0000
  O   O111      1.0  0.14160  0.27130  0.56250  1.0000
  O   O112      1.0  0.12970  0.27130  0.06250  1.0000
  O   O113      1.0  0.14160  0.87030  0.06250  1.0000
  O   O114      1.0  0.72870  0.85840  0.06250  1.0000
  O   O115      1.0  0.39537  0.20363  0.89583  1.0000
  O   O116      1.0  0.79637  0.19173  0.89583  1.0000
  O   O117      1.0  0.80827  0.60463  0.89583  1.0000
  O   O118      1.0  0.79637  0.60463  0.39583  1.0000
  O   O119      1.0  0.80827  0.20363  0.39583  1.0000
  O   O120      1.0  0.39537  0.19173  0.39583  1.0000
  O   O121      1.0  0.06203  0.53697  0.22917  1.0000
  O   O122      1.0  0.46303  0.52507  0.22917  1.0000
  O   O123      1.0  0.47493  0.93797  0.22917  1.0000
  O   O124      1.0  0.46303  0.93797  0.72917  1.0000
  O   O125      1.0  0.47493  0.53697  0.72917  1.0000
  O   O126      1.0  0.06203  0.52507  0.72917  1.0000
  O   O127      1.0  0.68890  0.68920  0.56260  1.0000
  O   O128      1.0  0.31080  0.99970  0.56260  1.0000
  O   O129      1.0  0.00030  0.31110  0.56260  1.0000
  O   O130      1.0  0.31080  0.31110  0.06260  1.0000
  O   O131      1.0  0.00030  0.68920  0.06260  1.0000
  O   O132      1.0  0.68890  0.99970  0.06260  1.0000
  O   O133      1.0  0.35557  0.02253  0.89593  1.0000
  O   O134      1.0  0.97747  0.33303  0.89593  1.0000
  O   O135      1.0  0.66697  0.64443  0.89593  1.0000
  O   O136      1.0  0.97747  0.64443  0.39593  1.0000
  O   O137      1.0  0.66697  0.02253  0.39593  1.0000
  O   O138      1.0  0.35557  0.33303  0.39593  1.0000
  O   O139      1.0  0.02223  0.35587  0.22927  1.0000
  O   O140      1.0  0.64413  0.66637  0.22927  1.0000
  O   O141      1.0  0.33363  0.97777  0.22927  1.0000
  O   O142      1.0  0.64413  0.97777  0.72927  1.0000
  O   O143      1.0  0.33363  0.35587  0.72927  1.0000
  O   O144      1.0  0.02223  0.66637  0.72927  1.0000
  O   O145      1.0  0.83460  0.82270  0.59180  1.0000
  O   O146      1.0  0.17730  0.01190  0.59180  1.0000
  O   O147      1.0  0.98810  0.16540  0.59180  1.0000
  O   O148      1.0  0.17730  0.16540  0.09180  1.0000
  O   O149      1.0  0.98810  0.82270  0.09180  1.0000
  O   O150      1.0  0.83460  0.01190  0.09180  1.0000
  O   O151      1.0  0.50127  0.15603  0.92513  1.0000
  O   O152      1.0  0.84397  0.34523  0.92513  1.0000
  O   O153      1.0  0.65477  0.49873  0.92513  1.0000
  O   O154      1.0  0.84397  0.49873  0.42513  1.0000
  O   O155      1.0  0.65477  0.15603  0.42513  1.0000
  O   O156      1.0  0.50127  0.34523  0.42513  1.0000
  O   O157      1.0  0.16793  0.48937  0.25847  1.0000
  O   O158      1.0  0.51063  0.67857  0.25847  1.0000
  O   O159      1.0  0.32143  0.83207  0.25847  1.0000
  O   O160      1.0  0.51063  0.83207  0.75847  1.0000
  O   O161      1.0  0.32143  0.48937  0.75847  1.0000
  O   O162      1.0  0.16793  0.67857  0.75847  1.0000
  O   O163      1.0  0.90110  0.78330  0.63670  1.0000
  O   O164      1.0  0.21670  0.11780  0.63670  1.0000
  O   O165      1.0  0.88220  0.09890  0.63670  1.0000
  O   O166      1.0  0.21670  0.09890  0.13670  1.0000
  O   O167      1.0  0.88220  0.78330  0.13670  1.0000
  O   O168      1.0  0.90110  0.11780  0.13670  1.0000
  O   O169      1.0  0.56777  0.11663  0.97003  1.0000
  O   O170      1.0  0.88337  0.45113  0.97003  1.0000
  O   O171      1.0  0.54887  0.43223  0.97003  1.0000
  O   O172      1.0  0.88337  0.43223  0.47003  1.0000
  O   O173      1.0  0.54887  0.11663  0.47003  1.0000
  O   O174      1.0  0.56777  0.45113  0.47003  1.0000
  O   O175      1.0  0.23443  0.44997  0.30337  1.0000
  O   O176      1.0  0.55003  0.78447  0.30337  1.0000
  O   O177      1.0  0.21553  0.76557  0.30337  1.0000
  O   O178      1.0  0.55003  0.76557  0.80337  1.0000
  O   O179      1.0  0.21553  0.44997  0.80337  1.0000
  O   O180      1.0  0.23443  0.78447  0.80337  1.0000
  O   O181      1.0  0.05430  0.94940  0.62660  1.0000
  O   O182      1.0  0.05060  0.10490  0.62660  1.0000
  O   O183      1.0  0.89510  0.94570  0.62660  1.0000
  O   O184      1.0  0.05060  0.94570  0.12660  1.0000
  O   O185      1.0  0.89510  0.94940  0.12660  1.0000
  O   O186      1.0  0.05430  0.10490  0.12660  1.0000
  O   O187      1.0  0.72097  0.28273  0.95993  1.0000
  O   O188      1.0  0.71727  0.43823  0.95993  1.0000
  O   O189      1.0  0.56177  0.27903  0.95993  1.0000
  O   O190      1.0  0.71727  0.27903  0.45993  1.0000
  O   O191      1.0  0.56177  0.28273  0.45993  1.0000
  O   O192      1.0  0.72097  0.43823  0.45993  1.0000
  O   O193      1.0  0.38763  0.61607  0.29327  1.0000
  O   O194      1.0  0.38393  0.77157  0.29327  1.0000
  O   O195      1.0  0.22843  0.61237  0.29327  1.0000
  O   O196      1.0  0.38393  0.61237  0.79327  1.0000
  O   O197      1.0  0.22843  0.61607  0.79327  1.0000
  O   O198      1.0  0.38763  0.77157  0.79327  1.0000
  O   O199      1.0  0.98720  0.81810  0.59040  1.0000
  O   O200      1.0  0.18190  0.16910  0.59040  1.0000
  O   O201      1.0  0.83090  0.01280  0.59040  1.0000
  O   O202      1.0  0.18190  0.01280  0.09040  1.0000
  O   O203      1.0  0.83090  0.81810  0.09040  1.0000
  O   O204      1.0  0.98720  0.16910  0.09040  1.0000
  O   O205      1.0  0.65387  0.15143  0.92373  1.0000
  O   O206      1.0  0.84857  0.50243  0.92373  1.0000
  O   O207      1.0  0.49757  0.34613  0.92373  1.0000
  O   O208      1.0  0.84857  0.34613  0.42373  1.0000
  O   O209      1.0  0.49757  0.15143  0.42373  1.0000
  O   O210      1.0  0.65387  0.50243  0.42373  1.0000
  O   O211      1.0  0.32053  0.48477  0.25707  1.0000
  O   O212      1.0  0.51523  0.83577  0.25707  1.0000
  O   O213      1.0  0.16423  0.67947  0.25707  1.0000
  O   O214      1.0  0.51523  0.67947  0.75707  1.0000
  O   O215      1.0  0.16423  0.48477  0.75707  1.0000
  O   O216      1.0  0.32053  0.83577  0.75707  1.0000
  O   O217      1.0  0.00000  0.00000  0.58740  1.0000
  O   O218      1.0  0.00000  0.00000  0.08740  1.0000
  O   O219      1.0  0.66667  0.33333  0.92073  1.0000
  O   O220      1.0  0.66667  0.33333  0.42073  1.0000
  O   O221      1.0  0.33333  0.66667  0.25407  1.0000
  O   O222      1.0  0.33333  0.66667  0.75407  1.0000
  O   O223      1.0  0.04900  0.95030  0.54900  1.0000
  O   O224      1.0  0.04970  0.09870  0.54900  1.0000
  O   O225      1.0  0.90130  0.95100  0.54900  1.0000
  O   O226      1.0  0.04970  0.95100  0.04900  1.0000
  O   O227      1.0  0.90130  0.95030  0.04900  1.0000
  O   O228      1.0  0.04900  0.09870  0.04900  1.0000
  O   O229      1.0  0.71567  0.28363  0.88233  1.0000
  O   O230      1.0  0.71637  0.43203  0.88233  1.0000
  O   O231      1.0  0.56797  0.28433  0.88233  1.0000
  O   O232      1.0  0.71637  0.28433  0.38233  1.0000
  O   O233      1.0  0.56797  0.28363  0.38233  1.0000
  O   O234      1.0  0.71567  0.43203  0.38233  1.0000
  O   O235      1.0  0.38233  0.61697  0.21567  1.0000
  O   O236      1.0  0.38303  0.76537  0.21567  1.0000
  O   O237      1.0  0.23463  0.61767  0.21567  1.0000
  O   O238      1.0  0.38303  0.61767  0.71567  1.0000
  O   O239      1.0  0.23463  0.61697  0.71567  1.0000
  O   O240      1.0  0.38233  0.76537  0.71567  1.0000
  Cu  Cu1       1.0  0.72527  0.75551  0.44543  1.0000
  Cu  Cu2       1.0  0.24449  0.96976  0.44543  1.0000
  Cu  Cu3       1.0  0.03024  0.27473  0.44543  1.0000
  Cu  Cu4       1.0  0.24449  0.27473  0.94543  1.0000
  Cu  Cu5       1.0  0.03024  0.75551  0.94543  1.0000
  Cu  Cu6       1.0  0.72527  0.96976  0.94543  1.0000
  Cu  Cu7       1.0  0.39194  0.08884  0.77876  1.0000
  Cu  Cu8       1.0  0.91116  0.30309  0.77876  1.0000
  Cu  Cu9       1.0  0.69691  0.60806  0.77876  1.0000
  Cu  Cu10      1.0  0.91116  0.60806  0.27876  1.0000
  Cu  Cu11      1.0  0.69691  0.08884  0.27876  1.0000
  Cu  Cu12      1.0  0.39194  0.30309  0.27876  1.0000
  Cu  Cu13      1.0  0.05860  0.42218  0.11210  1.0000
  Cu  Cu14      1.0  0.57782  0.63643  0.11210  1.0000
  Cu  Cu15      1.0  0.36357  0.94140  0.11210  1.0000
  Cu  Cu16      1.0  0.57782  0.94140  0.61210  1.0000
  Cu  Cu17      1.0  0.36357  0.42218  0.61210  1.0000
  Cu  Cu18      1.0  0.05860  0.63643  0.61210  1.0000
  Cu  Cu19      1.0  0.48293  0.87019  0.44789  1.0000
  Cu  Cu20      1.0  0.12981  0.61274  0.44789  1.0000
  Cu  Cu21      1.0  0.38726  0.51707  0.44789  1.0000
  Cu  Cu22      1.0  0.12981  0.51707  0.94789  1.0000
  Cu  Cu23      1.0  0.38726  0.87019  0.94789  1.0000
  Cu  Cu24      1.0  0.48293  0.61274  0.94789  1.0000
  Cu  Cu25      1.0  0.14960  0.20352  0.78122  1.0000
  Cu  Cu26      1.0  0.79648  0.94607  0.78122  1.0000
  Cu  Cu27      1.0  0.05393  0.85040  0.78122  1.0000
  Cu  Cu28      1.0  0.79648  0.85040  0.28122  1.0000
  Cu  Cu29      1.0  0.05393  0.20352  0.28122  1.0000
  Cu  Cu30      1.0  0.14960  0.94607  0.28122  1.0000
  Cu  Cu31      1.0  0.81626  0.53686  0.11456  1.0000
  Cu  Cu32      1.0  0.46314  0.27941  0.11456  1.0000
  Cu  Cu33      1.0  0.72059  0.18374  0.11456  1.0000
  Cu  Cu34      1.0  0.46314  0.18374  0.61456  1.0000
  Cu  Cu35      1.0  0.72059  0.53686  0.61456  1.0000
  Cu  Cu36      1.0  0.81626  0.27941  0.61456  1.0000
  O   O241      1.0  0.82110  0.82150  0.42020  1.0000
  O   O242      1.0  0.17850  0.99960  0.42020  1.0000
  O   O243      1.0  0.00040  0.17890  0.42020  1.0000
  O   O244      1.0  0.17850  0.17890  0.92020  1.0000
  O   O245      1.0  0.00040  0.82150  0.92020  1.0000
  O   O246      1.0  0.82110  0.99960  0.92020  1.0000
  O   O247      1.0  0.48777  0.15483  0.75353  1.0000
  O   O248      1.0  0.84517  0.33293  0.75353  1.0000
  O   O249      1.0  0.66707  0.51223  0.75353  1.0000
  O   O250      1.0  0.84517  0.51223  0.25353  1.0000
  O   O251      1.0  0.66707  0.15483  0.25353  1.0000
  O   O252      1.0  0.48777  0.33293  0.25353  1.0000
  O   O253      1.0  0.15443  0.48817  0.08687  1.0000
  O   O254      1.0  0.51183  0.66627  0.08687  1.0000
  O   O255      1.0  0.33373  0.84557  0.08687  1.0000
  O   O256      1.0  0.51183  0.84557  0.58687  1.0000
  O   O257      1.0  0.33373  0.48817  0.58687  1.0000
  O   O258      1.0  0.15443  0.66627  0.58687  1.0000
  O   O259      1.0  0.95880  0.84640  0.40880  1.0000
  O   O260      1.0  0.15360  0.11240  0.40880  1.0000
  O   O261      1.0  0.88760  0.04120  0.40880  1.0000
  O   O262      1.0  0.15360  0.04120  0.90880  1.0000
  O   O263      1.0  0.88760  0.84640  0.90880  1.0000
  O   O264      1.0  0.95880  0.11240  0.90880  1.0000
  O   O265      1.0  0.62547  0.17973  0.74213  1.0000
  O   O266      1.0  0.82027  0.44573  0.74213  1.0000
  O   O267      1.0  0.55427  0.37453  0.74213  1.0000
  O   O268      1.0  0.82027  0.37453  0.24213  1.0000
  O   O269      1.0  0.55427  0.17973  0.24213  1.0000
  O   O270      1.0  0.62547  0.44573  0.24213  1.0000
  O   O271      1.0  0.29213  0.51307  0.07547  1.0000
  O   O272      1.0  0.48693  0.77907  0.07547  1.0000
  O   O273      1.0  0.22093  0.70787  0.07547  1.0000
  O   O274      1.0  0.48693  0.70787  0.57547  1.0000
  O   O275      1.0  0.22093  0.51307  0.57547  1.0000
  O   O276      1.0  0.29213  0.77907  0.57547  1.0000
  O   O277      1.0  0.63760  0.69040  0.47210  1.0000
  O   O278      1.0  0.30960  0.94720  0.47210  1.0000
  O   O279      1.0  0.05280  0.36240  0.47210  1.0000
  O   O280      1.0  0.30960  0.36240  0.97210  1.0000
  O   O281      1.0  0.05280  0.69040  0.97210  1.0000
  O   O282      1.0  0.63760  0.94720  0.97210  1.0000
  O   O283      1.0  0.30427  0.02373  0.80543  1.0000
  O   O284      1.0  0.97627  0.28053  0.80543  1.0000
  O   O285      1.0  0.71947  0.69573  0.80543  1.0000
  O   O286      1.0  0.97627  0.69573  0.30543  1.0000
  O   O287      1.0  0.71947  0.02373  0.30543  1.0000
  O   O288      1.0  0.30427  0.28053  0.30543  1.0000
  O   O289      1.0  0.97093  0.35707  0.13877  1.0000
  O   O290      1.0  0.64293  0.61387  0.13877  1.0000
  O   O291      1.0  0.38613  0.02907  0.13877  1.0000
  O   O292      1.0  0.64293  0.02907  0.63877  1.0000
  O   O293      1.0  0.38613  0.35707  0.63877  1.0000
  O   O294      1.0  0.97093  0.61387  0.63877  1.0000
  O   O295      1.0  0.51920  0.59600  0.44610  1.0000
  O   O296      1.0  0.40400  0.92320  0.44610  1.0000
  O   O297      1.0  0.07680  0.48080  0.44610  1.0000
  O   O298      1.0  0.40400  0.48080  0.94610  1.0000
  O   O299      1.0  0.07680  0.59600  0.94610  1.0000
  O   O300      1.0  0.51920  0.92320  0.94610  1.0000
  O   O301      1.0  0.18587  0.92933  0.77943  1.0000
  O   O302      1.0  0.07067  0.25653  0.77943  1.0000
  O   O303      1.0  0.74347  0.81413  0.77943  1.0000
  O   O304      1.0  0.07067  0.81413  0.27943  1.0000
  O   O305      1.0  0.74347  0.92933  0.27943  1.0000
  O   O306      1.0  0.18587  0.25653  0.27943  1.0000
  O   O307      1.0  0.85253  0.26267  0.11277  1.0000
  O   O308      1.0  0.73733  0.58987  0.11277  1.0000
  O   O309      1.0  0.41013  0.14747  0.11277  1.0000
  O   O310      1.0  0.73733  0.14747  0.61277  1.0000
  O   O311      1.0  0.41013  0.26267  0.61277  1.0000
  O   O312      1.0  0.85253  0.58987  0.61277  1.0000
  O   O313      1.0  0.65090  0.78660  0.42430  1.0000
  O   O314      1.0  0.21340  0.86430  0.42430  1.0000
  O   O315      1.0  0.13570  0.34910  0.42430  1.0000
  O   O316      1.0  0.21340  0.34910  0.92430  1.0000
  O   O317      1.0  0.13570  0.78660  0.92430  1.0000
  O   O318      1.0  0.65090  0.86430  0.92430  1.0000
  O   O319      1.0  0.31757  0.11993  0.75763  1.0000
  O   O320      1.0  0.88007  0.19763  0.75763  1.0000
  O   O321      1.0  0.80237  0.68243  0.75763  1.0000
  O   O322      1.0  0.88007  0.68243  0.25763  1.0000
  O   O323      1.0  0.80237  0.11993  0.25763  1.0000
  O   O324      1.0  0.31757  0.19763  0.25763  1.0000
  O   O325      1.0  0.98423  0.45327  0.09097  1.0000
  O   O326      1.0  0.54673  0.53097  0.09097  1.0000
  O   O327      1.0  0.46903  0.01577  0.09097  1.0000
  O   O328      1.0  0.54673  0.01577  0.59097  1.0000
  O   O329      1.0  0.46903  0.45327  0.59097  1.0000
  O   O330      1.0  0.98423  0.53097  0.59097  1.0000
  O   O331      1.0  0.58300  0.84260  0.44970  1.0000
  O   O332      1.0  0.15740  0.74040  0.44970  1.0000
  O   O333      1.0  0.25960  0.41700  0.44970  1.0000
  O   O334      1.0  0.15740  0.41700  0.94970  1.0000
  O   O335      1.0  0.25960  0.84260  0.94970  1.0000
  O   O336      1.0  0.58300  0.74040  0.94970  1.0000
  O   O337      1.0  0.24967  0.17593  0.78303  1.0000
  O   O338      1.0  0.82407  0.07373  0.78303  1.0000
  O   O339      1.0  0.92627  0.75033  0.78303  1.0000
  O   O340      1.0  0.82407  0.75033  0.28303  1.0000
  O   O341      1.0  0.92627  0.17593  0.28303  1.0000
  O   O342      1.0  0.24967  0.07373  0.28303  1.0000
  O   O343      1.0  0.91633  0.50927  0.11637  1.0000
  O   O344      1.0  0.49073  0.40707  0.11637  1.0000
  O   O345      1.0  0.59293  0.08367  0.11637  1.0000
  O   O346      1.0  0.49073  0.08367  0.61637  1.0000
  O   O347      1.0  0.59293  0.50927  0.61637  1.0000
  O   O348      1.0  0.91633  0.40707  0.61637  1.0000
  O   O349      1.0  0.33140  0.73890  0.44930  1.0000
  O   O350      1.0  0.26110  0.59250  0.44930  1.0000
  O   O351      1.0  0.40750  0.66860  0.44930  1.0000
  O   O352      1.0  0.26110  0.66860  0.94930  1.0000
  O   O353      1.0  0.40750  0.73890  0.94930  1.0000
  O   O354      1.0  0.33140  0.59250  0.94930  1.0000
  O   O355      1.0  0.99807  0.07223  0.78263  1.0000
  O   O356      1.0  0.92777  0.92583  0.78263  1.0000
  O   O357      1.0  0.07417  0.00193  0.78263  1.0000
  O   O358      1.0  0.92777  0.00193  0.28263  1.0000
  O   O359      1.0  0.07417  0.07223  0.28263  1.0000
  O   O360      1.0  0.99807  0.92583  0.28263  1.0000
  O   O361      1.0  0.66473  0.40557  0.11597  1.0000
  O   O362      1.0  0.59443  0.25917  0.11597  1.0000
  O   O363      1.0  0.74083  0.33527  0.11597  1.0000
  O   O364      1.0  0.59443  0.33527  0.61597  1.0000
  O   O365      1.0  0.74083  0.40557  0.61597  1.0000
  O   O366      1.0  0.66473  0.25917  0.61597  1.0000
  N   N1        1.0  0.81000  0.71620  0.45800  1.0000
  N   N2        1.0  0.28380  0.09380  0.45800  1.0000
  N   N3        1.0  0.90620  0.19000  0.45800  1.0000
  N   N4        1.0  0.28380  0.19000  0.95800  1.0000
  N   N5        1.0  0.90620  0.71620  0.95800  1.0000
  N   N6        1.0  0.81000  0.09380  0.95800  1.0000
  N   N7        1.0  0.47667  0.04953  0.79133  1.0000
  N   N8        1.0  0.95047  0.42713  0.79133  1.0000
  N   N9        1.0  0.57287  0.52333  0.79133  1.0000
  N   N10       1.0  0.95047  0.52333  0.29133  1.0000
  N   N11       1.0  0.57287  0.04953  0.29133  1.0000
  N   N12       1.0  0.47667  0.42713  0.29133  1.0000
  N   N13       1.0  0.14333  0.38287  0.12467  1.0000
  N   N14       1.0  0.61713  0.76047  0.12467  1.0000
  N   N15       1.0  0.23953  0.85667  0.12467  1.0000
  N   N16       1.0  0.61713  0.85667  0.62467  1.0000
  N   N17       1.0  0.23953  0.38287  0.62467  1.0000
  N   N18       1.0  0.14333  0.76047  0.62467  1.0000
  N   N19       1.0  0.40800  0.52490  0.48390  1.0000
  N   N20       1.0  0.47510  0.88310  0.48390  1.0000
  N   N21       1.0  0.11690  0.59200  0.48390  1.0000
  N   N22       1.0  0.47510  0.59200  0.98390  1.0000
  N   N23       1.0  0.11690  0.52490  0.98390  1.0000
  N   N24       1.0  0.40800  0.88310  0.98390  1.0000
  N   N25       1.0  0.07467  0.85823  0.81723  1.0000
  N   N26       1.0  0.14177  0.21643  0.81723  1.0000
  N   N27       1.0  0.78357  0.92533  0.81723  1.0000
  N   N28       1.0  0.14177  0.92533  0.31723  1.0000
  N   N29       1.0  0.78357  0.85823  0.31723  1.0000
  N   N30       1.0  0.07467  0.21643  0.31723  1.0000
  N   N31       1.0  0.74133  0.19157  0.15057  1.0000
  N   N32       1.0  0.80843  0.54977  0.15057  1.0000
  N   N33       1.0  0.45023  0.25867  0.15057  1.0000
  N   N34       1.0  0.80843  0.25867  0.65057  1.0000
  N   N35       1.0  0.45023  0.19157  0.65057  1.0000
  N   N36       1.0  0.74133  0.54977  0.65057  1.0000
  N   N37       1.0  0.48860  0.85090  0.41170  1.0000
  N   N38       1.0  0.14910  0.63770  0.41170  1.0000
  N   N39       1.0  0.36230  0.51140  0.41170  1.0000
  N   N40       1.0  0.14910  0.51140  0.91170  1.0000
  N   N41       1.0  0.36230  0.85090  0.91170  1.0000
  N   N42       1.0  0.48860  0.63770  0.91170  1.0000
  N   N43       1.0  0.15527  0.18423  0.74503  1.0000
  N   N44       1.0  0.81577  0.97103  0.74503  1.0000
  N   N45       1.0  0.02897  0.84473  0.74503  1.0000
  N   N46       1.0  0.81577  0.84473  0.24503  1.0000
  N   N47       1.0  0.02897  0.18423  0.24503  1.0000
  N   N48       1.0  0.15527  0.97103  0.24503  1.0000
  N   N49       1.0  0.82193  0.51757  0.07837  1.0000
  N   N50       1.0  0.48243  0.30437  0.07837  1.0000
  N   N51       1.0  0.69563  0.17807  0.07837  1.0000
  N   N52       1.0  0.48243  0.17807  0.57837  1.0000
  N   N53       1.0  0.69563  0.51757  0.57837  1.0000
  N   N54       1.0  0.82193  0.30437  0.57837  1.0000
  N   N55       1.0  0.33330  0.66670  0.45060  1.0000
  N   N56       1.0  0.33330  0.66670  0.95060  1.0000
  N   N57       1.0  0.99997  0.00003  0.78393  1.0000
  N   N58       1.0  0.99997  0.00003  0.28393  1.0000
  N   N59       1.0  0.66663  0.33337  0.11727  1.0000
  N   N60       1.0  0.66663  0.33337  0.61727  1.0000
  C   C1        1.0  0.80230  0.66270  0.47750  1.0000
  C   C2        1.0  0.33730  0.13960  0.47750  1.0000
  C   C3        1.0  0.86040  0.19770  0.47750  1.0000
  C   C4        1.0  0.33730  0.19770  0.97750  1.0000
  C   C5        1.0  0.86040  0.66270  0.97750  1.0000
  C   C6        1.0  0.80230  0.13960  0.97750  1.0000
  C   C7        1.0  0.46897  0.99603  0.81083  1.0000
  C   C8        1.0  0.00397  0.47293  0.81083  1.0000
  C   C9        1.0  0.52707  0.53103  0.81083  1.0000
  C   C10       1.0  0.00397  0.53103  0.31083  1.0000
  C   C11       1.0  0.52707  0.99603  0.31083  1.0000
  C   C12       1.0  0.46897  0.47293  0.31083  1.0000
  C   C13       1.0  0.13563  0.32937  0.14417  1.0000
  C   C14       1.0  0.67063  0.80627  0.14417  1.0000
  C   C15       1.0  0.19373  0.86437  0.14417  1.0000
  C   C16       1.0  0.67063  0.86437  0.64417  1.0000
  C   C17       1.0  0.19373  0.32937  0.64417  1.0000
  C   C18       1.0  0.13563  0.80627  0.64417  1.0000
  H   H1        1.0  0.74750  0.63410  0.48670  1.0000
  H   H2        1.0  0.36590  0.11340  0.48670  1.0000
  H   H3        1.0  0.88660  0.25250  0.48670  1.0000
  H   H4        1.0  0.36590  0.25250  0.98670  1.0000
  H   H5        1.0  0.88660  0.63410  0.98670  1.0000
  H   H6        1.0  0.74750  0.11340  0.98670  1.0000
  H   H7        1.0  0.41417  0.96743  0.82003  1.0000
  H   H8        1.0  0.03257  0.44673  0.82003  1.0000
  H   H9        1.0  0.55327  0.58583  0.82003  1.0000
  H   H10       1.0  0.03257  0.58583  0.32003  1.0000
  H   H11       1.0  0.55327  0.96743  0.32003  1.0000
  H   H12       1.0  0.41417  0.44673  0.32003  1.0000
  H   H13       1.0  0.08083  0.30077  0.15337  1.0000
  H   H14       1.0  0.69923  0.78007  0.15337  1.0000
  H   H15       1.0  0.21993  0.91917  0.15337  1.0000
  H   H16       1.0  0.69923  0.91917  0.65337  1.0000
  H   H17       1.0  0.21993  0.30077  0.65337  1.0000
  H   H18       1.0  0.08083  0.78007  0.65337  1.0000
  C   C19       1.0  0.87230  0.64850  0.48450  1.0000
  C   C20       1.0  0.35150  0.22380  0.48450  1.0000
  C   C21       1.0  0.77620  0.12770  0.48450  1.0000
  C   C22       1.0  0.35150  0.12770  0.98450  1.0000
  C   C23       1.0  0.77620  0.64850  0.98450  1.0000
  C   C24       1.0  0.87230  0.22380  0.98450  1.0000
  C   C25       1.0  0.53897  0.98183  0.81783  1.0000
  C   C26       1.0  0.01817  0.55713  0.81783  1.0000
  C   C27       1.0  0.44287  0.46103  0.81783  1.0000
  C   C28       1.0  0.01817  0.46103  0.31783  1.0000
  C   C29       1.0  0.44287  0.98183  0.31783  1.0000
  C   C30       1.0  0.53897  0.55713  0.31783  1.0000
  C   C31       1.0  0.20563  0.31517  0.15117  1.0000
  C   C32       1.0  0.68483  0.89047  0.15117  1.0000
  C   C33       1.0  0.10953  0.79437  0.15117  1.0000
  C   C34       1.0  0.68483  0.79437  0.65117  1.0000
  C   C35       1.0  0.10953  0.31517  0.65117  1.0000
  C   C36       1.0  0.20563  0.89047  0.65117  1.0000
  H   H19       1.0  0.86670  0.61520  0.49930  1.0000
  H   H20       1.0  0.38480  0.25150  0.49930  1.0000
  H   H21       1.0  0.74850  0.13330  0.49930  1.0000
  H   H22       1.0  0.38480  0.13330  0.99930  1.0000
  H   H23       1.0  0.74850  0.61520  0.99930  1.0000
  H   H24       1.0  0.86670  0.25150  0.99930  1.0000
  H   H25       1.0  0.53337  0.94853  0.83263  1.0000
  H   H26       1.0  0.05147  0.58483  0.83263  1.0000
  H   H27       1.0  0.41517  0.46663  0.83263  1.0000
  H   H28       1.0  0.05147  0.46663  0.33263  1.0000
  H   H29       1.0  0.41517  0.94853  0.33263  1.0000
  H   H30       1.0  0.53337  0.58483  0.33263  1.0000
  H   H31       1.0  0.20003  0.28187  0.16597  1.0000
  H   H32       1.0  0.71813  0.91817  0.16597  1.0000
  H   H33       1.0  0.08183  0.79997  0.16597  1.0000
  H   H34       1.0  0.71813  0.79997  0.66597  1.0000
  H   H35       1.0  0.08183  0.28187  0.66597  1.0000
  H   H36       1.0  0.20003  0.91817  0.66597  1.0000
  C   C37       1.0  0.94900  0.68150  0.47060  1.0000
  C   C38       1.0  0.31850  0.26750  0.47060  1.0000
  C   C39       1.0  0.73250  0.05100  0.47060  1.0000
  C   C40       1.0  0.31850  0.05100  0.97060  1.0000
  C   C41       1.0  0.73250  0.68150  0.97060  1.0000
  C   C42       1.0  0.94900  0.26750  0.97060  1.0000
  C   C43       1.0  0.61567  0.01483  0.80393  1.0000
  C   C44       1.0  0.98517  0.60083  0.80393  1.0000
  C   C45       1.0  0.39917  0.38433  0.80393  1.0000
  C   C46       1.0  0.98517  0.38433  0.30393  1.0000
  C   C47       1.0  0.39917  0.01483  0.30393  1.0000
  C   C48       1.0  0.61567  0.60083  0.30393  1.0000
  C   C49       1.0  0.28233  0.34817  0.13727  1.0000
  C   C50       1.0  0.65183  0.93417  0.13727  1.0000
  C   C51       1.0  0.06583  0.71767  0.13727  1.0000
  C   C52       1.0  0.65183  0.71767  0.63727  1.0000
  C   C53       1.0  0.06583  0.34817  0.63727  1.0000
  C   C54       1.0  0.28233  0.93417  0.63727  1.0000
  H   H37       1.0  0.99470  0.66780  0.47470  1.0000
  H   H38       1.0  0.33220  0.32690  0.47470  1.0000
  H   H39       1.0  0.67310  0.00530  0.47470  1.0000
  H   H40       1.0  0.33220  0.00530  0.97470  1.0000
  H   H41       1.0  0.67310  0.66780  0.97470  1.0000
  H   H42       1.0  0.99470  0.32690  0.97470  1.0000
  H   H43       1.0  0.66137  0.00113  0.80803  1.0000
  H   H44       1.0  0.99887  0.66023  0.80803  1.0000
  H   H45       1.0  0.33977  0.33863  0.80803  1.0000
  H   H46       1.0  0.99887  0.33863  0.30803  1.0000
  H   H47       1.0  0.33977  0.00113  0.30803  1.0000
  H   H48       1.0  0.66137  0.66023  0.30803  1.0000
  H   H49       1.0  0.32803  0.33447  0.14137  1.0000
  H   H50       1.0  0.66553  0.99357  0.14137  1.0000
  H   H51       1.0  0.00643  0.67197  0.14137  1.0000
  H   H52       1.0  0.66553  0.67197  0.64137  1.0000
  H   H53       1.0  0.00643  0.33447  0.64137  1.0000
  H   H54       1.0  0.32803  0.99357  0.64137  1.0000
  C   C55       1.0  0.95840  0.73520  0.45030  1.0000
  C   C56       1.0  0.26480  0.22320  0.45030  1.0000
  C   C57       1.0  0.77680  0.04160  0.45030  1.0000
  C   C58       1.0  0.26480  0.04160  0.95030  1.0000
  C   C59       1.0  0.77680  0.73520  0.95030  1.0000
  C   C60       1.0  0.95840  0.22320  0.95030  1.0000
  C   C61       1.0  0.62507  0.06853  0.78363  1.0000
  C   C62       1.0  0.93147  0.55653  0.78363  1.0000
  C   C63       1.0  0.44347  0.37493  0.78363  1.0000
  C   C64       1.0  0.93147  0.37493  0.28363  1.0000
  C   C65       1.0  0.44347  0.06853  0.28363  1.0000
  C   C66       1.0  0.62507  0.55653  0.28363  1.0000
  C   C67       1.0  0.29173  0.40187  0.11697  1.0000
  C   C68       1.0  0.59813  0.88987  0.11697  1.0000
  C   C69       1.0  0.11013  0.70827  0.11697  1.0000
  C   C70       1.0  0.59813  0.70827  0.61697  1.0000
  C   C71       1.0  0.11013  0.40187  0.61697  1.0000
  C   C72       1.0  0.29173  0.88987  0.61697  1.0000
  H   H55       1.0  0.01210  0.76120  0.44070  1.0000
  H   H56       1.0  0.23880  0.25090  0.44070  1.0000
  H   H57       1.0  0.74910  0.98790  0.44070  1.0000
  H   H58       1.0  0.23880  0.98790  0.94070  1.0000
  H   H59       1.0  0.74910  0.76120  0.94070  1.0000
  H   H60       1.0  0.01210  0.25090  0.94070  1.0000
  H   H61       1.0  0.67877  0.09453  0.77403  1.0000
  H   H62       1.0  0.90547  0.58423  0.77403  1.0000
  H   H63       1.0  0.41577  0.32123  0.77403  1.0000
  H   H64       1.0  0.90547  0.32123  0.27403  1.0000
  H   H65       1.0  0.41577  0.09453  0.27403  1.0000
  H   H66       1.0  0.67877  0.58423  0.27403  1.0000
  H   H67       1.0  0.34543  0.42787  0.10737  1.0000
  H   H68       1.0  0.57213  0.91757  0.10737  1.0000
  H   H69       1.0  0.08243  0.65457  0.10737  1.0000
  H   H70       1.0  0.57213  0.65457  0.60737  1.0000
  H   H71       1.0  0.08243  0.42787  0.60737  1.0000
  H   H72       1.0  0.34543  0.91757  0.60737  1.0000
  C   C73       1.0  0.88720  0.75140  0.44390  1.0000
  C   C74       1.0  0.24860  0.13580  0.44390  1.0000
  C   C75       1.0  0.86420  0.11280  0.44390  1.0000
  C   C76       1.0  0.24860  0.11280  0.94390  1.0000
  C   C77       1.0  0.86420  0.75140  0.94390  1.0000
  C   C78       1.0  0.88720  0.13580  0.94390  1.0000
  C   C79       1.0  0.55387  0.08473  0.77723  1.0000
  C   C80       1.0  0.91527  0.46913  0.77723  1.0000
  C   C81       1.0  0.53087  0.44613  0.77723  1.0000
  C   C82       1.0  0.91527  0.44613  0.27723  1.0000
  C   C83       1.0  0.53087  0.08473  0.27723  1.0000
  C   C84       1.0  0.55387  0.46913  0.27723  1.0000
  C   C85       1.0  0.22053  0.41807  0.11057  1.0000
  C   C86       1.0  0.58193  0.80247  0.11057  1.0000
  C   C87       1.0  0.19753  0.77947  0.11057  1.0000
  C   C88       1.0  0.58193  0.77947  0.61057  1.0000
  C   C89       1.0  0.19753  0.41807  0.61057  1.0000
  C   C90       1.0  0.22053  0.80247  0.61057  1.0000
  C   C91       1.0  0.89030  0.80900  0.42280  1.0000
  C   C92       1.0  0.19100  0.08130  0.42280  1.0000
  C   C93       1.0  0.91870  0.10970  0.42280  1.0000
  C   C94       1.0  0.19100  0.10970  0.92280  1.0000
  C   C95       1.0  0.91870  0.80900  0.92280  1.0000
  C   C96       1.0  0.89030  0.08130  0.92280  1.0000
  C   C97       1.0  0.55697  0.14233  0.75613  1.0000
  C   C98       1.0  0.85767  0.41463  0.75613  1.0000
  C   C99       1.0  0.58537  0.44303  0.75613  1.0000
  C   C100      1.0  0.85767  0.44303  0.25613  1.0000
  C   C101      1.0  0.58537  0.14233  0.25613  1.0000
  C   C102      1.0  0.55697  0.41463  0.25613  1.0000
  C   C103      1.0  0.22363  0.47567  0.08947  1.0000
  C   C104      1.0  0.52433  0.74797  0.08947  1.0000
  C   C105      1.0  0.25203  0.77637  0.08947  1.0000
  C   C106      1.0  0.52433  0.77637  0.58947  1.0000
  C   C107      1.0  0.25203  0.47567  0.58947  1.0000
  C   C108      1.0  0.22363  0.74797  0.58947  1.0000
  C   C109      1.0  0.34690  0.48140  0.50230  1.0000
  C   C110      1.0  0.51860  0.86550  0.50230  1.0000
  C   C111      1.0  0.13450  0.65310  0.50230  1.0000
  C   C112      1.0  0.51860  0.65310  0.00230  1.0000
  C   C113      1.0  0.13450  0.48140  0.00230  1.0000
  C   C114      1.0  0.34690  0.86550  0.00230  1.0000
  C   C115      1.0  0.01357  0.81473  0.83563  1.0000
  C   C116      1.0  0.18527  0.19883  0.83563  1.0000
  C   C117      1.0  0.80117  0.98643  0.83563  1.0000
  C   C118      1.0  0.18527  0.98643  0.33563  1.0000
  C   C119      1.0  0.80117  0.81473  0.33563  1.0000
  C   C120      1.0  0.01357  0.19883  0.33563  1.0000
  C   C121      1.0  0.68023  0.14807  0.16897  1.0000
  C   C122      1.0  0.85193  0.53217  0.16897  1.0000
  C   C123      1.0  0.46783  0.31977  0.16897  1.0000
  C   C124      1.0  0.85193  0.31977  0.66897  1.0000
  C   C125      1.0  0.46783  0.14807  0.66897  1.0000
  C   C126      1.0  0.68023  0.53217  0.66897  1.0000
  H   H73       1.0  0.28720  0.43650  0.49810  1.0000
  H   H74       1.0  0.56350  0.85070  0.49810  1.0000
  H   H75       1.0  0.14930  0.71280  0.49810  1.0000
  H   H76       1.0  0.56350  0.71280  0.99810  1.0000
  H   H77       1.0  0.14930  0.43650  0.99810  1.0000
  H   H78       1.0  0.28720  0.85070  0.99810  1.0000
  H   H79       1.0  0.95387  0.76983  0.83143  1.0000
  H   H80       1.0  0.23017  0.18403  0.83143  1.0000
  H   H81       1.0  0.81597  0.04613  0.83143  1.0000
  H   H82       1.0  0.23017  0.04613  0.33143  1.0000
  H   H83       1.0  0.81597  0.76983  0.33143  1.0000
  H   H84       1.0  0.95387  0.18403  0.33143  1.0000
  H   H85       1.0  0.62053  0.10317  0.16477  1.0000
  H   H86       1.0  0.89683  0.51737  0.16477  1.0000
  H   H87       1.0  0.48263  0.37947  0.16477  1.0000
  H   H88       1.0  0.89683  0.37947  0.66477  1.0000
  H   H89       1.0  0.48263  0.10317  0.66477  1.0000
  H   H90       1.0  0.62053  0.51737  0.66477  1.0000
  C   C127      1.0  0.37240  0.50330  0.52800  1.0000
  C   C128      1.0  0.49670  0.86910  0.52800  1.0000
  C   C129      1.0  0.13090  0.62760  0.52800  1.0000
  C   C130      1.0  0.49670  0.62760  0.02800  1.0000
  C   C131      1.0  0.13090  0.50330  0.02800  1.0000
  C   C132      1.0  0.37240  0.86910  0.02800  1.0000
  C   C133      1.0  0.03907  0.83663  0.86133  1.0000
  C   C134      1.0  0.16337  0.20243  0.86133  1.0000
  C   C135      1.0  0.79757  0.96093  0.86133  1.0000
  C   C136      1.0  0.16337  0.96093  0.36133  1.0000
  C   C137      1.0  0.79757  0.83663  0.36133  1.0000
  C   C138      1.0  0.03907  0.20243  0.36133  1.0000
  C   C139      1.0  0.70573  0.16997  0.19467  1.0000
  C   C140      1.0  0.83003  0.53577  0.19467  1.0000
  C   C141      1.0  0.46423  0.29427  0.19467  1.0000
  C   C142      1.0  0.83003  0.29427  0.69467  1.0000
  C   C143      1.0  0.46423  0.16997  0.69467  1.0000
  C   C144      1.0  0.70573  0.53577  0.69467  1.0000
  H   H91       1.0  0.32980  0.47240  0.54090  1.0000
  H   H92       1.0  0.52760  0.85740  0.54090  1.0000
  H   H93       1.0  0.14260  0.67020  0.54090  1.0000
  H   H94       1.0  0.52760  0.67020  0.04090  1.0000
  H   H95       1.0  0.14260  0.47240  0.04090  1.0000
  H   H96       1.0  0.32980  0.85740  0.04090  1.0000
  H   H97       1.0  0.99647  0.80573  0.87423  1.0000
  H   H98       1.0  0.19427  0.19073  0.87423  1.0000
  H   H99       1.0  0.80927  0.00353  0.87423  1.0000
  H   H100      1.0  0.19427  0.00353  0.37423  1.0000
  H   H101      1.0  0.80927  0.80573  0.37423  1.0000
  H   H102      1.0  0.99647  0.19073  0.37423  1.0000
  H   H103      1.0  0.66313  0.13907  0.20757  1.0000
  H   H104      1.0  0.86093  0.52407  0.20757  1.0000
  H   H105      1.0  0.47593  0.33687  0.20757  1.0000
  H   H106      1.0  0.86093  0.33687  0.70757  1.0000
  H   H107      1.0  0.47593  0.13907  0.70757  1.0000
  H   H108      1.0  0.66313  0.52407  0.70757  1.0000
  C   C145      1.0  0.45640  0.56750  0.53380  1.0000
  C   C146      1.0  0.43250  0.88890  0.53380  1.0000
  C   C147      1.0  0.11110  0.54360  0.53380  1.0000
  C   C148      1.0  0.43250  0.54360  0.03380  1.0000
  C   C149      1.0  0.11110  0.56750  0.03380  1.0000
  C   C150      1.0  0.45640  0.88890  0.03380  1.0000
  C   C151      1.0  0.12307  0.90083  0.86713  1.0000
  C   C152      1.0  0.09917  0.22223  0.86713  1.0000
  C   C153      1.0  0.77777  0.87693  0.86713  1.0000
  C   C154      1.0  0.09917  0.87693  0.36713  1.0000
  C   C155      1.0  0.77777  0.90083  0.36713  1.0000
  C   C156      1.0  0.12307  0.22223  0.36713  1.0000
  C   C157      1.0  0.78973  0.23417  0.20047  1.0000
  C   C158      1.0  0.76583  0.55557  0.20047  1.0000
  C   C159      1.0  0.44443  0.21027  0.20047  1.0000
  C   C160      1.0  0.76583  0.21027  0.70047  1.0000
  C   C161      1.0  0.44443  0.23417  0.70047  1.0000
  C   C162      1.0  0.78973  0.55557  0.70047  1.0000
  H   H109      1.0  0.47180  0.58440  0.55080  1.0000
  H   H110      1.0  0.41560  0.88740  0.55080  1.0000
  H   H111      1.0  0.11260  0.52820  0.55080  1.0000
  H   H112      1.0  0.41560  0.52820  0.05080  1.0000
  H   H113      1.0  0.11260  0.58440  0.05080  1.0000
  H   H114      1.0  0.47180  0.88740  0.05080  1.0000
  H   H115      1.0  0.13847  0.91773  0.88413  1.0000
  H   H116      1.0  0.08227  0.22073  0.88413  1.0000
  H   H117      1.0  0.77927  0.86153  0.88413  1.0000
  H   H118      1.0  0.08227  0.86153  0.38413  1.0000
  H   H119      1.0  0.77927  0.91773  0.38413  1.0000
  H   H120      1.0  0.13847  0.22073  0.38413  1.0000
  H   H121      1.0  0.80513  0.25107  0.21747  1.0000
  H   H122      1.0  0.74893  0.55407  0.21747  1.0000
  H   H123      1.0  0.44593  0.19487  0.21747  1.0000
  H   H124      1.0  0.74893  0.19487  0.71747  1.0000
  H   H125      1.0  0.44593  0.25107  0.71747  1.0000
  H   H126      1.0  0.80513  0.55407  0.71747  1.0000
  C   C163      1.0  0.52130  0.60950  0.51540  1.0000
  C   C164      1.0  0.39050  0.91180  0.51540  1.0000
  C   C165      1.0  0.08820  0.47870  0.51540  1.0000
  C   C166      1.0  0.39050  0.47870  0.01540  1.0000
  C   C167      1.0  0.08820  0.60950  0.01540  1.0000
  C   C168      1.0  0.52130  0.91180  0.01540  1.0000
  C   C169      1.0  0.18797  0.94283  0.84873  1.0000
  C   C170      1.0  0.05717  0.24513  0.84873  1.0000
  C   C171      1.0  0.75487  0.81203  0.84873  1.0000
  C   C172      1.0  0.05717  0.81203  0.34873  1.0000
  C   C173      1.0  0.75487  0.94283  0.34873  1.0000
  C   C174      1.0  0.18797  0.24513  0.34873  1.0000
  C   C175      1.0  0.85463  0.27617  0.18207  1.0000
  C   C176      1.0  0.72383  0.57847  0.18207  1.0000
  C   C177      1.0  0.42153  0.14537  0.18207  1.0000
  C   C178      1.0  0.72383  0.14537  0.68207  1.0000
  C   C179      1.0  0.42153  0.27617  0.68207  1.0000
  C   C180      1.0  0.85463  0.57847  0.68207  1.0000
  H   H127      1.0  0.58200  0.65170  0.51940  1.0000
  H   H128      1.0  0.34830  0.93030  0.51940  1.0000
  H   H129      1.0  0.06970  0.41800  0.51940  1.0000
  H   H130      1.0  0.34830  0.41800  0.01940  1.0000
  H   H131      1.0  0.06970  0.65170  0.01940  1.0000
  H   H132      1.0  0.58200  0.93030  0.01940  1.0000
  H   H133      1.0  0.24867  0.98503  0.85273  1.0000
  H   H134      1.0  0.01497  0.26363  0.85273  1.0000
  H   H135      1.0  0.73637  0.75133  0.85273  1.0000
  H   H136      1.0  0.01497  0.75133  0.35273  1.0000
  H   H137      1.0  0.73637  0.98503  0.35273  1.0000
  H   H138      1.0  0.24867  0.26363  0.35273  1.0000
  H   H139      1.0  0.91533  0.31837  0.18607  1.0000
  H   H140      1.0  0.68163  0.59697  0.18607  1.0000
  H   H141      1.0  0.40303  0.08467  0.18607  1.0000
  H   H142      1.0  0.68163  0.08467  0.68607  1.0000
  H   H143      1.0  0.40303  0.31837  0.68607  1.0000
  H   H144      1.0  0.91533  0.59697  0.68607  1.0000
  C   C181      1.0  0.49270  0.58660  0.48970  1.0000
  C   C182      1.0  0.41340  0.90610  0.48970  1.0000
  C   C183      1.0  0.09390  0.50730  0.48970  1.0000
  C   C184      1.0  0.41340  0.50730  0.98970  1.0000
  C   C185      1.0  0.09390  0.58660  0.98970  1.0000
  C   C186      1.0  0.49270  0.90610  0.98970  1.0000
  C   C187      1.0  0.15937  0.91993  0.82303  1.0000
  C   C188      1.0  0.08007  0.23943  0.82303  1.0000
  C   C189      1.0  0.76057  0.84063  0.82303  1.0000
  C   C190      1.0  0.08007  0.84063  0.32303  1.0000
  C   C191      1.0  0.76057  0.91993  0.32303  1.0000
  C   C192      1.0  0.15937  0.23943  0.32303  1.0000
  C   C193      1.0  0.82603  0.25327  0.15637  1.0000
  C   C194      1.0  0.74673  0.57277  0.15637  1.0000
  C   C195      1.0  0.42723  0.17397  0.15637  1.0000
  C   C196      1.0  0.74673  0.17397  0.65637  1.0000
  C   C197      1.0  0.42723  0.25327  0.65637  1.0000
  C   C198      1.0  0.82603  0.57277  0.65637  1.0000
  C   C199      1.0  0.55610  0.62920  0.46760  1.0000
  C   C200      1.0  0.37080  0.92690  0.46760  1.0000
  C   C201      1.0  0.07310  0.44390  0.46760  1.0000
  C   C202      1.0  0.37080  0.44390  0.96760  1.0000
  C   C203      1.0  0.07310  0.62920  0.96760  1.0000
  C   C204      1.0  0.55610  0.92690  0.96760  1.0000
  C   C205      1.0  0.22277  0.96253  0.80093  1.0000
  C   C206      1.0  0.03747  0.26023  0.80093  1.0000
  C   C207      1.0  0.73977  0.77723  0.80093  1.0000
  C   C208      1.0  0.03747  0.77723  0.30093  1.0000
  C   C209      1.0  0.73977  0.96253  0.30093  1.0000
  C   C210      1.0  0.22277  0.26023  0.30093  1.0000
  C   C211      1.0  0.88943  0.29587  0.13427  1.0000
  C   C212      1.0  0.70413  0.59357  0.13427  1.0000
  C   C213      1.0  0.40643  0.11057  0.13427  1.0000
  C   C214      1.0  0.70413  0.11057  0.63427  1.0000
  C   C215      1.0  0.40643  0.29587  0.63427  1.0000
  C   C216      1.0  0.88943  0.59357  0.63427  1.0000
  C   C217      1.0  0.43960  0.86130  0.39340  1.0000
  C   C218      1.0  0.13870  0.57830  0.39340  1.0000
  C   C219      1.0  0.42170  0.56040  0.39340  1.0000
  C   C220      1.0  0.13870  0.56040  0.89340  1.0000
  C   C221      1.0  0.42170  0.86130  0.89340  1.0000
  C   C222      1.0  0.43960  0.57830  0.89340  1.0000
  C   C223      1.0  0.10627  0.19463  0.72673  1.0000
  C   C224      1.0  0.80537  0.91163  0.72673  1.0000
  C   C225      1.0  0.08837  0.89373  0.72673  1.0000
  C   C226      1.0  0.80537  0.89373  0.22673  1.0000
  C   C227      1.0  0.08837  0.19463  0.22673  1.0000
  C   C228      1.0  0.10627  0.91163  0.22673  1.0000
  C   C229      1.0  0.77293  0.52797  0.06007  1.0000
  C   C230      1.0  0.47203  0.24497  0.06007  1.0000
  C   C231      1.0  0.75503  0.22707  0.06007  1.0000
  C   C232      1.0  0.47203  0.22707  0.56007  1.0000
  C   C233      1.0  0.75503  0.52797  0.56007  1.0000
  C   C234      1.0  0.77293  0.24497  0.56007  1.0000
  H   H145      1.0  0.40340  0.88720  0.39720  1.0000
  H   H146      1.0  0.11280  0.51620  0.39720  1.0000
  H   H147      1.0  0.48380  0.59660  0.39720  1.0000
  H   H148      1.0  0.11280  0.59660  0.89720  1.0000
  H   H149      1.0  0.48380  0.88720  0.89720  1.0000
  H   H150      1.0  0.40340  0.51620  0.89720  1.0000
  H   H151      1.0  0.07007  0.22053  0.73053  1.0000
  H   H152      1.0  0.77947  0.84953  0.73053  1.0000
  H   H153      1.0  0.15047  0.92993  0.73053  1.0000
  H   H154      1.0  0.77947  0.92993  0.23053  1.0000
  H   H155      1.0  0.15047  0.22053  0.23053  1.0000
  H   H156      1.0  0.07007  0.84953  0.23053  1.0000
  H   H157      1.0  0.73673  0.55387  0.06387  1.0000
  H   H158      1.0  0.44613  0.18287  0.06387  1.0000
  H   H159      1.0  0.81713  0.26327  0.06387  1.0000
  H   H160      1.0  0.44613  0.26327  0.56387  1.0000
  H   H161      1.0  0.81713  0.55387  0.56387  1.0000
  H   H162      1.0  0.73673  0.18287  0.56387  1.0000
  C   C235      1.0  0.44210  0.83430  0.36890  1.0000
  C   C236      1.0  0.16570  0.60780  0.36890  1.0000
  C   C237      1.0  0.39220  0.55790  0.36890  1.0000
  C   C238      1.0  0.16570  0.55790  0.86890  1.0000
  C   C239      1.0  0.39220  0.83430  0.86890  1.0000
  C   C240      1.0  0.44210  0.60780  0.86890  1.0000
  C   C241      1.0  0.10877  0.16763  0.70223  1.0000
  C   C242      1.0  0.83237  0.94113  0.70223  1.0000
  C   C243      1.0  0.05887  0.89123  0.70223  1.0000
  C   C244      1.0  0.83237  0.89123  0.20223  1.0000
  C   C245      1.0  0.05887  0.16763  0.20223  1.0000
  C   C246      1.0  0.10877  0.94113  0.20223  1.0000
  C   C247      1.0  0.77543  0.50097  0.03557  1.0000
  C   C248      1.0  0.49903  0.27447  0.03557  1.0000
  C   C249      1.0  0.72553  0.22457  0.03557  1.0000
  C   C250      1.0  0.49903  0.22457  0.53557  1.0000
  C   C251      1.0  0.72553  0.50097  0.53557  1.0000
  C   C252      1.0  0.77543  0.27447  0.53557  1.0000
  H   H163      1.0  0.40580  0.83770  0.35600  1.0000
  H   H164      1.0  0.16230  0.56810  0.35600  1.0000
  H   H165      1.0  0.43190  0.59420  0.35600  1.0000
  H   H166      1.0  0.16230  0.59420  0.85600  1.0000
  H   H167      1.0  0.43190  0.83770  0.85600  1.0000
  H   H168      1.0  0.40580  0.56810  0.85600  1.0000
  H   H169      1.0  0.07247  0.17103  0.68933  1.0000
  H   H170      1.0  0.82897  0.90143  0.68933  1.0000
  H   H171      1.0  0.09857  0.92753  0.68933  1.0000
  H   H172      1.0  0.82897  0.92753  0.18933  1.0000
  H   H173      1.0  0.09857  0.17103  0.18933  1.0000
  H   H174      1.0  0.07247  0.90143  0.18933  1.0000
  H   H175      1.0  0.73913  0.50437  0.02267  1.0000
  H   H176      1.0  0.49563  0.23477  0.02267  1.0000
  H   H177      1.0  0.76523  0.26087  0.02267  1.0000
  H   H178      1.0  0.49563  0.26087  0.52267  1.0000
  H   H179      1.0  0.76523  0.50437  0.52267  1.0000
  H   H180      1.0  0.73913  0.23477  0.52267  1.0000
  C   C253      1.0  0.50290  0.80120  0.36430  1.0000
  C   C254      1.0  0.19880  0.70170  0.36430  1.0000
  C   C255      1.0  0.29830  0.49710  0.36430  1.0000
  C   C256      1.0  0.19880  0.49710  0.86430  1.0000
  C   C257      1.0  0.29830  0.80120  0.86430  1.0000
  C   C258      1.0  0.50290  0.70170  0.86430  1.0000
  C   C259      1.0  0.16957  0.13453  0.69763  1.0000
  C   C260      1.0  0.86547  0.03503  0.69763  1.0000
  C   C261      1.0  0.96497  0.83043  0.69763  1.0000
  C   C262      1.0  0.86547  0.83043  0.19763  1.0000
  C   C263      1.0  0.96497  0.13453  0.19763  1.0000
  C   C264      1.0  0.16957  0.03503  0.19763  1.0000
  C   C265      1.0  0.83623  0.46787  0.03097  1.0000
  C   C266      1.0  0.53213  0.36837  0.03097  1.0000
  C   C267      1.0  0.63163  0.16377  0.03097  1.0000
  C   C268      1.0  0.53213  0.16377  0.53097  1.0000
  C   C269      1.0  0.63163  0.46787  0.53097  1.0000
  C   C270      1.0  0.83623  0.36837  0.53097  1.0000
  H   H181      1.0  0.50750  0.78330  0.34780  1.0000
  H   H182      1.0  0.21670  0.72420  0.34780  1.0000
  H   H183      1.0  0.27580  0.49250  0.34780  1.0000
  H   H184      1.0  0.21670  0.49250  0.84780  1.0000
  H   H185      1.0  0.27580  0.78330  0.84780  1.0000
  H   H186      1.0  0.50750  0.72420  0.84780  1.0000
  H   H187      1.0  0.17417  0.11663  0.68113  1.0000
  H   H188      1.0  0.88337  0.05753  0.68113  1.0000
  H   H189      1.0  0.94247  0.82583  0.68113  1.0000
  H   H190      1.0  0.88337  0.82583  0.18113  1.0000
  H   H191      1.0  0.94247  0.11663  0.18113  1.0000
  H   H192      1.0  0.17417  0.05753  0.18113  1.0000
  H   H193      1.0  0.84083  0.44997  0.01447  1.0000
  H   H194      1.0  0.55003  0.39087  0.01447  1.0000
  H   H195      1.0  0.60913  0.15917  0.01447  1.0000
  H   H196      1.0  0.55003  0.15917  0.51447  1.0000
  H   H197      1.0  0.60913  0.44997  0.51447  1.0000
  H   H198      1.0  0.84083  0.39087  0.51447  1.0000
  C   C271      1.0  0.55480  0.79420  0.38280  1.0000
  C   C272      1.0  0.20580  0.76060  0.38280  1.0000
  C   C273      1.0  0.23940  0.44520  0.38280  1.0000
  C   C274      1.0  0.20580  0.44520  0.88280  1.0000
  C   C275      1.0  0.23940  0.79420  0.88280  1.0000
  C   C276      1.0  0.55480  0.76060  0.88280  1.0000
  C   C277      1.0  0.22147  0.12753  0.71613  1.0000
  C   C278      1.0  0.87247  0.09393  0.71613  1.0000
  C   C279      1.0  0.90607  0.77853  0.71613  1.0000
  C   C280      1.0  0.87247  0.77853  0.21613  1.0000
  C   C281      1.0  0.90607  0.12753  0.21613  1.0000
  C   C282      1.0  0.22147  0.09393  0.21613  1.0000
  C   C283      1.0  0.88813  0.46087  0.04947  1.0000
  C   C284      1.0  0.53913  0.42727  0.04947  1.0000
  C   C285      1.0  0.57273  0.11187  0.04947  1.0000
  C   C286      1.0  0.53913  0.11187  0.54947  1.0000
  C   C287      1.0  0.57273  0.46087  0.54947  1.0000
  C   C288      1.0  0.88813  0.42727  0.54947  1.0000
  H   H199      1.0  0.59620  0.77390  0.37960  1.0000
  H   H200      1.0  0.22610  0.82230  0.37960  1.0000
  H   H201      1.0  0.17770  0.40380  0.37960  1.0000
  H   H202      1.0  0.22610  0.40380  0.87960  1.0000
  H   H203      1.0  0.17770  0.77390  0.87960  1.0000
  H   H204      1.0  0.59620  0.82230  0.87960  1.0000
  H   H205      1.0  0.26287  0.10723  0.71293  1.0000
  H   H206      1.0  0.89277  0.15563  0.71293  1.0000
  H   H207      1.0  0.84437  0.73713  0.71293  1.0000
  H   H208      1.0  0.89277  0.73713  0.21293  1.0000
  H   H209      1.0  0.84437  0.10723  0.21293  1.0000
  H   H210      1.0  0.26287  0.15563  0.21293  1.0000
  H   H211      1.0  0.92953  0.44057  0.04627  1.0000
  H   H212      1.0  0.55943  0.48897  0.04627  1.0000
  H   H213      1.0  0.51103  0.07047  0.04627  1.0000
  H   H214      1.0  0.55943  0.07047  0.54627  1.0000
  H   H215      1.0  0.51103  0.44057  0.54627  1.0000
  H   H216      1.0  0.92953  0.48897  0.54627  1.0000
  C   C289      1.0  0.54240  0.81890  0.40610  1.0000
  C   C290      1.0  0.18110  0.72350  0.40610  1.0000
  C   C291      1.0  0.27650  0.45760  0.40610  1.0000
  C   C292      1.0  0.18110  0.45760  0.90610  1.0000
  C   C293      1.0  0.27650  0.81890  0.90610  1.0000
  C   C294      1.0  0.54240  0.72350  0.90610  1.0000
  C   C295      1.0  0.20907  0.15223  0.73943  1.0000
  C   C296      1.0  0.84777  0.05683  0.73943  1.0000
  C   C297      1.0  0.94317  0.79093  0.73943  1.0000
  C   C298      1.0  0.84777  0.79093  0.23943  1.0000
  C   C299      1.0  0.94317  0.15223  0.23943  1.0000
  C   C300      1.0  0.20907  0.05683  0.23943  1.0000
  C   C301      1.0  0.87573  0.48557  0.07277  1.0000
  C   C302      1.0  0.51443  0.39017  0.07277  1.0000
  C   C303      1.0  0.60983  0.12427  0.07277  1.0000
  C   C304      1.0  0.51443  0.12427  0.57277  1.0000
  C   C305      1.0  0.60983  0.48557  0.57277  1.0000
  C   C306      1.0  0.87573  0.39017  0.57277  1.0000
  C   C307      1.0  0.59630  0.81640  0.42850  1.0000
  C   C308      1.0  0.18360  0.77990  0.42850  1.0000
  C   C309      1.0  0.22010  0.40370  0.42850  1.0000
  C   C310      1.0  0.18360  0.40370  0.92850  1.0000
  C   C311      1.0  0.22010  0.81640  0.92850  1.0000
  C   C312      1.0  0.59630  0.77990  0.92850  1.0000
  C   C313      1.0  0.26297  0.14973  0.76183  1.0000
  C   C314      1.0  0.85027  0.11323  0.76183  1.0000
  C   C315      1.0  0.88677  0.73703  0.76183  1.0000
  C   C316      1.0  0.85027  0.73703  0.26183  1.0000
  C   C317      1.0  0.88677  0.14973  0.26183  1.0000
  C   C318      1.0  0.26297  0.11323  0.26183  1.0000
  C   C319      1.0  0.92963  0.48307  0.09517  1.0000
  C   C320      1.0  0.51693  0.44657  0.09517  1.0000
  C   C321      1.0  0.55343  0.07037  0.09517  1.0000
  C   C322      1.0  0.51693  0.07037  0.59517  1.0000
  C   C323      1.0  0.55343  0.48307  0.59517  1.0000
  C   C324      1.0  0.92963  0.44657  0.59517  1.0000
