data_image0
_chemical_formula_structural       C12H4C4H4C8H4C4H4C12H4C4H4C8H4C4H4C12H4C4H4C8H4C4H4C8H4C8H4C8H4C12H4C4H4C8H4C4H4C12H4C4H4C8H4C4H4C12H4C4H4C8H4C4H4C8H4C8H4C8H4C4H4C4H4C8H4C4H4C4H4C4H4C8H4C4H4Cd8N8O48
_chemical_formula_sum              "C256 H152 Cd8 N8 O48"
_cell_length_a       16.8416
_cell_length_b       29.9444
_cell_length_c       15.9876
_cell_angle_alpha    90
_cell_angle_beta     98.076
_cell_angle_gamma    90

_space_group_name_H-M_alt    "P 1"
_space_group_IT_number       1

loop_
  _space_group_symop_operation_xyz
  'x, y, z'

loop_
  _atom_site_type_symbol
  _atom_site_label
  _atom_site_symmetry_multiplicity
  _atom_site_fract_x
  _atom_site_fract_y
  _atom_site_fract_z
  _atom_site_occupancy
  C   C1        1.0  0.29150  0.33377  0.87140  1.0000
  C   C2        1.0  0.70850  0.83377  0.62860  1.0000
  C   C3        1.0  0.70850  0.66623  0.12860  1.0000
  C   C4        1.0  0.29150  0.16623  0.37140  1.0000
  C   C5        1.0  0.25430  0.35719  0.79170  1.0000
  C   C6        1.0  0.74570  0.85719  0.70830  1.0000
  C   C7        1.0  0.74570  0.64281  0.20830  1.0000
  C   C8        1.0  0.25430  0.14281  0.29170  1.0000
  C   C9        1.0  0.17750  0.37329  0.78400  1.0000
  C   C10       1.0  0.82250  0.87329  0.71600  1.0000
  C   C11       1.0  0.82250  0.62671  0.21600  1.0000
  C   C12       1.0  0.17750  0.12671  0.28400  1.0000
  H   H1        1.0  0.14610  0.36870  0.82820  1.0000
  H   H2        1.0  0.85390  0.86870  0.67180  1.0000
  H   H3        1.0  0.85390  0.63130  0.17180  1.0000
  H   H4        1.0  0.14610  0.13130  0.32820  1.0000
  C   C13       1.0  0.14560  0.39627  0.71180  1.0000
  C   C14       1.0  0.85440  0.89627  0.78820  1.0000
  C   C15       1.0  0.85440  0.60373  0.28820  1.0000
  C   C16       1.0  0.14560  0.10373  0.21180  1.0000
  H   H5        1.0  0.09340  0.40880  0.70900  1.0000
  H   H6        1.0  0.90660  0.90880  0.79100  1.0000
  H   H7        1.0  0.90660  0.59120  0.29100  1.0000
  H   H8        1.0  0.09340  0.09120  0.20900  1.0000
  C   C17       1.0  0.18660  0.40151  0.64480  1.0000
  C   C18       1.0  0.81340  0.90151  0.85520  1.0000
  C   C19       1.0  0.81340  0.59849  0.35520  1.0000
  C   C20       1.0  0.18660  0.09849  0.14480  1.0000
  C   C21       1.0  0.26020  0.38260  0.65070  1.0000
  C   C22       1.0  0.73980  0.88260  0.84930  1.0000
  C   C23       1.0  0.73980  0.61740  0.34930  1.0000
  C   C24       1.0  0.26020  0.11740  0.15070  1.0000
  H   H9        1.0  0.28850  0.38380  0.60330  1.0000
  H   H10       1.0  0.71150  0.88380  0.89670  1.0000
  H   H11       1.0  0.71150  0.61620  0.39670  1.0000
  H   H12       1.0  0.28850  0.11620  0.10330  1.0000
  C   C25       1.0  0.29590  0.36140  0.72500  1.0000
  C   C26       1.0  0.70410  0.86140  0.77500  1.0000
  C   C27       1.0  0.70410  0.63860  0.27500  1.0000
  C   C28       1.0  0.29590  0.13860  0.22500  1.0000
  H   H13       1.0  0.34900  0.35010  0.72870  1.0000
  H   H14       1.0  0.65100  0.85010  0.77130  1.0000
  H   H15       1.0  0.65100  0.64990  0.27130  1.0000
  H   H16       1.0  0.34900  0.14990  0.22870  1.0000
  C   C29       1.0  0.11170  0.68820  0.48320  1.0000
  C   C30       1.0  0.88830  0.18820  0.01680  1.0000
  C   C31       1.0  0.88830  0.31180  0.51680  1.0000
  C   C32       1.0  0.11170  0.81180  0.98320  1.0000
  C   C33       1.0  0.11830  0.63792  0.47940  1.0000
  C   C34       1.0  0.88170  0.13792  0.02060  1.0000
  C   C35       1.0  0.88170  0.36208  0.52060  1.0000
  C   C36       1.0  0.11830  0.86208  0.97940  1.0000
  C   C37       1.0  0.17810  0.61520  0.53190  1.0000
  C   C38       1.0  0.82190  0.11520  0.96810  1.0000
  C   C39       1.0  0.82190  0.38480  0.46810  1.0000
  C   C40       1.0  0.17810  0.88480  0.03190  1.0000
  H   H17       1.0  0.21830  0.63170  0.56650  1.0000
  H   H18       1.0  0.78170  0.13170  0.93350  1.0000
  H   H19       1.0  0.78170  0.36830  0.43350  1.0000
  H   H20       1.0  0.21830  0.86830  0.06650  1.0000
  C   C41       1.0  0.17990  0.56922  0.53450  1.0000
  C   C42       1.0  0.82010  0.06922  0.96550  1.0000
  C   C43       1.0  0.82010  0.43078  0.46550  1.0000
  C   C44       1.0  0.17990  0.93078  0.03450  1.0000
  H   H21       1.0  0.22060  0.55460  0.57180  1.0000
  H   H22       1.0  0.77940  0.05460  0.92820  1.0000
  H   H23       1.0  0.77940  0.44540  0.42820  1.0000
  H   H24       1.0  0.22060  0.94540  0.07180  1.0000
  C   C45       1.0  0.12290  0.54362  0.48300  1.0000
  C   C46       1.0  0.87710  0.04362  0.01700  1.0000
  C   C47       1.0  0.87710  0.45638  0.51700  1.0000
  C   C48       1.0  0.12290  0.95638  0.98300  1.0000
  C   C49       1.0  0.06370  0.56690  0.42810  1.0000
  C   C50       1.0  0.93630  0.06690  0.07190  1.0000
  C   C51       1.0  0.93630  0.43310  0.57190  1.0000
  C   C52       1.0  0.06370  0.93310  0.92810  1.0000
  H   H25       1.0  0.02510  0.55070  0.39110  1.0000
  H   H26       1.0  0.97490  0.05070  0.10890  1.0000
  H   H27       1.0  0.97490  0.44930  0.60890  1.0000
  H   H28       1.0  0.02510  0.94930  0.89110  1.0000
  C   C53       1.0  0.06150  0.61307  0.42810  1.0000
  C   C54       1.0  0.93850  0.11307  0.07190  1.0000
  C   C55       1.0  0.93850  0.38693  0.57190  1.0000
  C   C56       1.0  0.06150  0.88693  0.92810  1.0000
  H   H29       1.0  0.02030  0.62810  0.39210  1.0000
  H   H30       1.0  0.97970  0.12810  0.10790  1.0000
  H   H31       1.0  0.97970  0.37190  0.60790  1.0000
  H   H32       1.0  0.02030  0.87190  0.89210  1.0000
  C   C57       1.0  0.96090  0.32198  0.11930  1.0000
  C   C58       1.0  0.03910  0.82198  0.38070  1.0000
  C   C59       1.0  0.03910  0.67802  0.88070  1.0000
  C   C60       1.0  0.96090  0.17802  0.61930  1.0000
  C   C61       1.0  0.99540  0.34743  0.19700  1.0000
  C   C62       1.0  0.00460  0.84743  0.30300  1.0000
  C   C63       1.0  0.00460  0.65257  0.80300  1.0000
  C   C64       1.0  0.99540  0.15257  0.69700  1.0000
  C   C65       1.0  0.05920  0.37661  0.19450  1.0000
  C   C66       1.0  0.94080  0.87661  0.30550  1.0000
  C   C67       1.0  0.94080  0.62339  0.80550  1.0000
  C   C68       1.0  0.05920  0.12339  0.69450  1.0000
  H   H33       1.0  0.08190  0.37980  0.14370  1.0000
  H   H34       1.0  0.91810  0.87980  0.35630  1.0000
  H   H35       1.0  0.91810  0.62020  0.85630  1.0000
  H   H36       1.0  0.08190  0.12020  0.64370  1.0000
  C   C69       1.0  0.09050  0.40125  0.26560  1.0000
  C   C70       1.0  0.90950  0.90125  0.23440  1.0000
  C   C71       1.0  0.90950  0.59875  0.73440  1.0000
  C   C72       1.0  0.09050  0.09875  0.76560  1.0000
  H   H37       1.0  0.13300  0.42180  0.26240  1.0000
  H   H38       1.0  0.86700  0.92180  0.23760  1.0000
  H   H39       1.0  0.86700  0.57820  0.73760  1.0000
  H   H40       1.0  0.13300  0.07820  0.76240  1.0000
  C   C73       1.0  0.05950  0.39579  0.34100  1.0000
  C   C74       1.0  0.94050  0.89579  0.15900  1.0000
  C   C75       1.0  0.94050  0.60421  0.65900  1.0000
  C   C76       1.0  0.05950  0.10421  0.84100  1.0000
  C   C77       1.0  0.99900  0.36572  0.34450  1.0000
  C   C78       1.0  0.00100  0.86572  0.15550  1.0000
  C   C79       1.0  0.00100  0.63428  0.65550  1.0000
  C   C80       1.0  0.99900  0.13428  0.84450  1.0000
  H   H41       1.0  0.97980  0.36060  0.39690  1.0000
  H   H42       1.0  0.02020  0.86060  0.10310  1.0000
  H   H43       1.0  0.02020  0.63940  0.60310  1.0000
  H   H44       1.0  0.97980  0.13940  0.89690  1.0000
  C   C81       1.0  0.96470  0.34237  0.27300  1.0000
  C   C82       1.0  0.03530  0.84237  0.22700  1.0000
  C   C83       1.0  0.03530  0.65763  0.72700  1.0000
  C   C84       1.0  0.96470  0.15763  0.77300  1.0000
  H   H45       1.0  0.92050  0.32300  0.27600  1.0000
  H   H46       1.0  0.07950  0.82300  0.22400  1.0000
  H   H47       1.0  0.07950  0.67700  0.72400  1.0000
  H   H48       1.0  0.92050  0.17700  0.77600  1.0000
  C   C85       1.0  0.15220  0.42493  0.56510  1.0000
  C   C86       1.0  0.84780  0.92493  0.93490  1.0000
  C   C87       1.0  0.84780  0.57507  0.43490  1.0000
  C   C88       1.0  0.15220  0.07507  0.06510  1.0000
  C   C89       1.0  0.15220  0.47138  0.56080  1.0000
  C   C90       1.0  0.84780  0.97138  0.93920  1.0000
  C   C91       1.0  0.84780  0.52862  0.43920  1.0000
  C   C92       1.0  0.15220  0.02862  0.06080  1.0000
  H   H49       1.0  0.17230  0.48810  0.60970  1.0000
  H   H50       1.0  0.82770  0.98810  0.89030  1.0000
  H   H51       1.0  0.82770  0.51190  0.39030  1.0000
  H   H52       1.0  0.17230  0.01190  0.10970  1.0000
  C   C93       1.0  0.12320  0.49385  0.48620  1.0000
  C   C94       1.0  0.87680  0.99385  0.01380  1.0000
  C   C95       1.0  0.87680  0.50615  0.51380  1.0000
  C   C96       1.0  0.12320  0.00615  0.98620  1.0000
  C   C97       1.0  0.09480  0.46860  0.41420  1.0000
  C   C98       1.0  0.90520  0.96860  0.08580  1.0000
  C   C99       1.0  0.90520  0.53140  0.58580  1.0000
  C   C100      1.0  0.09480  0.03140  0.91420  1.0000
  H   H53       1.0  0.07630  0.48340  0.36250  1.0000
  H   H54       1.0  0.92370  0.98340  0.13750  1.0000
  H   H55       1.0  0.92370  0.51660  0.63750  1.0000
  H   H56       1.0  0.07630  0.01660  0.86250  1.0000
  C   C101      1.0  0.09320  0.42210  0.41750  1.0000
  C   C102      1.0  0.90680  0.92210  0.08250  1.0000
  C   C103      1.0  0.90680  0.57790  0.58250  1.0000
  C   C104      1.0  0.09320  0.07790  0.91750  1.0000
  C   C105      1.0  0.12140  0.40023  0.49380  1.0000
  C   C106      1.0  0.87860  0.90023  0.00620  1.0000
  C   C107      1.0  0.87860  0.59977  0.50620  1.0000
  C   C108      1.0  0.12140  0.09977  0.99380  1.0000
  H   H57       1.0  0.11940  0.36860  0.49680  1.0000
  H   H58       1.0  0.88060  0.86860  0.00320  1.0000
  H   H59       1.0  0.88060  0.63140  0.50320  1.0000
  H   H60       1.0  0.11940  0.13140  0.99680  1.0000
  C   C109      1.0  0.56090  0.85006  0.37470  1.0000
  C   C110      1.0  0.43910  0.35006  0.12530  1.0000
  C   C111      1.0  0.43910  0.14994  0.62530  1.0000
  C   C112      1.0  0.56090  0.64994  0.87470  1.0000
  C   C113      1.0  0.51930  0.87467  0.29980  1.0000
  C   C114      1.0  0.48070  0.37467  0.20020  1.0000
  C   C115      1.0  0.48070  0.12533  0.70020  1.0000
  C   C116      1.0  0.51930  0.62533  0.79980  1.0000
  C   C117      1.0  0.55680  0.91046  0.26500  1.0000
  C   C118      1.0  0.44320  0.41046  0.23500  1.0000
  C   C119      1.0  0.44320  0.08954  0.73500  1.0000
  C   C120      1.0  0.55680  0.58954  0.76500  1.0000
  H   H61       1.0  0.60800  0.92030  0.29120  1.0000
  H   H62       1.0  0.39200  0.42030  0.20880  1.0000
  H   H63       1.0  0.39200  0.07970  0.70880  1.0000
  H   H64       1.0  0.60800  0.57970  0.79120  1.0000
  C   C121      1.0  0.51990  0.93186  0.19230  1.0000
  C   C122      1.0  0.48010  0.43186  0.30770  1.0000
  C   C123      1.0  0.48010  0.06814  0.80770  1.0000
  C   C124      1.0  0.51990  0.56814  0.69230  1.0000
  H   H65       1.0  0.54580  0.95640  0.16980  1.0000
  H   H66       1.0  0.45420  0.45640  0.33020  1.0000
  H   H67       1.0  0.45420  0.04360  0.83020  1.0000
  H   H68       1.0  0.54580  0.54360  0.66980  1.0000
  C   C125      1.0  0.44510  0.91753  0.15210  1.0000
  C   C126      1.0  0.55490  0.41753  0.34790  1.0000
  C   C127      1.0  0.55490  0.08247  0.84790  1.0000
  C   C128      1.0  0.44510  0.58247  0.65210  1.0000
  C   C129      1.0  0.40820  0.88186  0.18780  1.0000
  C   C130      1.0  0.59180  0.38186  0.31220  1.0000
  C   C131      1.0  0.59180  0.11814  0.81220  1.0000
  C   C132      1.0  0.40820  0.61814  0.68780  1.0000
  H   H69       1.0  0.35690  0.87190  0.16210  1.0000
  H   H70       1.0  0.64310  0.37190  0.33790  1.0000
  H   H71       1.0  0.64310  0.12810  0.83790  1.0000
  H   H72       1.0  0.35690  0.62810  0.66210  1.0000
  C   C133      1.0  0.44500  0.86077  0.26000  1.0000
  C   C134      1.0  0.55500  0.36077  0.24000  1.0000
  C   C135      1.0  0.55500  0.13923  0.74000  1.0000
  C   C136      1.0  0.44500  0.63923  0.76000  1.0000
  H   H73       1.0  0.41900  0.83640  0.28260  1.0000
  H   H74       1.0  0.58100  0.33640  0.21740  1.0000
  H   H75       1.0  0.58100  0.16360  0.71740  1.0000
  H   H76       1.0  0.41900  0.66360  0.78260  1.0000
  C   C137      1.0  0.19260  0.83404  0.63850  1.0000
  C   C138      1.0  0.80740  0.33404  0.86150  1.0000
  C   C139      1.0  0.80740  0.16596  0.36150  1.0000
  C   C140      1.0  0.19260  0.66596  0.13850  1.0000
  C   C141      1.0  0.23090  0.86003  0.71290  1.0000
  C   C142      1.0  0.76910  0.36003  0.78710  1.0000
  C   C143      1.0  0.76910  0.13997  0.28710  1.0000
  C   C144      1.0  0.23090  0.63997  0.21290  1.0000
  C   C145      1.0  0.20120  0.90207  0.73060  1.0000
  C   C146      1.0  0.79880  0.40207  0.76940  1.0000
  C   C147      1.0  0.79880  0.09793  0.26940  1.0000
  C   C148      1.0  0.20120  0.59793  0.23060  1.0000
  H   H77       1.0  0.15660  0.91420  0.69480  1.0000
  H   H78       1.0  0.84340  0.41420  0.80520  1.0000
  H   H79       1.0  0.84340  0.08580  0.30520  1.0000
  H   H80       1.0  0.15660  0.58580  0.19480  1.0000
  C   C149      1.0  0.23710  0.92672  0.80130  1.0000
  C   C150      1.0  0.76290  0.42672  0.69870  1.0000
  C   C151      1.0  0.76290  0.07328  0.19870  1.0000
  C   C152      1.0  0.23710  0.57328  0.30130  1.0000
  H   H81       1.0  0.21750  0.95560  0.81180  1.0000
  H   H82       1.0  0.78250  0.45560  0.68820  1.0000
  H   H83       1.0  0.78250  0.04440  0.18820  1.0000
  H   H84       1.0  0.21750  0.54440  0.31180  1.0000
  C   C153      1.0  0.30100  0.90895  0.85560  1.0000
  C   C154      1.0  0.69900  0.40895  0.64440  1.0000
  C   C155      1.0  0.69900  0.09105  0.14440  1.0000
  C   C156      1.0  0.30100  0.59105  0.35560  1.0000
  C   C157      1.0  0.32240  0.86591  0.84250  1.0000
  C   C158      1.0  0.67760  0.36591  0.65750  1.0000
  C   C159      1.0  0.67760  0.13409  0.15750  1.0000
  C   C160      1.0  0.32240  0.63409  0.34250  1.0000
  H   H85       1.0  0.36190  0.85200  0.88240  1.0000
  H   H86       1.0  0.63810  0.35200  0.61760  1.0000
  H   H87       1.0  0.63810  0.14800  0.11760  1.0000
  H   H88       1.0  0.36190  0.64800  0.38240  1.0000
  C   C161      1.0  0.28830  0.84204  0.77270  1.0000
  C   C162      1.0  0.71170  0.34204  0.72730  1.0000
  C   C163      1.0  0.71170  0.15796  0.22730  1.0000
  C   C164      1.0  0.28830  0.65796  0.27270  1.0000
  H   H89       1.0  0.30520  0.81210  0.76590  1.0000
  H   H90       1.0  0.69480  0.31210  0.73410  1.0000
  H   H91       1.0  0.69480  0.18790  0.23410  1.0000
  H   H92       1.0  0.30520  0.68790  0.26590  1.0000
  C   C165      1.0  0.36720  0.20122  0.97680  1.0000
  C   C166      1.0  0.63280  0.70122  0.52320  1.0000
  C   C167      1.0  0.63280  0.79878  0.02320  1.0000
  C   C168      1.0  0.36720  0.29878  0.47680  1.0000
  C   C169      1.0  0.37350  0.15122  0.97700  1.0000
  C   C170      1.0  0.62650  0.65122  0.52300  1.0000
  C   C171      1.0  0.62650  0.84878  0.02300  1.0000
  C   C172      1.0  0.37350  0.34878  0.47700  1.0000
  C   C173      1.0  0.31160  0.12598  0.93060  1.0000
  C   C174      1.0  0.68840  0.62598  0.56940  1.0000
  C   C175      1.0  0.68840  0.87402  0.06940  1.0000
  C   C176      1.0  0.31160  0.37402  0.43060  1.0000
  H   H93       1.0  0.26910  0.14060  0.89590  1.0000
  H   H94       1.0  0.73090  0.64060  0.60410  1.0000
  H   H95       1.0  0.73090  0.85940  0.10410  1.0000
  H   H96       1.0  0.26910  0.35940  0.39590  1.0000
  C   C177      1.0  0.31290  0.07991  0.93570  1.0000
  C   C178      1.0  0.68710  0.57991  0.56430  1.0000
  C   C179      1.0  0.68710  0.92009  0.06430  1.0000
  C   C180      1.0  0.31290  0.42009  0.43570  1.0000
  H   H97       1.0  0.27100  0.06310  0.90440  1.0000
  H   H98       1.0  0.72900  0.56310  0.59560  1.0000
  H   H99       1.0  0.72900  0.93690  0.09560  1.0000
  H   H100      1.0  0.27100  0.43690  0.40440  1.0000
  C   C181      1.0  0.37490  0.05764  0.98640  1.0000
  C   C182      1.0  0.62510  0.55764  0.51360  1.0000
  C   C183      1.0  0.62510  0.94236  0.01360  1.0000
  C   C184      1.0  0.37490  0.44236  0.48640  1.0000
  C   C185      1.0  0.43640  0.08284  0.03030  1.0000
  C   C186      1.0  0.56360  0.58284  0.46970  1.0000
  C   C187      1.0  0.56360  0.91716  0.96970  1.0000
  C   C188      1.0  0.43640  0.41716  0.53030  1.0000
  H   H101      1.0  0.47950  0.06820  0.06430  1.0000
  H   H102      1.0  0.52050  0.56820  0.43570  1.0000
  H   H103      1.0  0.52050  0.93180  0.93570  1.0000
  H   H104      1.0  0.47950  0.43180  0.56430  1.0000
  C   C189      1.0  0.43570  0.12877  0.02500  1.0000
  C   C190      1.0  0.56430  0.62877  0.47500  1.0000
  C   C191      1.0  0.56430  0.87123  0.97500  1.0000
  C   C192      1.0  0.43570  0.37123  0.52500  1.0000
  H   H105      1.0  0.47880  0.14530  0.05500  1.0000
  H   H106      1.0  0.52120  0.64530  0.44500  1.0000
  H   H107      1.0  0.52120  0.85470  0.94500  1.0000
  H   H108      1.0  0.47880  0.35470  0.55500  1.0000
  C   C193      1.0  0.40670  0.93959  0.07310  1.0000
  C   C194      1.0  0.59330  0.43959  0.42690  1.0000
  C   C195      1.0  0.59330  0.06041  0.92690  1.0000
  C   C196      1.0  0.40670  0.56041  0.57310  1.0000
  C   C197      1.0  0.37200  0.91474  0.00420  1.0000
  C   C198      1.0  0.62800  0.41474  0.49580  1.0000
  C   C199      1.0  0.62800  0.08526  0.99580  1.0000
  C   C200      1.0  0.37200  0.58526  0.50420  1.0000
  H   H109      1.0  0.37100  0.88310  0.00820  1.0000
  H   H110      1.0  0.62900  0.38310  0.49180  1.0000
  H   H111      1.0  0.62900  0.11690  0.99180  1.0000
  H   H112      1.0  0.37100  0.61690  0.50820  1.0000
  C   C201      1.0  0.33850  0.93543  0.92880  1.0000
  C   C202      1.0  0.66150  0.43543  0.57120  1.0000
  C   C203      1.0  0.66150  0.06457  0.07120  1.0000
  C   C204      1.0  0.33850  0.56457  0.42880  1.0000
  C   C205      1.0  0.34130  0.98181  0.92450  1.0000
  C   C206      1.0  0.65870  0.48181  0.57550  1.0000
  C   C207      1.0  0.65870  0.01819  0.07550  1.0000
  C   C208      1.0  0.34130  0.51819  0.42450  1.0000
  H   H113      1.0  0.32010  0.99610  0.87320  1.0000
  H   H114      1.0  0.67990  0.49610  0.62680  1.0000
  H   H115      1.0  0.67990  0.00390  0.12680  1.0000
  H   H116      1.0  0.32010  0.50390  0.37320  1.0000
  C   C209      1.0  0.37380  0.00771  0.99190  1.0000
  C   C210      1.0  0.62620  0.50771  0.50810  1.0000
  C   C211      1.0  0.62620  0.99229  0.00810  1.0000
  C   C212      1.0  0.37380  0.49229  0.49190  1.0000
  C   C213      1.0  0.40800  0.98655  0.06620  1.0000
  C   C214      1.0  0.59200  0.48655  0.43380  1.0000
  C   C215      1.0  0.59200  0.01345  0.93380  1.0000
  C   C216      1.0  0.40800  0.51345  0.56620  1.0000
  H   H117      1.0  0.43240  0.00400  0.11250  1.0000
  H   H118      1.0  0.56760  0.50400  0.38750  1.0000
  H   H119      1.0  0.56760  0.99600  0.88750  1.0000
  H   H120      1.0  0.43240  0.49600  0.61250  1.0000
  C   C217      1.0  0.27140  0.29290  0.18210  1.0000
  C   C218      1.0  0.72860  0.79290  0.31790  1.0000
  C   C219      1.0  0.72860  0.70710  0.81790  1.0000
  C   C220      1.0  0.27140  0.20710  0.68210  1.0000
  H   H121      1.0  0.31170  0.31470  0.19820  1.0000
  H   H122      1.0  0.68830  0.81470  0.30180  1.0000
  H   H123      1.0  0.68830  0.68530  0.80180  1.0000
  H   H124      1.0  0.31170  0.18530  0.69820  1.0000
  C   C221      1.0  0.21450  0.28460  0.23650  1.0000
  C   C222      1.0  0.78550  0.78460  0.26350  1.0000
  C   C223      1.0  0.78550  0.71540  0.76350  1.0000
  C   C224      1.0  0.21450  0.21540  0.73650  1.0000
  H   H125      1.0  0.21620  0.30130  0.28730  1.0000
  H   H126      1.0  0.78380  0.80130  0.21270  1.0000
  H   H127      1.0  0.78380  0.69870  0.71270  1.0000
  H   H128      1.0  0.21620  0.19870  0.78730  1.0000
  C   C225      1.0  0.15800  0.25354  0.21750  1.0000
  C   C226      1.0  0.84200  0.75354  0.28250  1.0000
  C   C227      1.0  0.84200  0.74646  0.78250  1.0000
  C   C228      1.0  0.15800  0.24646  0.71750  1.0000
  C   C229      1.0  0.15530  0.23194  0.14200  1.0000
  C   C230      1.0  0.84470  0.73194  0.35800  1.0000
  C   C231      1.0  0.84470  0.76806  0.85800  1.0000
  C   C232      1.0  0.15530  0.26806  0.64200  1.0000
  H   H129      1.0  0.11420  0.21080  0.12450  1.0000
  H   H130      1.0  0.88580  0.71080  0.37550  1.0000
  H   H131      1.0  0.88580  0.78920  0.87550  1.0000
  H   H132      1.0  0.11420  0.28920  0.62450  1.0000
  C   C233      1.0  0.21370  0.24148  0.09090  1.0000
  C   C234      1.0  0.78630  0.74148  0.40910  1.0000
  C   C235      1.0  0.78630  0.75852  0.90910  1.0000
  C   C236      1.0  0.21370  0.25852  0.59090  1.0000
  H   H133      1.0  0.21240  0.22530  0.03960  1.0000
  H   H134      1.0  0.78760  0.72530  0.46040  1.0000
  H   H135      1.0  0.78760  0.77470  0.96040  1.0000
  H   H136      1.0  0.21240  0.27470  0.53960  1.0000
  C   C237      1.0  0.05260  0.24918  0.41080  1.0000
  C   C238      1.0  0.94740  0.74918  0.08920  1.0000
  C   C239      1.0  0.94740  0.75082  0.58920  1.0000
  C   C240      1.0  0.05260  0.25082  0.91080  1.0000
  H   H137      1.0  0.06400  0.25650  0.46900  1.0000
  H   H138      1.0  0.93600  0.75650  0.03100  1.0000
  H   H139      1.0  0.93600  0.74350  0.53100  1.0000
  H   H140      1.0  0.06400  0.24350  0.96900  1.0000
  C   C241      1.0  0.11170  0.25585  0.36020  1.0000
  C   C242      1.0  0.88830  0.75585  0.13980  1.0000
  C   C243      1.0  0.88830  0.74415  0.63980  1.0000
  C   C244      1.0  0.11170  0.24415  0.86020  1.0000
  H   H141      1.0  0.16240  0.26750  0.38390  1.0000
  H   H142      1.0  0.83760  0.76750  0.11610  1.0000
  H   H143      1.0  0.83760  0.73250  0.61610  1.0000
  H   H144      1.0  0.16240  0.23250  0.88390  1.0000
  C   C245      1.0  0.09700  0.24545  0.27450  1.0000
  C   C246      1.0  0.90300  0.74545  0.22550  1.0000
  C   C247      1.0  0.90300  0.75455  0.72550  1.0000
  C   C248      1.0  0.09700  0.25455  0.77450  1.0000
  C   C249      1.0  0.02120  0.22789  0.24440  1.0000
  C   C250      1.0  0.97880  0.72789  0.25560  1.0000
  C   C251      1.0  0.97880  0.77211  0.75560  1.0000
  C   C252      1.0  0.02120  0.27211  0.74440  1.0000
  H   H145      1.0  0.00820  0.21990  0.18660  1.0000
  H   H146      1.0  0.99180  0.71990  0.31340  1.0000
  H   H147      1.0  0.99180  0.78010  0.81340  1.0000
  H   H148      1.0  0.00820  0.28010  0.68660  1.0000
  C   C253      1.0  0.96570  0.22221  0.29900  1.0000
  C   C254      1.0  0.03430  0.72221  0.20100  1.0000
  C   C255      1.0  0.03430  0.77779  0.70100  1.0000
  C   C256      1.0  0.96570  0.27779  0.79900  1.0000
  H   H149      1.0  0.91470  0.21020  0.27760  1.0000
  H   H150      1.0  0.08530  0.71020  0.22240  1.0000
  H   H151      1.0  0.08530  0.78980  0.72240  1.0000
  H   H152      1.0  0.91470  0.28980  0.77760  1.0000
  Cd  Cd1       1.0  0.35706  0.29061  0.01187  1.0000
  Cd  Cd2       1.0  0.64294  0.79061  0.48813  1.0000
  Cd  Cd3       1.0  0.64294  0.70939  0.98813  1.0000
  Cd  Cd4       1.0  0.35706  0.20939  0.51187  1.0000
  Cd  Cd5       1.0  0.10728  0.77745  0.52056  1.0000
  Cd  Cd6       1.0  0.89272  0.27745  0.97944  1.0000
  Cd  Cd7       1.0  0.89272  0.22255  0.47944  1.0000
  Cd  Cd8       1.0  0.10728  0.72255  0.02056  1.0000
  N   N1        1.0  0.27170  0.27200  0.10981  1.0000
  N   N2        1.0  0.72830  0.77200  0.39019  1.0000
  N   N3        1.0  0.72830  0.72800  0.89019  1.0000
  N   N4        1.0  0.27170  0.22800  0.60981  1.0000
  N   N5        1.0  0.98080  0.23297  0.38156  1.0000
  N   N6        1.0  0.01920  0.73297  0.11844  1.0000
  N   N7        1.0  0.01920  0.76703  0.61844  1.0000
  N   N8        1.0  0.98080  0.26703  0.88156  1.0000
  O   O1        1.0  0.24812  0.32493  0.92753  1.0000
  O   O2        1.0  0.75188  0.82493  0.57247  1.0000
  O   O3        1.0  0.75188  0.67507  0.07247  1.0000
  O   O4        1.0  0.24812  0.17507  0.42753  1.0000
  O   O5        1.0  0.36427  0.32293  0.88011  1.0000
  O   O6        1.0  0.63573  0.82293  0.61989  1.0000
  O   O7        1.0  0.63573  0.67707  0.11989  1.0000
  O   O8        1.0  0.36427  0.17707  0.38011  1.0000
  O   O9        1.0  0.17090  0.71022  0.51740  1.0000
  O   O10       1.0  0.82910  0.21022  0.98260  1.0000
  O   O11       1.0  0.82910  0.28978  0.48260  1.0000
  O   O12       1.0  0.17090  0.78978  0.01740  1.0000
  O   O13       1.0  0.04680  0.70650  0.45502  1.0000
  O   O14       1.0  0.95320  0.20650  0.04498  1.0000
  O   O15       1.0  0.95320  0.29350  0.54498  1.0000
  O   O16       1.0  0.04680  0.79350  0.95502  1.0000
  O   O17       1.0  0.00240  0.31627  0.06105  1.0000
  O   O18       1.0  0.99760  0.81627  0.43895  1.0000
  O   O19       1.0  0.99760  0.68373  0.93895  1.0000
  O   O20       1.0  0.00240  0.18373  0.56105  1.0000
  O   O21       1.0  0.89030  0.30703  0.11423  1.0000
  O   O22       1.0  0.10970  0.80703  0.38577  1.0000
  O   O23       1.0  0.10970  0.69297  0.88577  1.0000
  O   O24       1.0  0.89030  0.19297  0.61423  1.0000
  O   O25       1.0  0.62590  0.86469  0.41320  1.0000
  O   O26       1.0  0.37410  0.36469  0.08680  1.0000
  O   O27       1.0  0.37410  0.13531  0.58680  1.0000
  O   O28       1.0  0.62590  0.63531  0.91320  1.0000
  O   O29       1.0  0.53190  0.81355  0.39570  1.0000
  O   O30       1.0  0.46810  0.31355  0.10430  1.0000
  O   O31       1.0  0.46810  0.18645  0.60430  1.0000
  O   O32       1.0  0.53190  0.68645  0.89570  1.0000
  O   O33       1.0  0.21460  0.79448  0.62900  1.0000
  O   O34       1.0  0.78540  0.29448  0.87100  1.0000
  O   O35       1.0  0.78540  0.20552  0.37100  1.0000
  O   O36       1.0  0.21460  0.70552  0.12900  1.0000
  O   O37       1.0  0.13570  0.85123  0.58860  1.0000
  O   O38       1.0  0.86430  0.35123  0.91140  1.0000
  O   O39       1.0  0.86430  0.14877  0.41140  1.0000
  O   O40       1.0  0.13570  0.64877  0.08860  1.0000
  O   O41       1.0  0.30750  0.22030  0.93910  1.0000
  O   O42       1.0  0.69250  0.72030  0.56090  1.0000
  O   O43       1.0  0.69250  0.77970  0.06090  1.0000
  O   O44       1.0  0.30750  0.27970  0.43910  1.0000
  O   O45       1.0  0.42510  0.22315  0.01990  1.0000
  O   O46       1.0  0.57490  0.72315  0.48010  1.0000
  O   O47       1.0  0.57490  0.77685  0.98010  1.0000
  O   O48       1.0  0.42510  0.27685  0.51990  1.0000
