data_image0
_chemical_formula_structural       Mn12C16H8C16H8C16H8C8H16C16H8C16H8C16H8C32O64
_chemical_formula_sum              "Mn12 C136 H64 O64"
_cell_length_a       16.2417
_cell_length_b       10.7616
_cell_length_c       25.6486
_cell_angle_alpha    90
_cell_angle_beta     90
_cell_angle_gamma    90

_space_group_name_H-M_alt    "P 1"
_space_group_IT_number       1

loop_
  _space_group_symop_operation_xyz
  'x, y, z'

loop_
  _atom_site_type_symbol
  _atom_site_label
  _atom_site_symmetry_multiplicity
  _atom_site_fract_x
  _atom_site_fract_y
  _atom_site_fract_z
  _atom_site_occupancy
  Mn  Mn1       1.0  0.06817  0.34777  0.38048  1.0000
  Mn  Mn2       1.0  0.43183  0.65223  0.88048  1.0000
  Mn  Mn3       1.0  0.93183  0.84777  0.11952  1.0000
  Mn  Mn4       1.0  0.56817  0.15223  0.61952  1.0000
  Mn  Mn5       1.0  0.93183  0.65223  0.61952  1.0000
  Mn  Mn6       1.0  0.56817  0.34777  0.11952  1.0000
  Mn  Mn7       1.0  0.06817  0.15223  0.88048  1.0000
  Mn  Mn8       1.0  0.43183  0.84777  0.38048  1.0000
  Mn  Mn9       1.0  0.00000  0.50000  0.50000  1.0000
  Mn  Mn10      1.0  0.50000  0.50000  0.00000  1.0000
  Mn  Mn11      1.0  0.00000  0.00000  0.00000  1.0000
  Mn  Mn12      1.0  0.50000  0.00000  0.50000  1.0000
  C   C1        1.0  0.23410  0.39500  0.49978  1.0000
  C   C2        1.0  0.26590  0.60500  0.99978  1.0000
  C   C3        1.0  0.76590  0.89500  0.00022  1.0000
  C   C4        1.0  0.73410  0.10500  0.50022  1.0000
  C   C5        1.0  0.76590  0.60500  0.50022  1.0000
  C   C6        1.0  0.73410  0.39500  0.00022  1.0000
  C   C7        1.0  0.23410  0.10500  0.99978  1.0000
  C   C8        1.0  0.26590  0.89500  0.49978  1.0000
  C   C9        1.0  0.30350  0.32050  0.50461  1.0000
  C   C10       1.0  0.19650  0.67950  0.00461  1.0000
  C   C11       1.0  0.69650  0.82050  0.99539  1.0000
  C   C12       1.0  0.80350  0.17950  0.49539  1.0000
  C   C13       1.0  0.69650  0.67950  0.49539  1.0000
  C   C14       1.0  0.80350  0.32050  0.99539  1.0000
  C   C15       1.0  0.30350  0.17950  0.00461  1.0000
  C   C16       1.0  0.19650  0.82050  0.50461  1.0000
  H   H1        1.0  0.31420  0.25700  0.47980  1.0000
  H   H2        1.0  0.18580  0.74300  0.97980  1.0000
  H   H3        1.0  0.68580  0.75700  0.02020  1.0000
  H   H4        1.0  0.81420  0.24300  0.52020  1.0000
  H   H5        1.0  0.68580  0.74300  0.52020  1.0000
  H   H6        1.0  0.81420  0.25700  0.02020  1.0000
  H   H7        1.0  0.31420  0.24300  0.97980  1.0000
  H   H8        1.0  0.18580  0.75700  0.47980  1.0000
  C   C17       1.0  0.35750  0.33960  0.54635  1.0000
  C   C18       1.0  0.14250  0.66040  0.04635  1.0000
  C   C19       1.0  0.64250  0.83960  0.95365  1.0000
  C   C20       1.0  0.85750  0.16040  0.45365  1.0000
  C   C21       1.0  0.64250  0.66040  0.45365  1.0000
  C   C22       1.0  0.85750  0.33960  0.95365  1.0000
  C   C23       1.0  0.35750  0.16040  0.04635  1.0000
  C   C24       1.0  0.14250  0.83960  0.54635  1.0000
  C   C25       1.0  0.33900  0.42790  0.58400  1.0000
  C   C26       1.0  0.16100  0.57210  0.08400  1.0000
  C   C27       1.0  0.66100  0.92790  0.91600  1.0000
  C   C28       1.0  0.83900  0.07210  0.41600  1.0000
  C   C29       1.0  0.66100  0.57210  0.41600  1.0000
  C   C30       1.0  0.83900  0.42790  0.91600  1.0000
  C   C31       1.0  0.33900  0.07210  0.08400  1.0000
  C   C32       1.0  0.16100  0.92790  0.58400  1.0000
  H   H9        1.0  0.37500  0.43880  0.61280  1.0000
  H   H10       1.0  0.12500  0.56120  0.11280  1.0000
  H   H11       1.0  0.62500  0.93880  0.88720  1.0000
  H   H12       1.0  0.87500  0.06120  0.38720  1.0000
  H   H13       1.0  0.62500  0.56120  0.38720  1.0000
  H   H14       1.0  0.87500  0.43880  0.88720  1.0000
  H   H15       1.0  0.37500  0.06120  0.11280  1.0000
  H   H16       1.0  0.12500  0.93880  0.61280  1.0000
  C   C33       1.0  0.26870  0.50050  0.58020  1.0000
  C   C34       1.0  0.23130  0.49950  0.08020  1.0000
  C   C35       1.0  0.73130  0.00050  0.91980  1.0000
  C   C36       1.0  0.76870  0.99950  0.41980  1.0000
  C   C37       1.0  0.73130  0.49950  0.41980  1.0000
  C   C38       1.0  0.76870  0.50050  0.91980  1.0000
  C   C39       1.0  0.26870  0.99950  0.08020  1.0000
  C   C40       1.0  0.23130  0.00050  0.58020  1.0000
  C   C41       1.0  0.21830  0.48680  0.53659  1.0000
  C   C42       1.0  0.28170  0.51320  0.03659  1.0000
  C   C43       1.0  0.78170  0.98680  0.96341  1.0000
  C   C44       1.0  0.71830  0.01320  0.46341  1.0000
  C   C45       1.0  0.78170  0.51320  0.46341  1.0000
  C   C46       1.0  0.71830  0.48680  0.96341  1.0000
  C   C47       1.0  0.21830  0.01320  0.03659  1.0000
  C   C48       1.0  0.28170  0.98680  0.53659  1.0000
  H   H17       1.0  0.17260  0.54080  0.53190  1.0000
  H   H18       1.0  0.32740  0.45920  0.03190  1.0000
  H   H19       1.0  0.82740  0.04080  0.96810  1.0000
  H   H20       1.0  0.67260  0.95920  0.46810  1.0000
  H   H21       1.0  0.82740  0.45920  0.46810  1.0000
  H   H22       1.0  0.67260  0.54080  0.96810  1.0000
  H   H23       1.0  0.17260  0.95920  0.03190  1.0000
  H   H24       1.0  0.32740  0.04080  0.53190  1.0000
  C   C49       1.0  0.23950  0.58490  0.62357  1.0000
  C   C50       1.0  0.26050  0.41510  0.12357  1.0000
  C   C51       1.0  0.76050  0.08490  0.87643  1.0000
  C   C52       1.0  0.73950  0.91510  0.37643  1.0000
  C   C53       1.0  0.76050  0.41510  0.37643  1.0000
  C   C54       1.0  0.73950  0.58490  0.87643  1.0000
  C   C55       1.0  0.23950  0.91510  0.12357  1.0000
  C   C56       1.0  0.26050  0.08490  0.62357  1.0000
  H   H25       1.0  0.21240  0.53280  0.65040  1.0000
  H   H26       1.0  0.28760  0.46720  0.15040  1.0000
  H   H27       1.0  0.78760  0.03280  0.84960  1.0000
  H   H28       1.0  0.71240  0.96720  0.34960  1.0000
  H   H29       1.0  0.78760  0.46720  0.34960  1.0000
  H   H30       1.0  0.71240  0.53280  0.84960  1.0000
  H   H31       1.0  0.21240  0.96720  0.15040  1.0000
  H   H32       1.0  0.28760  0.03280  0.65040  1.0000
  H   H33       1.0  0.19720  0.64130  0.60910  1.0000
  H   H34       1.0  0.30280  0.35870  0.10910  1.0000
  H   H35       1.0  0.80280  0.14130  0.89090  1.0000
  H   H36       1.0  0.69720  0.85870  0.39090  1.0000
  H   H37       1.0  0.80280  0.35870  0.39090  1.0000
  H   H38       1.0  0.69720  0.64130  0.89090  1.0000
  H   H39       1.0  0.19720  0.85870  0.10910  1.0000
  H   H40       1.0  0.30280  0.14130  0.60910  1.0000
  C   C57       1.0  0.30460  0.66360  0.65044  1.0000
  C   C58       1.0  0.19540  0.33640  0.15044  1.0000
  C   C59       1.0  0.69540  0.16360  0.84956  1.0000
  C   C60       1.0  0.80460  0.83640  0.34956  1.0000
  C   C61       1.0  0.69540  0.33640  0.34956  1.0000
  C   C62       1.0  0.80460  0.66360  0.84956  1.0000
  C   C63       1.0  0.30460  0.83640  0.15044  1.0000
  C   C64       1.0  0.19540  0.16360  0.65044  1.0000
  C   C65       1.0  0.35030  0.75070  0.62256  1.0000
  C   C66       1.0  0.14970  0.24930  0.12256  1.0000
  C   C67       1.0  0.64970  0.25070  0.87744  1.0000
  C   C68       1.0  0.85030  0.74930  0.37744  1.0000
  C   C69       1.0  0.64970  0.24930  0.37744  1.0000
  C   C70       1.0  0.85030  0.75070  0.87744  1.0000
  C   C71       1.0  0.35030  0.74930  0.12256  1.0000
  C   C72       1.0  0.14970  0.25070  0.62256  1.0000
  H   H41       1.0  0.34390  0.75650  0.58580  1.0000
  H   H42       1.0  0.15610  0.24350  0.08580  1.0000
  H   H43       1.0  0.65610  0.25650  0.91420  1.0000
  H   H44       1.0  0.84390  0.74350  0.41420  1.0000
  H   H45       1.0  0.65610  0.24350  0.41420  1.0000
  H   H46       1.0  0.84390  0.75650  0.91420  1.0000
  H   H47       1.0  0.34390  0.74350  0.08580  1.0000
  H   H48       1.0  0.15610  0.25650  0.58580  1.0000
  C   C73       1.0  0.40510  0.82930  0.64796  1.0000
  C   C74       1.0  0.09490  0.17070  0.14796  1.0000
  C   C75       1.0  0.59490  0.32930  0.85204  1.0000
  C   C76       1.0  0.90510  0.67070  0.35204  1.0000
  C   C77       1.0  0.59490  0.17070  0.35204  1.0000
  C   C78       1.0  0.90510  0.82930  0.85204  1.0000
  C   C79       1.0  0.40510  0.67070  0.14796  1.0000
  C   C80       1.0  0.09490  0.32930  0.64796  1.0000
  C   C81       1.0  0.41640  0.81840  0.70217  1.0000
  C   C82       1.0  0.08360  0.18160  0.20217  1.0000
  C   C83       1.0  0.58360  0.31840  0.79783  1.0000
  C   C84       1.0  0.91640  0.68160  0.29783  1.0000
  C   C85       1.0  0.58360  0.18160  0.29783  1.0000
  C   C86       1.0  0.91640  0.81840  0.79783  1.0000
  C   C87       1.0  0.41640  0.68160  0.20217  1.0000
  C   C88       1.0  0.08360  0.31840  0.70217  1.0000
  H   H49       1.0  0.45310  0.87250  0.72000  1.0000
  H   H50       1.0  0.04690  0.12750  0.22000  1.0000
  H   H51       1.0  0.54690  0.37250  0.78000  1.0000
  H   H52       1.0  0.95310  0.62750  0.28000  1.0000
  H   H53       1.0  0.54690  0.12750  0.28000  1.0000
  H   H54       1.0  0.95310  0.87250  0.78000  1.0000
  H   H55       1.0  0.45310  0.62750  0.22000  1.0000
  H   H56       1.0  0.04690  0.37250  0.72000  1.0000
  C   C89       1.0  0.37350  0.72820  0.72909  1.0000
  C   C90       1.0  0.12650  0.27180  0.22909  1.0000
  C   C91       1.0  0.62650  0.22820  0.77091  1.0000
  C   C92       1.0  0.87350  0.77180  0.27091  1.0000
  C   C93       1.0  0.62650  0.27180  0.27091  1.0000
  C   C94       1.0  0.87350  0.72820  0.77091  1.0000
  C   C95       1.0  0.37350  0.77180  0.22909  1.0000
  C   C96       1.0  0.12650  0.22820  0.72909  1.0000
  C   C97       1.0  0.31730  0.65370  0.70357  1.0000
  C   C98       1.0  0.18270  0.34630  0.20357  1.0000
  C   C99       1.0  0.68270  0.15370  0.79643  1.0000
  C   C100      1.0  0.81730  0.84630  0.29643  1.0000
  C   C101      1.0  0.68270  0.34630  0.29643  1.0000
  C   C102      1.0  0.81730  0.65370  0.79643  1.0000
  C   C103      1.0  0.31730  0.84630  0.20357  1.0000
  C   C104      1.0  0.18270  0.15370  0.70357  1.0000
  H   H57       1.0  0.28660  0.59430  0.72290  1.0000
  H   H58       1.0  0.21340  0.40570  0.22290  1.0000
  H   H59       1.0  0.71340  0.09430  0.77710  1.0000
  H   H60       1.0  0.78660  0.90570  0.27710  1.0000
  H   H61       1.0  0.71340  0.40570  0.27710  1.0000
  H   H62       1.0  0.78660  0.59430  0.77710  1.0000
  H   H63       1.0  0.28660  0.90570  0.22290  1.0000
  H   H64       1.0  0.21340  0.09430  0.72290  1.0000
  C   C105      1.0  0.17410  0.37530  0.45610  1.0000
  C   C106      1.0  0.32590  0.62470  0.95610  1.0000
  C   C107      1.0  0.82590  0.87530  0.04390  1.0000
  C   C108      1.0  0.67410  0.12470  0.54390  1.0000
  C   C109      1.0  0.82590  0.62470  0.54390  1.0000
  C   C110      1.0  0.67410  0.37530  0.04390  1.0000
  C   C111      1.0  0.17410  0.12470  0.95610  1.0000
  C   C112      1.0  0.32590  0.87530  0.45610  1.0000
  C   C113      1.0  0.43260  0.25770  0.55123  1.0000
  C   C114      1.0  0.06740  0.74230  0.05123  1.0000
  C   C115      1.0  0.56740  0.75770  0.94877  1.0000
  C   C116      1.0  0.93260  0.24230  0.44877  1.0000
  C   C117      1.0  0.56740  0.74230  0.44877  1.0000
  C   C118      1.0  0.93260  0.25770  0.94877  1.0000
  C   C119      1.0  0.43260  0.24230  0.05123  1.0000
  C   C120      1.0  0.06740  0.75770  0.55123  1.0000
  C   C121      1.0  0.45290  0.92460  0.61705  1.0000
  C   C122      1.0  0.04710  0.07540  0.11705  1.0000
  C   C123      1.0  0.54710  0.42460  0.88295  1.0000
  C   C124      1.0  0.95290  0.57540  0.38295  1.0000
  C   C125      1.0  0.54710  0.07540  0.38295  1.0000
  C   C126      1.0  0.95290  0.92460  0.88295  1.0000
  C   C127      1.0  0.45290  0.57540  0.11705  1.0000
  C   C128      1.0  0.04710  0.42460  0.61705  1.0000
  C   C129      1.0  0.38910  0.70660  0.78657  1.0000
  C   C130      1.0  0.11090  0.29340  0.28657  1.0000
  C   C131      1.0  0.61090  0.20660  0.71343  1.0000
  C   C132      1.0  0.88910  0.79340  0.21343  1.0000
  C   C133      1.0  0.61090  0.29340  0.21343  1.0000
  C   C134      1.0  0.88910  0.70660  0.71343  1.0000
  C   C135      1.0  0.38910  0.79340  0.28657  1.0000
  C   C136      1.0  0.11090  0.20660  0.78657  1.0000
  O   O1        1.0  0.11018  0.44380  0.45348  1.0000
  O   O2        1.0  0.38982  0.55620  0.95348  1.0000
  O   O3        1.0  0.88982  0.94380  0.04652  1.0000
  O   O4        1.0  0.61018  0.05620  0.54652  1.0000
  O   O5        1.0  0.88982  0.55620  0.54652  1.0000
  O   O6        1.0  0.61018  0.44380  0.04652  1.0000
  O   O7        1.0  0.11018  0.05620  0.95348  1.0000
  O   O8        1.0  0.38982  0.94380  0.45348  1.0000
  O   O9        1.0  0.18620  0.29290  0.42255  1.0000
  O   O10       1.0  0.31380  0.70710  0.92255  1.0000
  O   O11       1.0  0.81380  0.79290  0.07745  1.0000
  O   O12       1.0  0.68620  0.20710  0.57745  1.0000
  O   O13       1.0  0.81380  0.70710  0.57745  1.0000
  O   O14       1.0  0.68620  0.29290  0.07745  1.0000
  O   O15       1.0  0.18620  0.20710  0.92255  1.0000
  O   O16       1.0  0.31380  0.79290  0.42255  1.0000
  O   O17       1.0  0.44060  0.17240  0.51900  1.0000
  O   O18       1.0  0.05940  0.82760  0.01900  1.0000
  O   O19       1.0  0.55940  0.67240  0.98100  1.0000
  O   O20       1.0  0.94060  0.32760  0.48100  1.0000
  O   O21       1.0  0.55940  0.82760  0.48100  1.0000
  O   O22       1.0  0.94060  0.17240  0.98100  1.0000
  O   O23       1.0  0.44060  0.32760  0.01900  1.0000
  O   O24       1.0  0.05940  0.67240  0.51900  1.0000
  O   O25       1.0  0.48220  0.28080  0.58811  1.0000
  O   O26       1.0  0.01780  0.71920  0.08811  1.0000
  O   O27       1.0  0.51780  0.78080  0.91189  1.0000
  O   O28       1.0  0.98220  0.21920  0.41189  1.0000
  O   O29       1.0  0.51780  0.71920  0.41189  1.0000
  O   O30       1.0  0.98220  0.28080  0.91189  1.0000
  O   O31       1.0  0.48220  0.21920  0.08811  1.0000
  O   O32       1.0  0.01780  0.78080  0.58811  1.0000
  O   O33       1.0  0.45610  0.90910  0.56875  1.0000
  O   O34       1.0  0.04390  0.09090  0.06875  1.0000
  O   O35       1.0  0.54390  0.40910  0.93125  1.0000
  O   O36       1.0  0.95610  0.59090  0.43125  1.0000
  O   O37       1.0  0.54390  0.09090  0.43125  1.0000
  O   O38       1.0  0.95610  0.90910  0.93125  1.0000
  O   O39       1.0  0.45610  0.59090  0.06875  1.0000
  O   O40       1.0  0.04390  0.40910  0.56875  1.0000
  O   O41       1.0  0.48630  0.01200  0.64209  1.0000
  O   O42       1.0  0.01370  0.98800  0.14209  1.0000
  O   O43       1.0  0.51370  0.51200  0.85791  1.0000
  O   O44       1.0  0.98630  0.48800  0.35791  1.0000
  O   O45       1.0  0.51370  0.98800  0.35791  1.0000
  O   O46       1.0  0.98630  0.01200  0.85791  1.0000
  O   O47       1.0  0.48630  0.48800  0.14209  1.0000
  O   O48       1.0  0.01370  0.51200  0.64209  1.0000
  O   O49       1.0  0.43490  0.77950  0.81156  1.0000
  O   O50       1.0  0.06510  0.22050  0.31156  1.0000
  O   O51       1.0  0.56510  0.27950  0.68844  1.0000
  O   O52       1.0  0.93490  0.72050  0.18844  1.0000
  O   O53       1.0  0.56510  0.22050  0.18844  1.0000
  O   O54       1.0  0.93490  0.77950  0.68844  1.0000
  O   O55       1.0  0.43490  0.72050  0.31156  1.0000
  O   O56       1.0  0.06510  0.27950  0.81156  1.0000
  O   O57       1.0  0.35740  0.61460  0.80836  1.0000
  O   O58       1.0  0.14260  0.38540  0.30836  1.0000
  O   O59       1.0  0.64260  0.11460  0.69164  1.0000
  O   O60       1.0  0.85740  0.88540  0.19164  1.0000
  O   O61       1.0  0.64260  0.38540  0.19164  1.0000
  O   O62       1.0  0.85740  0.61460  0.69164  1.0000
  O   O63       1.0  0.35740  0.88540  0.30836  1.0000
  O   O64       1.0  0.14260  0.11460  0.80836  1.0000
