data_image0
_chemical_formula_structural       Co4N8O32C12H4C4H4C4H4C20H4C4H4C4H4C8Na4O4H8O4H8O4H8
_chemical_formula_sum              "Co4 N8 O44 C56 H48 Na4"
_cell_length_a       13.3629
_cell_length_b       8.4374
_cell_length_c       40.689
_cell_angle_alpha    90
_cell_angle_beta     91.288
_cell_angle_gamma    90

_space_group_name_H-M_alt    "P 1"
_space_group_IT_number       1

loop_
  _space_group_symop_operation_xyz
  'x, y, z'

loop_
  _atom_site_type_symbol
  _atom_site_label
  _atom_site_symmetry_multiplicity
  _atom_site_fract_x
  _atom_site_fract_y
  _atom_site_fract_z
  _atom_site_occupancy
  Co  Co1       1.0  0.47084  0.00617  0.11041  1.0000
  Co  Co2       1.0  0.97084  0.49383  0.61041  1.0000
  Co  Co3       1.0  0.52916  0.99383  0.88959  1.0000
  Co  Co4       1.0  0.02916  0.50617  0.38959  1.0000
  N   N1        1.0  0.61930  0.96390  0.11669  1.0000
  N   N2        1.0  0.11930  0.53610  0.61669  1.0000
  N   N3        1.0  0.38070  0.03610  0.88331  1.0000
  N   N4        1.0  0.88070  0.46390  0.38331  1.0000
  N   N5        1.0  0.32060  0.03810  0.10767  1.0000
  N   N6        1.0  0.82060  0.46190  0.60767  1.0000
  N   N7        1.0  0.67940  0.96190  0.89233  1.0000
  N   N8        1.0  0.17940  0.53810  0.39233  1.0000
  O   O1        1.0  0.47778  0.82860  0.14878  1.0000
  O   O2        1.0  0.97778  0.67140  0.64878  1.0000
  O   O3        1.0  0.52222  0.17140  0.85122  1.0000
  O   O4        1.0  0.02222  0.32860  0.35122  1.0000
  O   O5        1.0  0.58420  0.69220  0.18079  1.0000
  O   O6        1.0  0.08420  0.80780  0.68079  1.0000
  O   O7        1.0  0.41580  0.30780  0.81921  1.0000
  O   O8        1.0  0.91580  0.19220  0.31921  1.0000
  O   O9        1.0  0.53976  0.15790  0.07466  1.0000
  O   O10       1.0  0.03976  0.34210  0.57466  1.0000
  O   O11       1.0  0.46024  0.84210  0.92534  1.0000
  O   O12       1.0  0.96024  0.65790  0.42534  1.0000
  O   O13       1.0  0.68680  0.20160  0.05069  1.0000
  O   O14       1.0  0.18680  0.29840  0.55069  1.0000
  O   O15       1.0  0.31320  0.79840  0.94931  1.0000
  O   O16       1.0  0.81320  0.70160  0.44931  1.0000
  O   O17       1.0  0.42256  0.85470  0.06995  1.0000
  O   O18       1.0  0.92256  0.64530  0.56995  1.0000
  O   O19       1.0  0.57744  0.14530  0.93005  1.0000
  O   O20       1.0  0.07744  0.35470  0.43005  1.0000
  O   O21       1.0  0.28850  0.80230  0.03776  1.0000
  O   O22       1.0  0.78850  0.69770  0.53776  1.0000
  O   O23       1.0  0.71150  0.19770  0.96224  1.0000
  O   O24       1.0  0.21150  0.30230  0.46224  1.0000
  O   O25       1.0  0.44214  0.17410  0.14880  1.0000
  O   O26       1.0  0.94214  0.32590  0.64880  1.0000
  O   O27       1.0  0.55786  0.82590  0.85120  1.0000
  O   O28       1.0  0.05786  0.67410  0.35120  1.0000
  O   O29       1.0  0.31880  0.29860  0.17481  1.0000
  O   O30       1.0  0.81880  0.20140  0.67481  1.0000
  O   O31       1.0  0.68120  0.70140  0.82519  1.0000
  O   O32       1.0  0.18120  0.79860  0.32519  1.0000
  C   C1        1.0  0.56430  0.78900  0.15852  1.0000
  C   C2        1.0  0.06430  0.71100  0.65852  1.0000
  C   C3        1.0  0.43570  0.21100  0.84148  1.0000
  C   C4        1.0  0.93570  0.28900  0.34148  1.0000
  C   C5        1.0  0.65030  0.86560  0.14059  1.0000
  C   C6        1.0  0.15030  0.63440  0.64059  1.0000
  C   C7        1.0  0.34970  0.13440  0.85941  1.0000
  C   C8        1.0  0.84970  0.36560  0.35941  1.0000
  C   C9        1.0  0.75180  0.84090  0.14663  1.0000
  C   C10       1.0  0.25180  0.65910  0.64663  1.0000
  C   C11       1.0  0.24820  0.15910  0.85337  1.0000
  C   C12       1.0  0.74820  0.34090  0.35337  1.0000
  H   H1        1.0  0.77400  0.77290  0.16393  1.0000
  H   H2        1.0  0.27400  0.72710  0.66393  1.0000
  H   H3        1.0  0.22600  0.22710  0.83607  1.0000
  H   H4        1.0  0.72600  0.27290  0.33607  1.0000
  C   C13       1.0  0.82010  0.91710  0.12695  1.0000
  C   C14       1.0  0.32010  0.58290  0.62695  1.0000
  C   C15       1.0  0.17990  0.08290  0.87305  1.0000
  C   C16       1.0  0.67990  0.41710  0.37305  1.0000
  H   H5        1.0  0.88990  0.90210  0.13077  1.0000
  H   H6        1.0  0.38990  0.59790  0.63077  1.0000
  H   H7        1.0  0.11010  0.09790  0.86923  1.0000
  H   H8        1.0  0.61010  0.40210  0.36923  1.0000
  C   C17       1.0  0.78650  0.01540  0.10162  1.0000
  C   C18       1.0  0.28650  0.48460  0.60162  1.0000
  C   C19       1.0  0.21350  0.98460  0.89838  1.0000
  C   C20       1.0  0.71350  0.51540  0.39838  1.0000
  H   H9        1.0  0.83230  0.06660  0.08758  1.0000
  H   H10       1.0  0.33230  0.43340  0.58758  1.0000
  H   H11       1.0  0.16770  0.93340  0.91242  1.0000
  H   H12       1.0  0.66770  0.56660  0.41242  1.0000
  C   C21       1.0  0.68440  0.03640  0.09747  1.0000
  C   C22       1.0  0.18440  0.46360  0.59747  1.0000
  C   C23       1.0  0.31560  0.96360  0.90253  1.0000
  C   C24       1.0  0.81560  0.53640  0.40253  1.0000
  C   C25       1.0  0.63390  0.14080  0.07198  1.0000
  C   C26       1.0  0.13390  0.35920  0.57198  1.0000
  C   C27       1.0  0.36610  0.85920  0.92802  1.0000
  C   C28       1.0  0.86610  0.64080  0.42802  1.0000
  C   C29       1.0  0.33050  0.86430  0.06185  1.0000
  C   C30       1.0  0.83050  0.63570  0.56185  1.0000
  C   C31       1.0  0.66950  0.13570  0.93815  1.0000
  C   C32       1.0  0.16950  0.36430  0.43815  1.0000
  C   C33       1.0  0.26680  0.95920  0.08525  1.0000
  C   C34       1.0  0.76680  0.54080  0.58525  1.0000
  C   C35       1.0  0.73320  0.04080  0.91475  1.0000
  C   C36       1.0  0.23320  0.45920  0.41475  1.0000
  C   C37       1.0  0.16360  0.96180  0.08484  1.0000
  C   C38       1.0  0.66360  0.53820  0.58484  1.0000
  C   C39       1.0  0.83640  0.03820  0.91516  1.0000
  C   C40       1.0  0.33640  0.46180  0.41516  1.0000
  H   H13       1.0  0.12570  0.90630  0.06851  1.0000
  H   H14       1.0  0.62570  0.59370  0.56851  1.0000
  H   H15       1.0  0.87430  0.09370  0.93149  1.0000
  H   H16       1.0  0.37430  0.40630  0.43149  1.0000
  C   C41       1.0  0.11700  0.04840  0.10912  1.0000
  C   C42       1.0  0.61700  0.45160  0.60912  1.0000
  C   C43       1.0  0.88300  0.95160  0.89088  1.0000
  C   C44       1.0  0.38300  0.54840  0.39088  1.0000
  H   H17       1.0  0.04600  0.05100  0.10979  1.0000
  H   H18       1.0  0.54600  0.44900  0.60979  1.0000
  H   H19       1.0  0.95400  0.94900  0.89021  1.0000
  H   H20       1.0  0.45400  0.55100  0.39021  1.0000
  C   C45       1.0  0.17350  0.13110  0.13240  1.0000
  C   C46       1.0  0.67350  0.36890  0.63240  1.0000
  C   C47       1.0  0.82650  0.86890  0.86760  1.0000
  C   C48       1.0  0.32650  0.63110  0.36760  1.0000
  H   H21       1.0  0.14220  0.19140  0.14899  1.0000
  H   H22       1.0  0.64220  0.30860  0.64899  1.0000
  H   H23       1.0  0.85780  0.80860  0.85101  1.0000
  H   H24       1.0  0.35780  0.69140  0.35101  1.0000
  C   C49       1.0  0.27690  0.12350  0.13082  1.0000
  C   C50       1.0  0.77690  0.37650  0.63082  1.0000
  C   C51       1.0  0.72310  0.87650  0.86918  1.0000
  C   C52       1.0  0.22310  0.62350  0.36918  1.0000
  C   C53       1.0  0.35020  0.20660  0.15368  1.0000
  C   C54       1.0  0.85020  0.29340  0.65368  1.0000
  C   C55       1.0  0.64980  0.79340  0.84632  1.0000
  C   C56       1.0  0.14980  0.70660  0.34632  1.0000
  Na  Na1       1.0  0.79713  0.11344  0.00987  1.0000
  Na  Na2       1.0  0.29713  0.38656  0.50987  1.0000
  Na  Na3       1.0  0.20287  0.88656  0.99013  1.0000
  Na  Na4       1.0  0.70287  0.61344  0.49013  1.0000
  O   O33       1.0  0.73830  0.84200  0.00346  1.0000
  O   O34       1.0  0.23830  0.65800  0.50346  1.0000
  O   O35       1.0  0.26170  0.15800  0.99654  1.0000
  O   O36       1.0  0.76170  0.34200  0.49654  1.0000
  H   H25       1.0  0.78410  0.80580  0.99142  1.0000
  H   H26       1.0  0.28410  0.69420  0.49142  1.0000
  H   H27       1.0  0.21590  0.19420  0.00858  1.0000
  H   H28       1.0  0.71590  0.30580  0.50858  1.0000
  H   H29       1.0  0.74050  0.80680  0.02304  1.0000
  H   H30       1.0  0.24050  0.69320  0.52304  1.0000
  H   H31       1.0  0.25950  0.19320  0.97696  1.0000
  H   H32       1.0  0.75950  0.30680  0.47696  1.0000
  O   O37       1.0  0.94240  0.04030  0.03453  1.0000
  O   O38       1.0  0.44240  0.45970  0.53453  1.0000
  O   O39       1.0  0.05760  0.95970  0.96547  1.0000
  O   O40       1.0  0.55760  0.54030  0.46547  1.0000
  H   H33       1.0  0.99170  0.10390  0.03618  1.0000
  H   H34       1.0  0.49170  0.39610  0.53618  1.0000
  H   H35       1.0  0.00830  0.89610  0.96382  1.0000
  H   H36       1.0  0.50830  0.60390  0.46382  1.0000
  H   H37       1.0  0.97350  0.95340  0.03213  1.0000
  H   H38       1.0  0.47350  0.54660  0.53213  1.0000
  H   H39       1.0  0.02650  0.04660  0.96787  1.0000
  H   H40       1.0  0.52650  0.45340  0.46787  1.0000
  O   O41       1.0  0.87060  0.37620  0.01601  1.0000
  O   O42       1.0  0.37060  0.12380  0.51601  1.0000
  O   O43       1.0  0.12940  0.62380  0.98399  1.0000
  O   O44       1.0  0.62940  0.87620  0.48399  1.0000
  H   H41       1.0  0.82380  0.44370  0.01770  1.0000
  H   H42       1.0  0.32380  0.05630  0.51770  1.0000
  H   H43       1.0  0.17620  0.55630  0.98230  1.0000
  H   H44       1.0  0.67620  0.94370  0.48230  1.0000
  H   H45       1.0  0.90240  0.38200  0.03430  1.0000
  H   H46       1.0  0.40240  0.11800  0.53430  1.0000
  H   H47       1.0  0.09760  0.61800  0.96570  1.0000
  H   H48       1.0  0.59760  0.88200  0.46570  1.0000
