data_image0
_chemical_formula_structural       Y2O18C8H4
_chemical_formula_sum              "Y2 O18 C8 H4"
_cell_length_a       8.2293
_cell_length_b       9.7386
_cell_length_c       9.7543
_cell_angle_alpha    60.741
_cell_angle_beta     72.357
_cell_angle_gamma    84.666

_space_group_name_H-M_alt    "P 1"
_space_group_IT_number       1

loop_
  _space_group_symop_operation_xyz
  'x, y, z'

loop_
  _atom_site_type_symbol
  _atom_site_label
  _atom_site_symmetry_multiplicity
  _atom_site_fract_x
  _atom_site_fract_y
  _atom_site_fract_z
  _atom_site_occupancy
  Y   Y1        1.0  0.67040  0.84130  0.78680  1.0000
  Y   Y2        1.0  0.32960  0.15870  0.21320  1.0000
  O   O1        1.0  0.69020  0.90680  0.98810  1.0000
  O   O2        1.0  0.30980  0.09320  0.01190  1.0000
  O   O3        1.0  0.47000  0.66050  0.03690  1.0000
  O   O4        1.0  0.53000  0.33950  0.96310  1.0000
  O   O5        1.0  0.88170  0.82840  0.56140  1.0000
  O   O6        1.0  0.11830  0.17160  0.43860  1.0000
  O   O7        1.0  0.56020  0.00820  0.15320  1.0000
  O   O8        1.0  0.43980  0.99180  0.84680  1.0000
  O   O9        1.0  0.46320  0.81200  0.67320  1.0000
  O   O10       1.0  0.53680  0.18800  0.32680  1.0000
  O   O11       1.0  0.08690  0.97200  0.32890  1.0000
  O   O12       1.0  0.91310  0.02800  0.67110  1.0000
  O   O13       1.0  0.32980  0.42230  0.18110  1.0000
  O   O14       1.0  0.67020  0.57770  0.81890  1.0000
  O   O15       1.0  0.88740  0.69480  0.91710  1.0000
  O   O16       1.0  0.11260  0.30520  0.08290  1.0000
  O   O17       1.0  0.34040  0.92170  0.47020  1.0000
  O   O18       1.0  0.65960  0.07830  0.52980  1.0000
  C   C1        1.0  0.44300  0.92350  0.54110  1.0000
  C   C2        1.0  0.55700  0.07650  0.45890  1.0000
  C   C3        1.0  0.57290  0.97600  0.03920  1.0000
  C   C4        1.0  0.42710  0.02400  0.96080  1.0000
  C   C5        1.0  0.99290  0.94350  0.46740  1.0000
  C   C6        1.0  0.00710  0.05650  0.53260  1.0000
  C   C7        1.0  0.44190  0.52400  0.06350  1.0000
  C   C8        1.0  0.55810  0.47600  0.93650  1.0000
  H   H1        1.0  0.92100  0.71900  0.98300  1.0000
  H   H2        1.0  0.07900  0.28100  0.01700  1.0000
  H   H3        1.0  0.94110  0.67490  0.87180  1.0000
  H   H4        1.0  0.05890  0.32510  0.12820  1.0000
