data_image0
_chemical_formula_structural       Nb24Mn8Cl48O16N40C32H16C8H16C8H8C8H8C8H8C8H8C8H8C24H8C16H8C8H8C32H24C8H24
_chemical_formula_sum              "Nb24 Mn8 Cl48 O16 N40 C168 H144"
_cell_length_a       13.1663
_cell_length_b       23.426
_cell_length_c       23.615
_cell_angle_alpha    90
_cell_angle_beta     90
_cell_angle_gamma    90

_space_group_name_H-M_alt    "P 1"
_space_group_IT_number       1

loop_
  _space_group_symop_operation_xyz
  'x, y, z'

loop_
  _atom_site_type_symbol
  _atom_site_label
  _atom_site_symmetry_multiplicity
  _atom_site_fract_x
  _atom_site_fract_y
  _atom_site_fract_z
  _atom_site_occupancy
  Nb  Nb1       1.0  0.03697  0.42842  0.04705  1.0000
  Nb  Nb2       1.0  0.46303  0.57158  0.54705  1.0000
  Nb  Nb3       1.0  0.96303  0.92842  0.45295  1.0000
  Nb  Nb4       1.0  0.53697  0.07158  0.95295  1.0000
  Nb  Nb5       1.0  0.96303  0.57158  0.95295  1.0000
  Nb  Nb6       1.0  0.53697  0.42842  0.45295  1.0000
  Nb  Nb7       1.0  0.03697  0.07158  0.54705  1.0000
  Nb  Nb8       1.0  0.46303  0.92842  0.04705  1.0000
  Nb  Nb9       1.0  0.92142  0.44940  0.94338  1.0000
  Nb  Nb10      1.0  0.57858  0.55060  0.44338  1.0000
  Nb  Nb11      1.0  0.07858  0.94940  0.55662  1.0000
  Nb  Nb12      1.0  0.42142  0.05060  0.05662  1.0000
  Nb  Nb13      1.0  0.07858  0.55060  0.05662  1.0000
  Nb  Nb14      1.0  0.42142  0.44940  0.55662  1.0000
  Nb  Nb15      1.0  0.92142  0.05060  0.44338  1.0000
  Nb  Nb16      1.0  0.57858  0.94940  0.94338  1.0000
  Nb  Nb17      1.0  0.86820  0.50991  0.04773  1.0000
  Nb  Nb18      1.0  0.63180  0.49009  0.54773  1.0000
  Nb  Nb19      1.0  0.13180  0.00991  0.45227  1.0000
  Nb  Nb20      1.0  0.36820  0.99009  0.95227  1.0000
  Nb  Nb21      1.0  0.13180  0.49009  0.95227  1.0000
  Nb  Nb22      1.0  0.36820  0.50991  0.45227  1.0000
  Nb  Nb23      1.0  0.86820  0.99009  0.54773  1.0000
  Nb  Nb24      1.0  0.63180  0.00991  0.04773  1.0000
  Mn  Mn1       1.0  0.19006  0.22590  0.13161  1.0000
  Mn  Mn2       1.0  0.30994  0.77410  0.63161  1.0000
  Mn  Mn3       1.0  0.80994  0.72590  0.36839  1.0000
  Mn  Mn4       1.0  0.69006  0.27410  0.86839  1.0000
  Mn  Mn5       1.0  0.80994  0.77410  0.86839  1.0000
  Mn  Mn6       1.0  0.69006  0.22590  0.36839  1.0000
  Mn  Mn7       1.0  0.19006  0.27410  0.63161  1.0000
  Mn  Mn8       1.0  0.30994  0.72590  0.13161  1.0000
  Cl  Cl1       1.0  0.88918  0.42677  0.11093  1.0000
  Cl  Cl2       1.0  0.61082  0.57323  0.61093  1.0000
  Cl  Cl3       1.0  0.11082  0.92677  0.38907  1.0000
  Cl  Cl4       1.0  0.38918  0.07323  0.88907  1.0000
  Cl  Cl5       1.0  0.11082  0.57323  0.88907  1.0000
  Cl  Cl6       1.0  0.38918  0.42677  0.38907  1.0000
  Cl  Cl7       1.0  0.88918  0.07323  0.61093  1.0000
  Cl  Cl8       1.0  0.61082  0.92677  0.11093  1.0000
  Cl  Cl9       1.0  0.95304  0.35612  0.98819  1.0000
  Cl  Cl10      1.0  0.54696  0.64388  0.48819  1.0000
  Cl  Cl11      1.0  0.04696  0.85612  0.51181  1.0000
  Cl  Cl12      1.0  0.45304  0.14388  0.01181  1.0000
  Cl  Cl13      1.0  0.04696  0.64388  0.01181  1.0000
  Cl  Cl14      1.0  0.45304  0.35612  0.51181  1.0000
  Cl  Cl15      1.0  0.95304  0.14388  0.48819  1.0000
  Cl  Cl16      1.0  0.54696  0.85612  0.98819  1.0000
  Cl  Cl17      1.0  0.75326  0.45394  0.98794  1.0000
  Cl  Cl18      1.0  0.74674  0.54606  0.48794  1.0000
  Cl  Cl19      1.0  0.24674  0.95394  0.51206  1.0000
  Cl  Cl20      1.0  0.25326  0.04606  0.01206  1.0000
  Cl  Cl21      1.0  0.24674  0.54606  0.01206  1.0000
  Cl  Cl22      1.0  0.25326  0.45394  0.51206  1.0000
  Cl  Cl23      1.0  0.75326  0.04606  0.48794  1.0000
  Cl  Cl24      1.0  0.74674  0.95394  0.98794  1.0000
  Cl  Cl25      1.0  0.80206  0.59644  0.00089  1.0000
  Cl  Cl26      1.0  0.69794  0.40356  0.50089  1.0000
  Cl  Cl27      1.0  0.19794  0.09644  0.49911  1.0000
  Cl  Cl28      1.0  0.30206  0.90356  0.99911  1.0000
  Cl  Cl29      1.0  0.19794  0.40356  0.99911  1.0000
  Cl  Cl30      1.0  0.30206  0.59644  0.49911  1.0000
  Cl  Cl31      1.0  0.80206  0.90356  0.50089  1.0000
  Cl  Cl32      1.0  0.69794  0.09644  0.00089  1.0000
  Cl  Cl33      1.0  0.13479  0.47535  0.12313  1.0000
  Cl  Cl34      1.0  0.36521  0.52465  0.62313  1.0000
  Cl  Cl35      1.0  0.86521  0.97535  0.37687  1.0000
  Cl  Cl36      1.0  0.63479  0.02465  0.87687  1.0000
  Cl  Cl37      1.0  0.86521  0.52465  0.87687  1.0000
  Cl  Cl38      1.0  0.63479  0.47535  0.37687  1.0000
  Cl  Cl39      1.0  0.13479  0.02465  0.62313  1.0000
  Cl  Cl40      1.0  0.36521  0.97535  0.12313  1.0000
  Cl  Cl41      1.0  0.06121  0.42811  0.87743  1.0000
  Cl  Cl42      1.0  0.43879  0.57189  0.37743  1.0000
  Cl  Cl43      1.0  0.93879  0.92811  0.62257  1.0000
  Cl  Cl44      1.0  0.56121  0.07189  0.12257  1.0000
  Cl  Cl45      1.0  0.93879  0.57189  0.12257  1.0000
  Cl  Cl46      1.0  0.56121  0.42811  0.62257  1.0000
  Cl  Cl47      1.0  0.06121  0.07189  0.37743  1.0000
  Cl  Cl48      1.0  0.43879  0.92811  0.87743  1.0000
  O   O1        1.0  0.15270  0.22038  0.20841  1.0000
  O   O2        1.0  0.34730  0.77962  0.70841  1.0000
  O   O3        1.0  0.84730  0.72038  0.29159  1.0000
  O   O4        1.0  0.65270  0.27962  0.79159  1.0000
  O   O5        1.0  0.84730  0.77962  0.79159  1.0000
  O   O6        1.0  0.65270  0.22038  0.29159  1.0000
  O   O7        1.0  0.15270  0.27962  0.70841  1.0000
  O   O8        1.0  0.34730  0.72038  0.20841  1.0000
  O   O9        1.0  0.08320  0.18110  0.10470  1.0000
  O   O10       1.0  0.41680  0.81890  0.60470  1.0000
  O   O11       1.0  0.91680  0.68110  0.39530  1.0000
  O   O12       1.0  0.58320  0.31890  0.89530  1.0000
  O   O13       1.0  0.91680  0.81890  0.89530  1.0000
  O   O14       1.0  0.58320  0.18110  0.39530  1.0000
  O   O15       1.0  0.08320  0.31890  0.60470  1.0000
  O   O16       1.0  0.41680  0.68110  0.10470  1.0000
  N   N1        1.0  0.10120  0.30880  0.12190  1.0000
  N   N2        1.0  0.39880  0.69120  0.62190  1.0000
  N   N3        1.0  0.89880  0.80880  0.37810  1.0000
  N   N4        1.0  0.60120  0.19120  0.87810  1.0000
  N   N5        1.0  0.89880  0.69120  0.87810  1.0000
  N   N6        1.0  0.60120  0.30880  0.37810  1.0000
  N   N7        1.0  0.10120  0.19120  0.62190  1.0000
  N   N8        1.0  0.39880  0.80880  0.12190  1.0000
  N   N9        1.0  0.78960  0.35530  0.86050  1.0000
  N   N10       1.0  0.71040  0.64470  0.36050  1.0000
  N   N11       1.0  0.21040  0.85530  0.63950  1.0000
  N   N12       1.0  0.28960  0.14470  0.13950  1.0000
  N   N13       1.0  0.21040  0.64470  0.13950  1.0000
  N   N14       1.0  0.28960  0.35530  0.63950  1.0000
  N   N15       1.0  0.78960  0.14470  0.36050  1.0000
  N   N16       1.0  0.71040  0.85530  0.86050  1.0000
  N   N17       1.0  0.65790  0.51840  0.13260  1.0000
  N   N18       1.0  0.84210  0.48160  0.63260  1.0000
  N   N19       1.0  0.34210  0.01840  0.36740  1.0000
  N   N20       1.0  0.15790  0.98160  0.86740  1.0000
  N   N21       1.0  0.34210  0.48160  0.86740  1.0000
  N   N22       1.0  0.15790  0.51840  0.36740  1.0000
  N   N23       1.0  0.65790  0.98160  0.63260  1.0000
  N   N24       1.0  0.84210  0.01840  0.13260  1.0000
  N   N25       1.0  0.31200  0.27120  0.15380  1.0000
  N   N26       1.0  0.18800  0.72880  0.65380  1.0000
  N   N27       1.0  0.68800  0.77120  0.34620  1.0000
  N   N28       1.0  0.81200  0.22880  0.84620  1.0000
  N   N29       1.0  0.68800  0.72880  0.84620  1.0000
  N   N30       1.0  0.81200  0.27120  0.34620  1.0000
  N   N31       1.0  0.31200  0.22880  0.65380  1.0000
  N   N32       1.0  0.18800  0.77120  0.15380  1.0000
  N   N33       1.0  0.24340  0.23820  0.05260  1.0000
  N   N34       1.0  0.25660  0.76180  0.55260  1.0000
  N   N35       1.0  0.75660  0.73820  0.44740  1.0000
  N   N36       1.0  0.74340  0.26180  0.94740  1.0000
  N   N37       1.0  0.75660  0.76180  0.94740  1.0000
  N   N38       1.0  0.74340  0.23820  0.44740  1.0000
  N   N39       1.0  0.24340  0.26180  0.55260  1.0000
  N   N40       1.0  0.25660  0.73820  0.05260  1.0000
  C   C1        1.0  0.07690  0.34910  0.09830  1.0000
  C   C2        1.0  0.42310  0.65090  0.59830  1.0000
  C   C3        1.0  0.92310  0.84910  0.40170  1.0000
  C   C4        1.0  0.57690  0.15090  0.90170  1.0000
  C   C5        1.0  0.92310  0.65090  0.90170  1.0000
  C   C6        1.0  0.57690  0.34910  0.40170  1.0000
  C   C7        1.0  0.07690  0.15090  0.59830  1.0000
  C   C8        1.0  0.42310  0.84910  0.09830  1.0000
  C   C9        1.0  0.83520  0.39060  0.88370  1.0000
  C   C10       1.0  0.66480  0.60940  0.38370  1.0000
  C   C11       1.0  0.16480  0.89060  0.61630  1.0000
  C   C12       1.0  0.33520  0.10940  0.11630  1.0000
  C   C13       1.0  0.16480  0.60940  0.11630  1.0000
  C   C14       1.0  0.33520  0.39060  0.61630  1.0000
  C   C15       1.0  0.83520  0.10940  0.38370  1.0000
  C   C16       1.0  0.66480  0.89060  0.88370  1.0000
  C   C17       1.0  0.72540  0.51810  0.10250  1.0000
  C   C18       1.0  0.77460  0.48190  0.60250  1.0000
  C   C19       1.0  0.27460  0.01810  0.39750  1.0000
  C   C20       1.0  0.22540  0.98190  0.89750  1.0000
  C   C21       1.0  0.27460  0.48190  0.89750  1.0000
  C   C22       1.0  0.22540  0.51810  0.39750  1.0000
  C   C23       1.0  0.72540  0.98190  0.60250  1.0000
  C   C24       1.0  0.77460  0.01810  0.10250  1.0000
  C   C25       1.0  0.34070  0.30860  0.10690  1.0000
  C   C26       1.0  0.15930  0.69140  0.60690  1.0000
  C   C27       1.0  0.65930  0.80860  0.39310  1.0000
  C   C28       1.0  0.84070  0.19140  0.89310  1.0000
  C   C29       1.0  0.65930  0.69140  0.89310  1.0000
  C   C30       1.0  0.84070  0.30860  0.39310  1.0000
  C   C31       1.0  0.34070  0.19140  0.60690  1.0000
  C   C32       1.0  0.15930  0.80860  0.10690  1.0000
  H   H1        1.0  0.41120  0.32220  0.11240  1.0000
  H   H2        1.0  0.08880  0.67780  0.61240  1.0000
  H   H3        1.0  0.58880  0.82220  0.38760  1.0000
  H   H4        1.0  0.91120  0.17780  0.88760  1.0000
  H   H5        1.0  0.58880  0.67780  0.88760  1.0000
  H   H6        1.0  0.91120  0.32220  0.38760  1.0000
  H   H7        1.0  0.41120  0.17780  0.61240  1.0000
  H   H8        1.0  0.08880  0.82220  0.11240  1.0000
  H   H9        1.0  0.29530  0.34230  0.10610  1.0000
  H   H10       1.0  0.20470  0.65770  0.60610  1.0000
  H   H11       1.0  0.70470  0.84230  0.39390  1.0000
  H   H12       1.0  0.79530  0.15770  0.89390  1.0000
  H   H13       1.0  0.70470  0.65770  0.89390  1.0000
  H   H14       1.0  0.79530  0.34230  0.39390  1.0000
  H   H15       1.0  0.29530  0.15770  0.60610  1.0000
  H   H16       1.0  0.20470  0.84230  0.10610  1.0000
  C   C33       1.0  0.33300  0.27730  0.05280  1.0000
  C   C34       1.0  0.16700  0.72270  0.55280  1.0000
  C   C35       1.0  0.66700  0.77730  0.44720  1.0000
  C   C36       1.0  0.83300  0.22270  0.94720  1.0000
  C   C37       1.0  0.66700  0.72270  0.94720  1.0000
  C   C38       1.0  0.83300  0.27730  0.44720  1.0000
  C   C39       1.0  0.33300  0.22270  0.55280  1.0000
  C   C40       1.0  0.16700  0.77730  0.05280  1.0000
  H   H17       1.0  0.39580  0.25490  0.04670  1.0000
  H   H18       1.0  0.10420  0.74510  0.54670  1.0000
  H   H19       1.0  0.60420  0.75490  0.45330  1.0000
  H   H20       1.0  0.89580  0.24510  0.95330  1.0000
  H   H21       1.0  0.60420  0.74510  0.95330  1.0000
  H   H22       1.0  0.89580  0.25490  0.45330  1.0000
  H   H23       1.0  0.39580  0.24510  0.54670  1.0000
  H   H24       1.0  0.10420  0.75490  0.04670  1.0000
  H   H25       1.0  0.32660  0.30500  0.02130  1.0000
  H   H26       1.0  0.17340  0.69500  0.52130  1.0000
  H   H27       1.0  0.67340  0.80500  0.47870  1.0000
  H   H28       1.0  0.82660  0.19500  0.97870  1.0000
  H   H29       1.0  0.67340  0.69500  0.97870  1.0000
  H   H30       1.0  0.82660  0.30500  0.47870  1.0000
  H   H31       1.0  0.32660  0.19500  0.52130  1.0000
  H   H32       1.0  0.17340  0.80500  0.02130  1.0000
  C   C41       1.0  0.10440  0.14540  0.95410  1.0000
  C   C42       1.0  0.39560  0.85460  0.45410  1.0000
  C   C43       1.0  0.89560  0.64540  0.54590  1.0000
  C   C44       1.0  0.60440  0.35460  0.04590  1.0000
  C   C45       1.0  0.89560  0.85460  0.04590  1.0000
  C   C46       1.0  0.60440  0.14540  0.54590  1.0000
  C   C47       1.0  0.10440  0.35460  0.45410  1.0000
  C   C48       1.0  0.39560  0.64540  0.95410  1.0000
  H   H33       1.0  0.14030  0.15570  0.92070  1.0000
  H   H34       1.0  0.35970  0.84430  0.42070  1.0000
  H   H35       1.0  0.85970  0.65570  0.57930  1.0000
  H   H36       1.0  0.64030  0.34430  0.07930  1.0000
  H   H37       1.0  0.85970  0.84430  0.07930  1.0000
  H   H38       1.0  0.64030  0.15570  0.57930  1.0000
  H   H39       1.0  0.14030  0.34430  0.42070  1.0000
  H   H40       1.0  0.35970  0.65570  0.92070  1.0000
  C   C49       1.0  0.18620  0.18440  0.29810  1.0000
  C   C50       1.0  0.31380  0.81560  0.79810  1.0000
  C   C51       1.0  0.81380  0.68440  0.20190  1.0000
  C   C52       1.0  0.68620  0.31560  0.70190  1.0000
  C   C53       1.0  0.81380  0.81560  0.70190  1.0000
  C   C54       1.0  0.68620  0.18440  0.20190  1.0000
  C   C55       1.0  0.18620  0.31560  0.79810  1.0000
  C   C56       1.0  0.31380  0.68440  0.29810  1.0000
  H   H41       1.0  0.11740  0.17250  0.30060  1.0000
  H   H42       1.0  0.38260  0.82750  0.80060  1.0000
  H   H43       1.0  0.88260  0.67250  0.19940  1.0000
  H   H44       1.0  0.61740  0.32750  0.69940  1.0000
  H   H45       1.0  0.88260  0.82750  0.69940  1.0000
  H   H46       1.0  0.61740  0.17250  0.19940  1.0000
  H   H47       1.0  0.11740  0.32750  0.80060  1.0000
  H   H48       1.0  0.38260  0.67250  0.30060  1.0000
  C   C57       1.0  0.97950  0.08820  0.99750  1.0000
  C   C58       1.0  0.52050  0.91180  0.49750  1.0000
  C   C59       1.0  0.02050  0.58820  0.50250  1.0000
  C   C60       1.0  0.47950  0.41180  0.00250  1.0000
  C   C61       1.0  0.02050  0.91180  0.00250  1.0000
  C   C62       1.0  0.47950  0.08820  0.50250  1.0000
  C   C63       1.0  0.97950  0.41180  0.49750  1.0000
  C   C64       1.0  0.52050  0.58820  0.99750  1.0000
  H   H49       1.0  0.93040  0.05860  0.99560  1.0000
  H   H50       1.0  0.56960  0.94140  0.49560  1.0000
  H   H51       1.0  0.06960  0.55860  0.50440  1.0000
  H   H52       1.0  0.43040  0.44140  0.00440  1.0000
  H   H53       1.0  0.06960  0.94140  0.00440  1.0000
  H   H54       1.0  0.43040  0.05860  0.50440  1.0000
  H   H55       1.0  0.93040  0.44140  0.49560  1.0000
  H   H56       1.0  0.56960  0.55860  0.99560  1.0000
  C   C65       1.0  0.38460  0.22100  0.29450  1.0000
  C   C66       1.0  0.11540  0.77900  0.79450  1.0000
  C   C67       1.0  0.61540  0.72100  0.20550  1.0000
  C   C68       1.0  0.88460  0.27900  0.70550  1.0000
  C   C69       1.0  0.61540  0.77900  0.70550  1.0000
  C   C70       1.0  0.88460  0.22100  0.20550  1.0000
  C   C71       1.0  0.38460  0.27900  0.79450  1.0000
  C   C72       1.0  0.11540  0.72100  0.29450  1.0000
  H   H57       1.0  0.45270  0.23440  0.29390  1.0000
  H   H58       1.0  0.04730  0.76560  0.79390  1.0000
  H   H59       1.0  0.54730  0.73440  0.20610  1.0000
  H   H60       1.0  0.95270  0.26560  0.70610  1.0000
  H   H61       1.0  0.54730  0.76560  0.70610  1.0000
  H   H62       1.0  0.95270  0.23440  0.20610  1.0000
  H   H63       1.0  0.45270  0.26560  0.79390  1.0000
  H   H64       1.0  0.04730  0.73440  0.29390  1.0000
  C   C73       1.0  0.25150  0.17270  0.34240  1.0000
  C   C74       1.0  0.24850  0.82730  0.84240  1.0000
  C   C75       1.0  0.74850  0.67270  0.15760  1.0000
  C   C76       1.0  0.75150  0.32730  0.65760  1.0000
  C   C77       1.0  0.74850  0.82730  0.65760  1.0000
  C   C78       1.0  0.75150  0.17270  0.15760  1.0000
  C   C79       1.0  0.25150  0.32730  0.84240  1.0000
  C   C80       1.0  0.24850  0.67270  0.34240  1.0000
  H   H65       1.0  0.22780  0.15210  0.37440  1.0000
  H   H66       1.0  0.27220  0.84790  0.87440  1.0000
  H   H67       1.0  0.77220  0.65210  0.12560  1.0000
  H   H68       1.0  0.72780  0.34790  0.62560  1.0000
  H   H69       1.0  0.77220  0.84790  0.62560  1.0000
  H   H70       1.0  0.72780  0.15210  0.12560  1.0000
  H   H71       1.0  0.22780  0.34790  0.87440  1.0000
  H   H72       1.0  0.27220  0.65210  0.37440  1.0000
  C   C81       1.0  0.32080  0.23310  0.24750  1.0000
  C   C82       1.0  0.17920  0.76690  0.74750  1.0000
  C   C83       1.0  0.67920  0.73310  0.25250  1.0000
  C   C84       1.0  0.82080  0.26690  0.75250  1.0000
  C   C85       1.0  0.67920  0.76690  0.75250  1.0000
  C   C86       1.0  0.82080  0.23310  0.25250  1.0000
  C   C87       1.0  0.32080  0.26690  0.74750  1.0000
  C   C88       1.0  0.17920  0.73310  0.24750  1.0000
  C   C89       1.0  0.12790  0.17470  0.00470  1.0000
  C   C90       1.0  0.37210  0.82530  0.50470  1.0000
  C   C91       1.0  0.87210  0.67470  0.49530  1.0000
  C   C92       1.0  0.62790  0.32530  0.99530  1.0000
  C   C93       1.0  0.87210  0.82530  0.99530  1.0000
  C   C94       1.0  0.62790  0.17470  0.49530  1.0000
  C   C95       1.0  0.12790  0.32530  0.50470  1.0000
  C   C96       1.0  0.37210  0.67470  0.00470  1.0000
  C   C97       1.0  0.03230  0.10250  0.95020  1.0000
  C   C98       1.0  0.46770  0.89750  0.45020  1.0000
  C   C99       1.0  0.96770  0.60250  0.54980  1.0000
  C   C100      1.0  0.53230  0.39750  0.04980  1.0000
  C   C101      1.0  0.96770  0.89750  0.04980  1.0000
  C   C102      1.0  0.53230  0.10250  0.54980  1.0000
  C   C103      1.0  0.03230  0.39750  0.45020  1.0000
  C   C104      1.0  0.46770  0.60250  0.95020  1.0000
  H   H73       1.0  0.02010  0.08350  0.91530  1.0000
  H   H74       1.0  0.47990  0.91650  0.41530  1.0000
  H   H75       1.0  0.97990  0.58350  0.58470  1.0000
  H   H76       1.0  0.52010  0.41650  0.08470  1.0000
  H   H77       1.0  0.97990  0.91650  0.08470  1.0000
  H   H78       1.0  0.52010  0.08350  0.58470  1.0000
  H   H79       1.0  0.02010  0.41650  0.41530  1.0000
  H   H80       1.0  0.47990  0.58350  0.91530  1.0000
  C   C105      1.0  0.21940  0.21330  0.24960  1.0000
  C   C106      1.0  0.28060  0.78670  0.74960  1.0000
  C   C107      1.0  0.78060  0.71330  0.25040  1.0000
  C   C108      1.0  0.71940  0.28670  0.75040  1.0000
  C   C109      1.0  0.78060  0.78670  0.75040  1.0000
  C   C110      1.0  0.71940  0.21330  0.25040  1.0000
  C   C111      1.0  0.21940  0.28670  0.74960  1.0000
  C   C112      1.0  0.28060  0.71330  0.24960  1.0000
  C   C113      1.0  0.35240  0.19110  0.34010  1.0000
  C   C114      1.0  0.14760  0.80890  0.84010  1.0000
  C   C115      1.0  0.64760  0.69110  0.15990  1.0000
  C   C116      1.0  0.85240  0.30890  0.65990  1.0000
  C   C117      1.0  0.64760  0.80890  0.65990  1.0000
  C   C118      1.0  0.85240  0.19110  0.15990  1.0000
  C   C119      1.0  0.35240  0.30890  0.84010  1.0000
  C   C120      1.0  0.14760  0.69110  0.34010  1.0000
  H   H81       1.0  0.39780  0.18270  0.37030  1.0000
  H   H82       1.0  0.10220  0.81730  0.87030  1.0000
  H   H83       1.0  0.60220  0.68270  0.12970  1.0000
  H   H84       1.0  0.89780  0.31730  0.62970  1.0000
  H   H85       1.0  0.60220  0.81730  0.62970  1.0000
  H   H86       1.0  0.89780  0.18270  0.12970  1.0000
  H   H87       1.0  0.39780  0.31730  0.87030  1.0000
  H   H88       1.0  0.10220  0.68270  0.37030  1.0000
  C   C121      1.0  0.99600  0.11610  0.04850  1.0000
  C   C122      1.0  0.50400  0.88390  0.54850  1.0000
  C   C123      1.0  0.00400  0.61610  0.45150  1.0000
  C   C124      1.0  0.49600  0.38390  0.95150  1.0000
  C   C125      1.0  0.00400  0.88390  0.95150  1.0000
  C   C126      1.0  0.49600  0.11610  0.45150  1.0000
  C   C127      1.0  0.99600  0.38390  0.54850  1.0000
  C   C128      1.0  0.50400  0.61610  0.04850  1.0000
  H   H89       1.0  0.95620  0.10630  0.08070  1.0000
  H   H90       1.0  0.54380  0.89370  0.58070  1.0000
  H   H91       1.0  0.04380  0.60630  0.41930  1.0000
  H   H92       1.0  0.45620  0.39370  0.91930  1.0000
  H   H93       1.0  0.04380  0.89370  0.91930  1.0000
  H   H94       1.0  0.45620  0.10630  0.41930  1.0000
  H   H95       1.0  0.95620  0.39370  0.58070  1.0000
  H   H96       1.0  0.54380  0.60630  0.08070  1.0000
  C   C129      1.0  0.07090  0.15870  0.05320  1.0000
  C   C130      1.0  0.42910  0.84130  0.55320  1.0000
  C   C131      1.0  0.92910  0.65870  0.44680  1.0000
  C   C132      1.0  0.57090  0.34130  0.94680  1.0000
  C   C133      1.0  0.92910  0.84130  0.94680  1.0000
  C   C134      1.0  0.57090  0.15870  0.44680  1.0000
  C   C135      1.0  0.07090  0.34130  0.55320  1.0000
  C   C136      1.0  0.42910  0.65870  0.05320  1.0000
  C   C137      1.0  0.35950  0.26950  0.20240  1.0000
  C   C138      1.0  0.14050  0.73050  0.70240  1.0000
  C   C139      1.0  0.64050  0.76950  0.29760  1.0000
  C   C140      1.0  0.85950  0.23050  0.79760  1.0000
  C   C141      1.0  0.64050  0.73050  0.79760  1.0000
  C   C142      1.0  0.85950  0.26950  0.29760  1.0000
  C   C143      1.0  0.35950  0.23050  0.70240  1.0000
  C   C144      1.0  0.14050  0.76950  0.20240  1.0000
  C   C145      1.0  0.21000  0.21580  0.00620  1.0000
  C   C146      1.0  0.29000  0.78420  0.50620  1.0000
  C   C147      1.0  0.79000  0.71580  0.49380  1.0000
  C   C148      1.0  0.71000  0.28420  0.99380  1.0000
  C   C149      1.0  0.79000  0.78420  0.99380  1.0000
  C   C150      1.0  0.71000  0.21580  0.49380  1.0000
  C   C151      1.0  0.21000  0.28420  0.50620  1.0000
  C   C152      1.0  0.29000  0.71580  0.00620  1.0000
  C   C153      1.0  0.45420  0.30380  0.21270  1.0000
  C   C154      1.0  0.04580  0.69620  0.71270  1.0000
  C   C155      1.0  0.54580  0.80380  0.28730  1.0000
  C   C156      1.0  0.95420  0.19620  0.78730  1.0000
  C   C157      1.0  0.54580  0.69620  0.78730  1.0000
  C   C158      1.0  0.95420  0.30380  0.28730  1.0000
  C   C159      1.0  0.45420  0.19620  0.71270  1.0000
  C   C160      1.0  0.04580  0.80380  0.21270  1.0000
  H   H97       1.0  0.45470  0.33700  0.18750  1.0000
  H   H98       1.0  0.04530  0.66300  0.68750  1.0000
  H   H99       1.0  0.54530  0.83700  0.31250  1.0000
  H   H100      1.0  0.95470  0.16300  0.81250  1.0000
  H   H101      1.0  0.54530  0.66300  0.81250  1.0000
  H   H102      1.0  0.95470  0.33700  0.31250  1.0000
  H   H103      1.0  0.45470  0.16300  0.68750  1.0000
  H   H104      1.0  0.04530  0.83700  0.18750  1.0000
  H   H105      1.0  0.51390  0.28010  0.20510  1.0000
  H   H106      1.0  0.98610  0.71990  0.70510  1.0000
  H   H107      1.0  0.48610  0.78010  0.29490  1.0000
  H   H108      1.0  0.01390  0.21990  0.79490  1.0000
  H   H109      1.0  0.48610  0.71990  0.79490  1.0000
  H   H110      1.0  0.01390  0.28010  0.29490  1.0000
  H   H111      1.0  0.51390  0.21990  0.70510  1.0000
  H   H112      1.0  0.98610  0.78010  0.20510  1.0000
  H   H113      1.0  0.45550  0.31660  0.25220  1.0000
  H   H114      1.0  0.04450  0.68340  0.75220  1.0000
  H   H115      1.0  0.54450  0.81660  0.24780  1.0000
  H   H116      1.0  0.95550  0.18340  0.74780  1.0000
  H   H117      1.0  0.54450  0.68340  0.74780  1.0000
  H   H118      1.0  0.95550  0.31660  0.24780  1.0000
  H   H119      1.0  0.45550  0.18340  0.75220  1.0000
  H   H120      1.0  0.04450  0.81660  0.25220  1.0000
  C   C161      1.0  0.26040  0.23150  0.95050  1.0000
  C   C162      1.0  0.23960  0.76850  0.45050  1.0000
  C   C163      1.0  0.73960  0.73150  0.54950  1.0000
  C   C164      1.0  0.76040  0.26850  0.04950  1.0000
  C   C165      1.0  0.73960  0.76850  0.04950  1.0000
  C   C166      1.0  0.76040  0.23150  0.54950  1.0000
  C   C167      1.0  0.26040  0.26850  0.45050  1.0000
  C   C168      1.0  0.23960  0.73150  0.95050  1.0000
  H   H121      1.0  0.30610  0.26400  0.95640  1.0000
  H   H122      1.0  0.19390  0.73600  0.45640  1.0000
  H   H123      1.0  0.69390  0.76400  0.54360  1.0000
  H   H124      1.0  0.80610  0.23600  0.04360  1.0000
  H   H125      1.0  0.69390  0.73600  0.04360  1.0000
  H   H126      1.0  0.80610  0.26400  0.54360  1.0000
  H   H127      1.0  0.30610  0.23600  0.45640  1.0000
  H   H128      1.0  0.19390  0.76400  0.95640  1.0000
  H   H129      1.0  0.20820  0.24180  0.92270  1.0000
  H   H130      1.0  0.29180  0.75820  0.42270  1.0000
  H   H131      1.0  0.79180  0.74180  0.57730  1.0000
  H   H132      1.0  0.70820  0.25820  0.07730  1.0000
  H   H133      1.0  0.79180  0.75820  0.07730  1.0000
  H   H134      1.0  0.70820  0.24180  0.57730  1.0000
  H   H135      1.0  0.20820  0.25820  0.42270  1.0000
  H   H136      1.0  0.29180  0.74180  0.92270  1.0000
  H   H137      1.0  0.29940  0.19880  0.93640  1.0000
  H   H138      1.0  0.20060  0.80120  0.43640  1.0000
  H   H139      1.0  0.70060  0.69880  0.56360  1.0000
  H   H140      1.0  0.79940  0.30120  0.06360  1.0000
  H   H141      1.0  0.70060  0.80120  0.06360  1.0000
  H   H142      1.0  0.79940  0.19880  0.56360  1.0000
  H   H143      1.0  0.29940  0.30120  0.43640  1.0000
  H   H144      1.0  0.20060  0.69880  0.93640  1.0000
