data_image0
_chemical_formula_structural       Nb24Mn4Cl48C32H4C8H8C8H4C4H4C4H4C8H8C4H4C8H12C4H4C4H12C8H4C4H4O16N32
_chemical_formula_sum              "Nb24 Mn4 Cl48 C96 H72 O16 N32"
_cell_length_a       11.791
_cell_length_b       23.168
_cell_length_c       25.506
_cell_angle_alpha    90
_cell_angle_beta     103.17
_cell_angle_gamma    90

_space_group_name_H-M_alt    "P 1"
_space_group_IT_number       1

loop_
  _space_group_symop_operation_xyz
  'x, y, z'

loop_
  _atom_site_type_symbol
  _atom_site_label
  _atom_site_symmetry_multiplicity
  _atom_site_fract_x
  _atom_site_fract_y
  _atom_site_fract_z
  _atom_site_occupancy
  Nb  Nb1       1.0  0.22784  0.30029  0.50050  1.0000
  Nb  Nb2       1.0  0.77216  0.80029  0.99950  1.0000
  Nb  Nb3       1.0  0.77216  0.69971  0.49950  1.0000
  Nb  Nb4       1.0  0.22784  0.19971  0.00050  1.0000
  Nb  Nb5       1.0  0.36741  0.19751  0.49213  1.0000
  Nb  Nb6       1.0  0.63259  0.69751  0.00787  1.0000
  Nb  Nb7       1.0  0.63259  0.80249  0.50787  1.0000
  Nb  Nb8       1.0  0.36741  0.30249  0.99213  1.0000
  Nb  Nb9       1.0  0.21654  0.17261  0.38619  1.0000
  Nb  Nb10      1.0  0.78346  0.67261  0.11381  1.0000
  Nb  Nb11      1.0  0.78346  0.82739  0.61381  1.0000
  Nb  Nb12      1.0  0.21654  0.32739  0.88619  1.0000
  Nb  Nb13      1.0  0.32962  0.28539  0.40703  1.0000
  Nb  Nb14      1.0  0.67038  0.78539  0.09297  1.0000
  Nb  Nb15      1.0  0.67038  0.71461  0.59297  1.0000
  Nb  Nb16      1.0  0.32962  0.21461  0.90703  1.0000
  Nb  Nb17      1.0  0.07698  0.27515  0.39478  1.0000
  Nb  Nb18      1.0  0.92302  0.77515  0.10522  1.0000
  Nb  Nb19      1.0  0.92302  0.72485  0.60522  1.0000
  Nb  Nb20      1.0  0.07698  0.22485  0.89478  1.0000
  Nb  Nb21      1.0  0.11443  0.18723  0.47976  1.0000
  Nb  Nb22      1.0  0.88557  0.68723  0.02024  1.0000
  Nb  Nb23      1.0  0.88557  0.81277  0.52024  1.0000
  Nb  Nb24      1.0  0.11443  0.31277  0.97976  1.0000
  Mn  Mn1       1.0  0.21713  0.41313  0.68851  1.0000
  Mn  Mn2       1.0  0.78287  0.91313  0.81149  1.0000
  Mn  Mn3       1.0  0.78287  0.58687  0.31149  1.0000
  Mn  Mn4       1.0  0.21713  0.08687  0.18851  1.0000
  Cl  Cl1       1.0  0.39902  0.26638  0.56767  1.0000
  Cl  Cl2       1.0  0.60098  0.76638  0.93233  1.0000
  Cl  Cl3       1.0  0.60098  0.73362  0.43233  1.0000
  Cl  Cl4       1.0  0.39902  0.23362  0.06767  1.0000
  Cl  Cl5       1.0  0.35549  0.36981  0.46796  1.0000
  Cl  Cl6       1.0  0.64451  0.86981  0.03204  1.0000
  Cl  Cl7       1.0  0.64451  0.63019  0.53204  1.0000
  Cl  Cl8       1.0  0.35549  0.13019  0.96796  1.0000
  Cl  Cl9       1.0  0.10124  0.25418  0.55315  1.0000
  Cl  Cl10      1.0  0.89876  0.75418  0.94685  1.0000
  Cl  Cl11      1.0  0.89876  0.74582  0.44685  1.0000
  Cl  Cl12      1.0  0.10124  0.24582  0.05315  1.0000
  Cl  Cl13      1.0  0.05946  0.35802  0.45310  1.0000
  Cl  Cl14      1.0  0.94054  0.85802  0.04690  1.0000
  Cl  Cl15      1.0  0.94054  0.64198  0.54690  1.0000
  Cl  Cl16      1.0  0.05946  0.14198  0.95310  1.0000
  Cl  Cl17      1.0  0.38364  0.11390  0.43366  1.0000
  Cl  Cl18      1.0  0.61636  0.61390  0.06634  1.0000
  Cl  Cl19      1.0  0.61636  0.88610  0.56634  1.0000
  Cl  Cl20      1.0  0.38364  0.38610  0.93366  1.0000
  Cl  Cl21      1.0  0.26668  0.13449  0.54437  1.0000
  Cl  Cl22      1.0  0.73332  0.63449  0.95563  1.0000
  Cl  Cl23      1.0  0.73332  0.86551  0.45563  1.0000
  Cl  Cl24      1.0  0.26668  0.36551  0.04437  1.0000
  Cl  Cl25      1.0  0.51895  0.24800  0.45775  1.0000
  Cl  Cl26      1.0  0.48105  0.74800  0.04225  1.0000
  Cl  Cl27      1.0  0.48105  0.75200  0.54225  1.0000
  Cl  Cl28      1.0  0.51895  0.25200  0.95775  1.0000
  Cl  Cl29      1.0  0.04510  0.20723  0.31928  1.0000
  Cl  Cl30      1.0  0.95490  0.70723  0.18072  1.0000
  Cl  Cl31      1.0  0.95490  0.79277  0.68072  1.0000
  Cl  Cl32      1.0  0.04510  0.29277  0.81928  1.0000
  Cl  Cl33      1.0  0.17811  0.33903  0.34271  1.0000
  Cl  Cl34      1.0  0.82189  0.83903  0.15729  1.0000
  Cl  Cl35      1.0  0.82189  0.66097  0.65729  1.0000
  Cl  Cl36      1.0  0.17811  0.16097  0.84271  1.0000
  Cl  Cl37      1.0  0.09003  0.10266  0.41880  1.0000
  Cl  Cl38      1.0  0.90997  0.60266  0.08120  1.0000
  Cl  Cl39      1.0  0.90997  0.89734  0.58120  1.0000
  Cl  Cl40      1.0  0.09003  0.39734  0.91880  1.0000
  Cl  Cl41      1.0  0.34466  0.21834  0.33445  1.0000
  Cl  Cl42      1.0  0.65534  0.71834  0.16555  1.0000
  Cl  Cl43      1.0  0.65534  0.78166  0.66555  1.0000
  Cl  Cl44      1.0  0.34466  0.28166  0.83445  1.0000
  Cl  Cl45      1.0  0.92520  0.22447  0.42924  1.0000
  Cl  Cl46      1.0  0.07480  0.72447  0.07076  1.0000
  Cl  Cl47      1.0  0.07480  0.77553  0.57076  1.0000
  Cl  Cl48      1.0  0.92520  0.27553  0.92924  1.0000
  C   C1        1.0  0.22940  0.36930  0.56420  1.0000
  C   C2        1.0  0.77060  0.86930  0.93580  1.0000
  C   C3        1.0  0.77060  0.63070  0.43580  1.0000
  C   C4        1.0  0.22940  0.13070  0.06420  1.0000
  C   C5        1.0  0.52360  0.15360  0.54580  1.0000
  C   C6        1.0  0.47640  0.65360  0.95420  1.0000
  C   C7        1.0  0.47640  0.84640  0.45420  1.0000
  C   C8        1.0  0.52360  0.34640  0.04580  1.0000
  C   C9        1.0  0.21110  0.39220  0.81800  1.0000
  C   C10       1.0  0.78890  0.89220  0.68200  1.0000
  C   C11       1.0  0.78890  0.60780  0.18200  1.0000
  C   C12       1.0  0.21110  0.10780  0.31800  1.0000
  C   C13       1.0  0.44240  0.33790  0.36450  1.0000
  C   C14       1.0  0.55760  0.83790  0.13550  1.0000
  C   C15       1.0  0.55760  0.66210  0.63550  1.0000
  C   C16       1.0  0.44240  0.16210  0.86450  1.0000
  C   C17       1.0  0.91750  0.31550  0.34010  1.0000
  C   C18       1.0  0.08250  0.81550  0.15990  1.0000
  C   C19       1.0  0.08250  0.68450  0.65990  1.0000
  C   C20       1.0  0.91750  0.18450  0.84010  1.0000
  C   C21       1.0  0.00190  0.13210  0.52020  1.0000
  C   C22       1.0  0.99810  0.63210  0.97980  1.0000
  C   C23       1.0  0.99810  0.86790  0.47980  1.0000
  C   C24       1.0  0.00190  0.36790  0.02020  1.0000
  C   C25       1.0  0.98360  0.45920  0.65060  1.0000
  C   C26       1.0  0.01640  0.95920  0.84940  1.0000
  C   C27       1.0  0.01640  0.54080  0.34940  1.0000
  C   C28       1.0  0.98360  0.04080  0.15060  1.0000
  C   C29       1.0  0.44050  0.35460  0.72440  1.0000
  C   C30       1.0  0.55950  0.85460  0.77560  1.0000
  C   C31       1.0  0.55950  0.64540  0.27560  1.0000
  C   C32       1.0  0.44050  0.14540  0.22440  1.0000
  H   H1        1.0  0.48330  0.32100  0.73420  1.0000
  H   H2        1.0  0.51670  0.82100  0.76580  1.0000
  H   H3        1.0  0.51670  0.67900  0.26580  1.0000
  H   H4        1.0  0.48330  0.17900  0.23420  1.0000
  C   C33       1.0  0.74110  0.44820  0.61610  1.0000
  C   C34       1.0  0.25890  0.94820  0.88390  1.0000
  C   C35       1.0  0.25890  0.55180  0.38390  1.0000
  C   C36       1.0  0.74110  0.05180  0.11610  1.0000
  C   C37       1.0  0.15920  0.29160  0.69800  1.0000
  C   C38       1.0  0.84080  0.79160  0.80200  1.0000
  C   C39       1.0  0.84080  0.70840  0.30200  1.0000
  C   C40       1.0  0.15920  0.20840  0.19800  1.0000
  H   H5        1.0  0.16000  0.28610  0.73580  1.0000
  H   H6        1.0  0.84000  0.78610  0.76420  1.0000
  H   H7        1.0  0.84000  0.71390  0.26420  1.0000
  H   H8        1.0  0.16000  0.21390  0.23580  1.0000
  H   H9        1.0  0.11480  0.26030  0.67780  1.0000
  H   H10       1.0  0.88520  0.76030  0.82220  1.0000
  H   H11       1.0  0.88520  0.73970  0.32220  1.0000
  H   H12       1.0  0.11480  0.23970  0.17780  1.0000
  C   C41       1.0  0.50350  0.40840  0.73330  1.0000
  C   C42       1.0  0.49650  0.90840  0.76670  1.0000
  C   C43       1.0  0.49650  0.59160  0.26670  1.0000
  C   C44       1.0  0.50350  0.09160  0.23330  1.0000
  C   C45       1.0  0.62710  0.40640  0.75320  1.0000
  C   C46       1.0  0.37290  0.90640  0.74680  1.0000
  C   C47       1.0  0.37290  0.59360  0.24680  1.0000
  C   C48       1.0  0.62710  0.09360  0.25320  1.0000
  H   H13       1.0  0.66310  0.37100  0.76300  1.0000
  H   H14       1.0  0.33690  0.87100  0.73700  1.0000
  H   H15       1.0  0.33690  0.62900  0.23700  1.0000
  H   H16       1.0  0.66310  0.12900  0.26300  1.0000
  C   C49       1.0  0.91190  0.50750  0.63710  1.0000
  C   C50       1.0  0.08810  0.00750  0.86290  1.0000
  C   C51       1.0  0.08810  0.49250  0.36290  1.0000
  C   C52       1.0  0.91190  0.99250  0.13710  1.0000
  H   H17       1.0  0.94550  0.54400  0.63960  1.0000
  H   H18       1.0  0.05450  0.04400  0.86040  1.0000
  H   H19       1.0  0.05450  0.45600  0.36040  1.0000
  H   H20       1.0  0.94550  0.95600  0.13960  1.0000
  C   C53       1.0  0.80720  0.39960  0.62800  1.0000
  C   C54       1.0  0.19280  0.89960  0.87200  1.0000
  C   C55       1.0  0.19280  0.60040  0.37200  1.0000
  C   C56       1.0  0.80720  0.10040  0.12800  1.0000
  H   H21       1.0  0.77190  0.36350  0.62460  1.0000
  H   H22       1.0  0.22810  0.86350  0.87540  1.0000
  H   H23       1.0  0.22810  0.63650  0.37540  1.0000
  H   H24       1.0  0.77190  0.13650  0.12460  1.0000
  C   C57       1.0  0.93010  0.40420  0.64560  1.0000
  C   C58       1.0  0.06990  0.90420  0.85440  1.0000
  C   C59       1.0  0.06990  0.59580  0.35440  1.0000
  C   C60       1.0  0.93010  0.09580  0.14560  1.0000
  C   C61       1.0  0.28010  0.29080  0.69020  1.0000
  C   C62       1.0  0.71990  0.79080  0.80980  1.0000
  C   C63       1.0  0.71990  0.70920  0.30980  1.0000
  C   C64       1.0  0.28010  0.20920  0.19020  1.0000
  H   H25       1.0  0.27990  0.28160  0.65310  1.0000
  H   H26       1.0  0.72010  0.78160  0.84690  1.0000
  H   H27       1.0  0.72010  0.71840  0.34690  1.0000
  H   H28       1.0  0.27990  0.21840  0.15310  1.0000
  H   H29       1.0  0.32560  0.26180  0.71320  1.0000
  H   H30       1.0  0.67440  0.76180  0.78680  1.0000
  H   H31       1.0  0.67440  0.73820  0.28680  1.0000
  H   H32       1.0  0.32560  0.23820  0.21320  1.0000
  C   C65       1.0  0.99330  0.35210  0.66170  1.0000
  C   C66       1.0  0.00670  0.85210  0.83830  1.0000
  C   C67       1.0  0.00670  0.64790  0.33830  1.0000
  C   C68       1.0  0.99330  0.14790  0.16170  1.0000
  H   H33       1.0  0.94980  0.31830  0.65920  1.0000
  H   H34       1.0  0.05020  0.81830  0.84080  1.0000
  H   H35       1.0  0.05020  0.68170  0.34080  1.0000
  H   H36       1.0  0.94980  0.18170  0.15920  1.0000
  C   C69       1.0  0.45020  0.46220  0.71990  1.0000
  C   C70       1.0  0.54980  0.96220  0.78010  1.0000
  C   C71       1.0  0.54980  0.53780  0.28010  1.0000
  C   C72       1.0  0.45020  0.03780  0.21990  1.0000
  C   C73       1.0  0.87110  0.40570  0.78180  1.0000
  C   C74       1.0  0.12890  0.90570  0.71820  1.0000
  C   C75       1.0  0.12890  0.59430  0.21820  1.0000
  C   C76       1.0  0.87110  0.09430  0.28180  1.0000
  H   H37       1.0  0.95270  0.41330  0.79460  1.0000
  H   H38       1.0  0.04730  0.91330  0.70540  1.0000
  H   H39       1.0  0.04730  0.58670  0.20540  1.0000
  H   H40       1.0  0.95270  0.08670  0.29460  1.0000
  H   H41       1.0  0.84450  0.38140  0.80700  1.0000
  H   H42       1.0  0.15550  0.88140  0.69300  1.0000
  H   H43       1.0  0.15550  0.61860  0.19300  1.0000
  H   H44       1.0  0.84450  0.11860  0.30700  1.0000
  H   H45       1.0  0.85830  0.38660  0.74750  1.0000
  H   H46       1.0  0.14170  0.88660  0.75250  1.0000
  H   H47       1.0  0.14170  0.61340  0.25250  1.0000
  H   H48       1.0  0.85830  0.11340  0.24750  1.0000
  C   C77       1.0  0.63720  0.50730  0.74500  1.0000
  C   C78       1.0  0.36280  0.00730  0.75500  1.0000
  C   C79       1.0  0.36280  0.49270  0.25500  1.0000
  C   C80       1.0  0.63720  0.99270  0.24500  1.0000
  H   H49       1.0  0.68150  0.54090  0.74950  1.0000
  H   H50       1.0  0.31850  0.04090  0.75050  1.0000
  H   H51       1.0  0.31850  0.45910  0.25050  1.0000
  H   H52       1.0  0.68150  0.95910  0.24950  1.0000
  C   C81       1.0  0.56370  0.39420  0.59970  1.0000
  C   C82       1.0  0.43630  0.89420  0.90030  1.0000
  C   C83       1.0  0.43630  0.60580  0.40030  1.0000
  C   C84       1.0  0.56370  0.10580  0.09970  1.0000
  H   H53       1.0  0.48140  0.39910  0.58620  1.0000
  H   H54       1.0  0.51860  0.89910  0.91380  1.0000
  H   H55       1.0  0.51860  0.60090  0.41380  1.0000
  H   H56       1.0  0.48140  0.10090  0.08620  1.0000
  H   H57       1.0  0.59250  0.36630  0.57810  1.0000
  H   H58       1.0  0.40750  0.86630  0.92190  1.0000
  H   H59       1.0  0.40750  0.63370  0.42190  1.0000
  H   H60       1.0  0.59250  0.13370  0.07810  1.0000
  H   H61       1.0  0.57870  0.38110  0.63630  1.0000
  H   H62       1.0  0.42130  0.88110  0.86370  1.0000
  H   H63       1.0  0.42130  0.61890  0.36370  1.0000
  H   H64       1.0  0.57870  0.11890  0.13630  1.0000
  C   C85       1.0  0.69290  0.45500  0.75800  1.0000
  C   C86       1.0  0.30710  0.95500  0.74200  1.0000
  C   C87       1.0  0.30710  0.54500  0.24200  1.0000
  C   C88       1.0  0.69290  0.04500  0.25800  1.0000
  C   C89       1.0  0.79320  0.50240  0.62020  1.0000
  C   C90       1.0  0.20680  0.00240  0.87980  1.0000
  C   C91       1.0  0.20680  0.49760  0.37980  1.0000
  C   C92       1.0  0.79320  0.99760  0.12020  1.0000
  H   H65       1.0  0.74750  0.53520  0.61150  1.0000
  H   H66       1.0  0.25250  0.03520  0.88850  1.0000
  H   H67       1.0  0.25250  0.46480  0.38850  1.0000
  H   H68       1.0  0.74750  0.96480  0.11150  1.0000
  C   C93       1.0  0.52070  0.51150  0.72590  1.0000
  C   C94       1.0  0.47930  0.01150  0.77410  1.0000
  C   C95       1.0  0.47930  0.48850  0.27410  1.0000
  C   C96       1.0  0.52070  0.98850  0.22590  1.0000
  H   H69       1.0  0.48700  0.54750  0.71670  1.0000
  H   H70       1.0  0.51300  0.04750  0.78330  1.0000
  H   H71       1.0  0.51300  0.45250  0.28330  1.0000
  H   H72       1.0  0.48700  0.95250  0.21670  1.0000
  O   O1        1.0  0.09760  0.46730  0.66830  1.0000
  O   O2        1.0  0.90240  0.96730  0.83170  1.0000
  O   O3        1.0  0.90240  0.53270  0.33170  1.0000
  O   O4        1.0  0.09760  0.03270  0.16830  1.0000
  O   O5        1.0  0.33490  0.46840  0.70029  1.0000
  O   O6        1.0  0.66510  0.96840  0.79971  1.0000
  O   O7        1.0  0.66510  0.53160  0.29971  1.0000
  O   O8        1.0  0.33490  0.03160  0.20029  1.0000
  O   O9        1.0  0.62100  0.44800  0.59740  1.0000
  O   O10       1.0  0.37900  0.94800  0.90260  1.0000
  O   O11       1.0  0.37900  0.55200  0.40260  1.0000
  O   O12       1.0  0.62100  0.05200  0.09740  1.0000
  O   O13       1.0  0.80980  0.45740  0.77610  1.0000
  O   O14       1.0  0.19020  0.95740  0.72390  1.0000
  O   O15       1.0  0.19020  0.54260  0.22390  1.0000
  O   O16       1.0  0.80980  0.04260  0.27610  1.0000
  N   N1        1.0  0.22680  0.39990  0.59840  1.0000
  N   N2        1.0  0.77320  0.89990  0.90160  1.0000
  N   N3        1.0  0.77320  0.60010  0.40160  1.0000
  N   N4        1.0  0.22680  0.10010  0.09840  1.0000
  N   N5        1.0  0.59980  0.12940  0.57300  1.0000
  N   N6        1.0  0.40020  0.62940  0.92700  1.0000
  N   N7        1.0  0.40020  0.87060  0.42700  1.0000
  N   N8        1.0  0.59980  0.37060  0.07300  1.0000
  N   N9        1.0  0.21100  0.41620  0.77960  1.0000
  N   N10       1.0  0.78900  0.91620  0.72040  1.0000
  N   N11       1.0  0.78900  0.58380  0.22040  1.0000
  N   N12       1.0  0.21100  0.08380  0.27960  1.0000
  N   N13       1.0  0.50000  0.36030  0.34110  1.0000
  N   N14       1.0  0.50000  0.86030  0.15890  1.0000
  N   N15       1.0  0.50000  0.63970  0.65890  1.0000
  N   N16       1.0  0.50000  0.13970  0.84110  1.0000
  N   N17       1.0  0.83710  0.33200  0.31160  1.0000
  N   N18       1.0  0.16290  0.83200  0.18840  1.0000
  N   N19       1.0  0.16290  0.66800  0.68840  1.0000
  N   N20       1.0  0.83710  0.16800  0.81160  1.0000
  N   N21       1.0  0.94550  0.10340  0.54060  1.0000
  N   N22       1.0  0.05450  0.60340  0.95940  1.0000
  N   N23       1.0  0.05450  0.89660  0.45940  1.0000
  N   N24       1.0  0.94550  0.39660  0.04060  1.0000
  N   N25       1.0  0.10430  0.34720  0.67940  1.0000
  N   N26       1.0  0.89570  0.84720  0.82060  1.0000
  N   N27       1.0  0.89570  0.65280  0.32060  1.0000
  N   N28       1.0  0.10430  0.15280  0.17940  1.0000
  N   N29       1.0  0.33110  0.34860  0.70420  1.0000
  N   N30       1.0  0.66890  0.84860  0.79580  1.0000
  N   N31       1.0  0.66890  0.65140  0.29580  1.0000
  N   N32       1.0  0.33110  0.15140  0.20420  1.0000
