data_image0
_chemical_formula_structural       AlO6C6O2H2O2H2O2H2Na
_chemical_formula_sum              "Al1 O12 C6 H6 Na1"
_cell_length_a       8.9608
_cell_length_b       9.0966
_cell_length_c       8.7764
_cell_angle_alpha    54.234
_cell_angle_beta     53.858
_cell_angle_gamma    56.383

_space_group_name_H-M_alt    "P 1"
_space_group_IT_number       1

loop_
  _space_group_symop_operation_xyz
  'x, y, z'

loop_
  _atom_site_type_symbol
  _atom_site_label
  _atom_site_symmetry_multiplicity
  _atom_site_fract_x
  _atom_site_fract_y
  _atom_site_fract_z
  _atom_site_occupancy
  Al  Al1       1.0  0.00000  0.00000  0.00000  1.0000
  O   O1        1.0  0.87320  0.23650  0.03240  1.0000
  O   O2        1.0  0.12680  0.76350  0.96760  1.0000
  O   O3        1.0  0.24270  0.03650  0.86060  1.0000
  O   O4        1.0  0.75730  0.96350  0.13940  1.0000
  O   O5        1.0  0.97170  0.13550  0.74650  1.0000
  O   O6        1.0  0.02830  0.86450  0.25350  1.0000
  C   C1        1.0  0.75320  0.27650  0.19040  1.0000
  C   C2        1.0  0.24680  0.72350  0.80960  1.0000
  C   C3        1.0  0.28180  0.19390  0.74300  1.0000
  C   C4        1.0  0.71820  0.80610  0.25700  1.0000
  C   C5        1.0  0.81580  0.24200  0.71560  1.0000
  C   C6        1.0  0.18420  0.75800  0.28440  1.0000
  O   O7        1.0  0.69440  0.43630  0.19050  1.0000
  O   O8        1.0  0.30560  0.56370  0.80950  1.0000
  H   H1        1.0  0.70570  0.17890  0.31550  1.0000
  H   H2        1.0  0.29430  0.82110  0.68450  1.0000
  O   O9        1.0  0.44100  0.20920  0.66890  1.0000
  O   O10       1.0  0.55900  0.79080  0.33110  1.0000
  H   H3        1.0  0.17950  0.30740  0.71100  1.0000
  H   H4        1.0  0.82050  0.69260  0.28900  1.0000
  O   O11       1.0  0.80660  0.34120  0.54530  1.0000
  O   O12       1.0  0.19340  0.65880  0.45470  1.0000
  H   H5        1.0  0.69630  0.24630  0.83210  1.0000
  H   H6        1.0  0.30370  0.75370  0.16790  1.0000
  Na  Na1       1.0  0.50000  0.50000  0.50000  1.0000
