data_image0
_chemical_formula_structural       Nd8O72C32H16
_chemical_formula_sum              "Nd8 O72 C32 H16"
_cell_length_a       6.4298
_cell_length_b       12.2972
_cell_length_c       25.008
_cell_angle_alpha    90
_cell_angle_beta     90
_cell_angle_gamma    90

_space_group_name_H-M_alt    "P 1"
_space_group_IT_number       1

loop_
  _space_group_symop_operation_xyz
  'x, y, z'

loop_
  _atom_site_type_symbol
  _atom_site_label
  _atom_site_symmetry_multiplicity
  _atom_site_fract_x
  _atom_site_fract_y
  _atom_site_fract_z
  _atom_site_occupancy
  Nd  Nd1       1.0  0.36048  0.46676  0.12085  1.0000
  Nd  Nd2       1.0  0.36048  0.46676  0.37915  1.0000
  Nd  Nd3       1.0  0.63952  0.96676  0.12085  1.0000
  Nd  Nd4       1.0  0.36048  0.03324  0.62085  1.0000
  Nd  Nd5       1.0  0.63952  0.53324  0.87915  1.0000
  Nd  Nd6       1.0  0.63952  0.53324  0.62085  1.0000
  Nd  Nd7       1.0  0.36048  0.03324  0.87915  1.0000
  Nd  Nd8       1.0  0.63952  0.96676  0.37915  1.0000
  O   O1        1.0  0.64490  0.60163  0.09758  1.0000
  O   O2        1.0  0.64490  0.60163  0.40242  1.0000
  O   O3        1.0  0.35510  0.10163  0.09758  1.0000
  O   O4        1.0  0.64490  0.89837  0.59758  1.0000
  O   O5        1.0  0.35510  0.39837  0.90242  1.0000
  O   O6        1.0  0.35510  0.39837  0.59758  1.0000
  O   O7        1.0  0.64490  0.89837  0.90242  1.0000
  O   O8        1.0  0.35510  0.10163  0.40242  1.0000
  O   O9        1.0  0.74250  0.77562  0.09719  1.0000
  O   O10       1.0  0.74250  0.77562  0.40281  1.0000
  O   O11       1.0  0.25750  0.27562  0.09719  1.0000
  O   O12       1.0  0.74250  0.72438  0.59719  1.0000
  O   O13       1.0  0.25750  0.22438  0.90281  1.0000
  O   O14       1.0  0.25750  0.22438  0.59719  1.0000
  O   O15       1.0  0.74250  0.72438  0.90281  1.0000
  O   O16       1.0  0.25750  0.27562  0.40281  1.0000
  O   O17       1.0  0.38160  0.82795  0.14829  1.0000
  O   O18       1.0  0.38160  0.82795  0.35171  1.0000
  O   O19       1.0  0.61840  0.32795  0.14829  1.0000
  O   O20       1.0  0.38160  0.67205  0.64829  1.0000
  O   O21       1.0  0.61840  0.17205  0.85171  1.0000
  O   O22       1.0  0.61840  0.17205  0.64829  1.0000
  O   O23       1.0  0.38160  0.67205  0.85171  1.0000
  O   O24       1.0  0.61840  0.32795  0.35171  1.0000
  O   O25       1.0  0.26650  0.66075  0.13256  1.0000
  O   O26       1.0  0.26650  0.66075  0.36744  1.0000
  O   O27       1.0  0.73350  0.16075  0.13256  1.0000
  O   O28       1.0  0.26650  0.83925  0.63256  1.0000
  O   O29       1.0  0.73350  0.33925  0.86744  1.0000
  O   O30       1.0  0.73350  0.33925  0.63256  1.0000
  O   O31       1.0  0.26650  0.83925  0.86744  1.0000
  O   O32       1.0  0.73350  0.16075  0.36744  1.0000
  O   O33       1.0  0.18660  0.41480  0.20503  1.0000
  O   O34       1.0  0.18660  0.41480  0.29497  1.0000
  O   O35       1.0  0.81340  0.91480  0.20503  1.0000
  O   O36       1.0  0.18660  0.08520  0.70503  1.0000
  O   O37       1.0  0.81340  0.58520  0.79497  1.0000
  O   O38       1.0  0.81340  0.58520  0.70503  1.0000
  O   O39       1.0  0.18660  0.08520  0.79497  1.0000
  O   O40       1.0  0.81340  0.91480  0.29497  1.0000
  O   O41       1.0  0.53870  0.52810  0.20534  1.0000
  O   O42       1.0  0.53870  0.52810  0.29466  1.0000
  O   O43       1.0  0.46130  0.02810  0.20534  1.0000
  O   O44       1.0  0.53870  0.97190  0.70534  1.0000
  O   O45       1.0  0.46130  0.47190  0.79466  1.0000
  O   O46       1.0  0.46130  0.47190  0.70534  1.0000
  O   O47       1.0  0.53870  0.97190  0.79466  1.0000
  O   O48       1.0  0.46130  0.02810  0.29466  1.0000
  O   O49       1.0  0.57810  0.39929  0.04458  1.0000
  O   O50       1.0  0.57810  0.39929  0.45542  1.0000
  O   O51       1.0  0.42190  0.89929  0.04458  1.0000
  O   O52       1.0  0.57810  0.10071  0.54458  1.0000
  O   O53       1.0  0.42190  0.60071  0.95542  1.0000
  O   O54       1.0  0.42190  0.60071  0.54458  1.0000
  O   O55       1.0  0.57810  0.10071  0.95542  1.0000
  O   O56       1.0  0.42190  0.89929  0.45542  1.0000
  O   O57       1.0  0.72580  0.45290  0.96850  1.0000
  O   O58       1.0  0.72580  0.45290  0.53150  1.0000
  O   O59       1.0  0.27420  0.95290  0.96850  1.0000
  O   O60       1.0  0.72580  0.04710  0.46850  1.0000
  O   O61       1.0  0.27420  0.54710  0.03150  1.0000
  O   O62       1.0  0.27420  0.54710  0.46850  1.0000
  O   O63       1.0  0.72580  0.04710  0.03150  1.0000
  O   O64       1.0  0.27420  0.95290  0.53150  1.0000
  O   O65       1.0  0.98050  0.45870  0.10737  1.0000
  O   O66       1.0  0.98050  0.45870  0.39263  1.0000
  O   O67       1.0  0.01950  0.95870  0.10737  1.0000
  O   O68       1.0  0.98050  0.04130  0.60737  1.0000
  O   O69       1.0  0.01950  0.54130  0.89263  1.0000
  O   O70       1.0  0.01950  0.54130  0.60737  1.0000
  O   O71       1.0  0.98050  0.04130  0.89263  1.0000
  O   O72       1.0  0.01950  0.95870  0.39263  1.0000
  C   C1        1.0  0.61670  0.70090  0.10643  1.0000
  C   C2        1.0  0.61670  0.70090  0.39357  1.0000
  C   C3        1.0  0.38330  0.20090  0.10643  1.0000
  C   C4        1.0  0.61670  0.79910  0.60643  1.0000
  C   C5        1.0  0.38330  0.29910  0.89357  1.0000
  C   C6        1.0  0.38330  0.29910  0.60643  1.0000
  C   C7        1.0  0.61670  0.79910  0.89357  1.0000
  C   C8        1.0  0.38330  0.20090  0.39357  1.0000
  C   C9        1.0  0.40210  0.73260  0.13127  1.0000
  C   C10       1.0  0.40210  0.73260  0.36873  1.0000
  C   C11       1.0  0.59790  0.23260  0.13127  1.0000
  C   C12       1.0  0.40210  0.76740  0.63127  1.0000
  C   C13       1.0  0.59790  0.26740  0.86873  1.0000
  C   C14       1.0  0.59790  0.26740  0.63127  1.0000
  C   C15       1.0  0.40210  0.76740  0.86873  1.0000
  C   C16       1.0  0.59790  0.23260  0.36873  1.0000
  C   C17       1.0  0.26000  0.43830  0.25000  1.0000
  C   C18       1.0  0.74000  0.93830  0.25000  1.0000
  C   C19       1.0  0.26000  0.06170  0.75000  1.0000
  C   C20       1.0  0.74000  0.56170  0.75000  1.0000
  C   C21       1.0  0.46480  0.50440  0.25000  1.0000
  C   C22       1.0  0.53520  0.00440  0.25000  1.0000
  C   C23       1.0  0.46480  0.99560  0.75000  1.0000
  C   C24       1.0  0.53520  0.49560  0.75000  1.0000
  C   C25       1.0  0.58770  0.45730  0.00394  1.0000
  C   C26       1.0  0.58770  0.45730  0.49606  1.0000
  C   C27       1.0  0.41230  0.95730  0.00394  1.0000
  C   C28       1.0  0.58770  0.04270  0.50394  1.0000
  C   C29       1.0  0.41230  0.54270  0.99606  1.0000
  C   C30       1.0  0.41230  0.54270  0.50394  1.0000
  C   C31       1.0  0.58770  0.04270  0.99606  1.0000
  C   C32       1.0  0.41230  0.95730  0.49606  1.0000
  H   H1        1.0  0.90560  0.52360  0.10210  1.0000
  H   H2        1.0  0.90560  0.52360  0.39790  1.0000
  H   H3        1.0  0.09440  0.02360  0.10210  1.0000
  H   H4        1.0  0.90560  0.97640  0.60210  1.0000
  H   H5        1.0  0.09440  0.47640  0.89790  1.0000
  H   H6        1.0  0.09440  0.47640  0.60210  1.0000
  H   H7        1.0  0.90560  0.97640  0.89790  1.0000
  H   H8        1.0  0.09440  0.02360  0.39790  1.0000
  H   H9        1.0  0.90480  0.40610  0.12760  1.0000
  H   H10       1.0  0.90480  0.40610  0.37240  1.0000
  H   H11       1.0  0.09520  0.90610  0.12760  1.0000
  H   H12       1.0  0.90480  0.09390  0.62760  1.0000
  H   H13       1.0  0.09520  0.59390  0.87240  1.0000
  H   H14       1.0  0.09520  0.59390  0.62760  1.0000
  H   H15       1.0  0.90480  0.09390  0.87240  1.0000
  H   H16       1.0  0.09520  0.90610  0.37240  1.0000
