data_image0
_chemical_formula_structural       In24C72H24C24H24C48H24C24H24C48H24C24H24C48H24C24H24C48H24C24H24C48H24C24H24C72H24C24H24C48H24C24H24C48N16O192
_chemical_formula_sum              "In24 C672 H384 N16 O192"
_cell_length_a       41.212
_cell_length_b       41.212
_cell_length_c       41.212
_cell_angle_alpha    90
_cell_angle_beta     90
_cell_angle_gamma    90

_space_group_name_H-M_alt    "P 1"
_space_group_IT_number       1

loop_
  _space_group_symop_operation_xyz
  'x, y, z'

loop_
  _atom_site_type_symbol
  _atom_site_label
  _atom_site_symmetry_multiplicity
  _atom_site_fract_x
  _atom_site_fract_y
  _atom_site_fract_z
  _atom_site_occupancy
  In  In1       1.0  0.61170  0.53064  0.07697  1.0000
  In  In2       1.0  0.88830  0.46936  0.57697  1.0000
  In  In3       1.0  0.38830  0.03064  0.42303  1.0000
  In  In4       1.0  0.11170  0.96936  0.92303  1.0000
  In  In5       1.0  0.07697  0.61170  0.53064  1.0000
  In  In6       1.0  0.57697  0.88830  0.46936  1.0000
  In  In7       1.0  0.42303  0.38830  0.03064  1.0000
  In  In8       1.0  0.92303  0.11170  0.96936  1.0000
  In  In9       1.0  0.53064  0.07697  0.61170  1.0000
  In  In10      1.0  0.46936  0.57697  0.88830  1.0000
  In  In11      1.0  0.03064  0.42303  0.38830  1.0000
  In  In12      1.0  0.96936  0.92303  0.11170  1.0000
  In  In13      1.0  0.38830  0.46936  0.92303  1.0000
  In  In14      1.0  0.11170  0.53064  0.42303  1.0000
  In  In15      1.0  0.61170  0.96936  0.57697  1.0000
  In  In16      1.0  0.88830  0.03064  0.07697  1.0000
  In  In17      1.0  0.92303  0.38830  0.46936  1.0000
  In  In18      1.0  0.42303  0.11170  0.53064  1.0000
  In  In19      1.0  0.57697  0.61170  0.96936  1.0000
  In  In20      1.0  0.07697  0.88830  0.03064  1.0000
  In  In21      1.0  0.46936  0.92303  0.38830  1.0000
  In  In22      1.0  0.53064  0.42303  0.11170  1.0000
  In  In23      1.0  0.96936  0.57697  0.61170  1.0000
  In  In24      1.0  0.03064  0.07697  0.88830  1.0000
  C   C1        1.0  0.66330  0.49180  0.09640  1.0000
  C   C2        1.0  0.83670  0.50820  0.59640  1.0000
  C   C3        1.0  0.33670  0.99180  0.40360  1.0000
  C   C4        1.0  0.16330  0.00820  0.90360  1.0000
  C   C5        1.0  0.09640  0.66330  0.49180  1.0000
  C   C6        1.0  0.59640  0.83670  0.50820  1.0000
  C   C7        1.0  0.40360  0.33670  0.99180  1.0000
  C   C8        1.0  0.90360  0.16330  0.00820  1.0000
  C   C9        1.0  0.49180  0.09640  0.66330  1.0000
  C   C10       1.0  0.50820  0.59640  0.83670  1.0000
  C   C11       1.0  0.99180  0.40360  0.33670  1.0000
  C   C12       1.0  0.00820  0.90360  0.16330  1.0000
  C   C13       1.0  0.33670  0.50820  0.90360  1.0000
  C   C14       1.0  0.16330  0.49180  0.40360  1.0000
  C   C15       1.0  0.66330  0.00820  0.59640  1.0000
  C   C16       1.0  0.83670  0.99180  0.09640  1.0000
  C   C17       1.0  0.90360  0.33670  0.50820  1.0000
  C   C18       1.0  0.40360  0.16330  0.49180  1.0000
  C   C19       1.0  0.59640  0.66330  0.00820  1.0000
  C   C20       1.0  0.09640  0.83670  0.99180  1.0000
  C   C21       1.0  0.50820  0.90360  0.33670  1.0000
  C   C22       1.0  0.49180  0.40360  0.16330  1.0000
  C   C23       1.0  0.00820  0.59640  0.66330  1.0000
  C   C24       1.0  0.99180  0.09640  0.83670  1.0000
  C   C25       1.0  0.82540  0.37370  0.14000  1.0000
  C   C26       1.0  0.67460  0.62630  0.64000  1.0000
  C   C27       1.0  0.17460  0.87370  0.36000  1.0000
  C   C28       1.0  0.32540  0.12630  0.86000  1.0000
  C   C29       1.0  0.14000  0.82540  0.37370  1.0000
  C   C30       1.0  0.64000  0.67460  0.62630  1.0000
  C   C31       1.0  0.36000  0.17460  0.87370  1.0000
  C   C32       1.0  0.86000  0.32540  0.12630  1.0000
  C   C33       1.0  0.37370  0.14000  0.82540  1.0000
  C   C34       1.0  0.62630  0.64000  0.67460  1.0000
  C   C35       1.0  0.87370  0.36000  0.17460  1.0000
  C   C36       1.0  0.12630  0.86000  0.32540  1.0000
  C   C37       1.0  0.17460  0.62630  0.86000  1.0000
  C   C38       1.0  0.32540  0.37370  0.36000  1.0000
  C   C39       1.0  0.82540  0.12630  0.64000  1.0000
  C   C40       1.0  0.67460  0.87370  0.14000  1.0000
  C   C41       1.0  0.86000  0.17460  0.62630  1.0000
  C   C42       1.0  0.36000  0.32540  0.37370  1.0000
  C   C43       1.0  0.64000  0.82540  0.12630  1.0000
  C   C44       1.0  0.14000  0.67460  0.87370  1.0000
  C   C45       1.0  0.62630  0.86000  0.17460  1.0000
  C   C46       1.0  0.37370  0.36000  0.32540  1.0000
  C   C47       1.0  0.12630  0.64000  0.82540  1.0000
  C   C48       1.0  0.87370  0.14000  0.67460  1.0000
  C   C49       1.0  0.81820  0.38230  0.10810  1.0000
  C   C50       1.0  0.68180  0.61770  0.60810  1.0000
  C   C51       1.0  0.18180  0.88230  0.39190  1.0000
  C   C52       1.0  0.31820  0.11770  0.89190  1.0000
  C   C53       1.0  0.10810  0.81820  0.38230  1.0000
  C   C54       1.0  0.60810  0.68180  0.61770  1.0000
  C   C55       1.0  0.39190  0.18180  0.88230  1.0000
  C   C56       1.0  0.89190  0.31820  0.11770  1.0000
  C   C57       1.0  0.38230  0.10810  0.81820  1.0000
  C   C58       1.0  0.61770  0.60810  0.68180  1.0000
  C   C59       1.0  0.88230  0.39190  0.18180  1.0000
  C   C60       1.0  0.11770  0.89190  0.31820  1.0000
  C   C61       1.0  0.18180  0.61770  0.89190  1.0000
  C   C62       1.0  0.31820  0.38230  0.39190  1.0000
  C   C63       1.0  0.81820  0.11770  0.60810  1.0000
  C   C64       1.0  0.68180  0.88230  0.10810  1.0000
  C   C65       1.0  0.89190  0.18180  0.61770  1.0000
  C   C66       1.0  0.39190  0.31820  0.38230  1.0000
  C   C67       1.0  0.60810  0.81820  0.11770  1.0000
  C   C68       1.0  0.10810  0.68180  0.88230  1.0000
  C   C69       1.0  0.61770  0.89190  0.18180  1.0000
  C   C70       1.0  0.38230  0.39190  0.31820  1.0000
  C   C71       1.0  0.11770  0.60810  0.81820  1.0000
  C   C72       1.0  0.88230  0.10810  0.68180  1.0000
  H   H1        1.0  0.83155  0.37535  0.09130  1.0000
  H   H2        1.0  0.66845  0.62465  0.59130  1.0000
  H   H3        1.0  0.16845  0.87535  0.40870  1.0000
  H   H4        1.0  0.33155  0.12465  0.90870  1.0000
  H   H5        1.0  0.09130  0.83155  0.37535  1.0000
  H   H6        1.0  0.59130  0.66845  0.62465  1.0000
  H   H7        1.0  0.40870  0.16845  0.87535  1.0000
  H   H8        1.0  0.90870  0.33155  0.12465  1.0000
  H   H9        1.0  0.37535  0.09130  0.83155  1.0000
  H   H10       1.0  0.62465  0.59130  0.66845  1.0000
  H   H11       1.0  0.87535  0.40870  0.16845  1.0000
  H   H12       1.0  0.12465  0.90870  0.33155  1.0000
  H   H13       1.0  0.16845  0.62465  0.90870  1.0000
  H   H14       1.0  0.33155  0.37535  0.40870  1.0000
  H   H15       1.0  0.83155  0.12465  0.59130  1.0000
  H   H16       1.0  0.66845  0.87535  0.09130  1.0000
  H   H17       1.0  0.90870  0.16845  0.62465  1.0000
  H   H18       1.0  0.40870  0.33155  0.37535  1.0000
  H   H19       1.0  0.59130  0.83155  0.12465  1.0000
  H   H20       1.0  0.09130  0.66845  0.87535  1.0000
  H   H21       1.0  0.62465  0.90870  0.16845  1.0000
  H   H22       1.0  0.37535  0.40870  0.33155  1.0000
  H   H23       1.0  0.12465  0.59130  0.83155  1.0000
  H   H24       1.0  0.87535  0.09130  0.66845  1.0000
  C   C73       1.0  0.79120  0.40130  0.10150  1.0000
  C   C74       1.0  0.70880  0.59870  0.60150  1.0000
  C   C75       1.0  0.20880  0.90130  0.39850  1.0000
  C   C76       1.0  0.29120  0.09870  0.89850  1.0000
  C   C77       1.0  0.10150  0.79120  0.40130  1.0000
  C   C78       1.0  0.60150  0.70880  0.59870  1.0000
  C   C79       1.0  0.39850  0.20880  0.90130  1.0000
  C   C80       1.0  0.89850  0.29120  0.09870  1.0000
  C   C81       1.0  0.40130  0.10150  0.79120  1.0000
  C   C82       1.0  0.59870  0.60150  0.70880  1.0000
  C   C83       1.0  0.90130  0.39850  0.20880  1.0000
  C   C84       1.0  0.09870  0.89850  0.29120  1.0000
  C   C85       1.0  0.20880  0.59870  0.89850  1.0000
  C   C86       1.0  0.29120  0.40130  0.39850  1.0000
  C   C87       1.0  0.79120  0.09870  0.60150  1.0000
  C   C88       1.0  0.70880  0.90130  0.10150  1.0000
  C   C89       1.0  0.89850  0.20880  0.59870  1.0000
  C   C90       1.0  0.39850  0.29120  0.40130  1.0000
  C   C91       1.0  0.60150  0.79120  0.09870  1.0000
  C   C92       1.0  0.10150  0.70880  0.90130  1.0000
  C   C93       1.0  0.59870  0.89850  0.20880  1.0000
  C   C94       1.0  0.40130  0.39850  0.29120  1.0000
  C   C95       1.0  0.09870  0.60150  0.79120  1.0000
  C   C96       1.0  0.90130  0.10150  0.70880  1.0000
  H   H25       1.0  0.78641  0.40711  0.08023  1.0000
  H   H26       1.0  0.71359  0.59289  0.58023  1.0000
  H   H27       1.0  0.21359  0.90711  0.41977  1.0000
  H   H28       1.0  0.28641  0.09289  0.91977  1.0000
  H   H29       1.0  0.08023  0.78641  0.40711  1.0000
  H   H30       1.0  0.58023  0.71359  0.59289  1.0000
  H   H31       1.0  0.41977  0.21359  0.90711  1.0000
  H   H32       1.0  0.91977  0.28641  0.09289  1.0000
  H   H33       1.0  0.40711  0.08023  0.78641  1.0000
  H   H34       1.0  0.59289  0.58023  0.71359  1.0000
  H   H35       1.0  0.90711  0.41977  0.21359  1.0000
  H   H36       1.0  0.09289  0.91977  0.28641  1.0000
  H   H37       1.0  0.21359  0.59289  0.91977  1.0000
  H   H38       1.0  0.28641  0.40711  0.41977  1.0000
  H   H39       1.0  0.78641  0.09289  0.58023  1.0000
  H   H40       1.0  0.71359  0.90711  0.08023  1.0000
  H   H41       1.0  0.91977  0.21359  0.59289  1.0000
  H   H42       1.0  0.41977  0.28641  0.40711  1.0000
  H   H43       1.0  0.58023  0.78641  0.09289  1.0000
  H   H44       1.0  0.08023  0.71359  0.90711  1.0000
  H   H45       1.0  0.59289  0.91977  0.21359  1.0000
  H   H46       1.0  0.40711  0.41977  0.28641  1.0000
  H   H47       1.0  0.09289  0.58023  0.78641  1.0000
  H   H48       1.0  0.90711  0.08023  0.71359  1.0000
  C   C97       1.0  0.77130  0.41170  0.12670  1.0000
  C   C98       1.0  0.72870  0.58830  0.62670  1.0000
  C   C99       1.0  0.22870  0.91170  0.37330  1.0000
  C   C100      1.0  0.27130  0.08830  0.87330  1.0000
  C   C101      1.0  0.12670  0.77130  0.41170  1.0000
  C   C102      1.0  0.62670  0.72870  0.58830  1.0000
  C   C103      1.0  0.37330  0.22870  0.91170  1.0000
  C   C104      1.0  0.87330  0.27130  0.08830  1.0000
  C   C105      1.0  0.41170  0.12670  0.77130  1.0000
  C   C106      1.0  0.58830  0.62670  0.72870  1.0000
  C   C107      1.0  0.91170  0.37330  0.22870  1.0000
  C   C108      1.0  0.08830  0.87330  0.27130  1.0000
  C   C109      1.0  0.22870  0.58830  0.87330  1.0000
  C   C110      1.0  0.27130  0.41170  0.37330  1.0000
  C   C111      1.0  0.77130  0.08830  0.62670  1.0000
  C   C112      1.0  0.72870  0.91170  0.12670  1.0000
  C   C113      1.0  0.87330  0.22870  0.58830  1.0000
  C   C114      1.0  0.37330  0.27130  0.41170  1.0000
  C   C115      1.0  0.62670  0.77130  0.08830  1.0000
  C   C116      1.0  0.12670  0.72870  0.91170  1.0000
  C   C117      1.0  0.58830  0.87330  0.22870  1.0000
  C   C118      1.0  0.41170  0.37330  0.27130  1.0000
  C   C119      1.0  0.08830  0.62670  0.77130  1.0000
  C   C120      1.0  0.91170  0.12670  0.72870  1.0000
  C   C121      1.0  0.77850  0.40310  0.15850  1.0000
  C   C122      1.0  0.72150  0.59690  0.65850  1.0000
  C   C123      1.0  0.22150  0.90310  0.34150  1.0000
  C   C124      1.0  0.27850  0.09690  0.84150  1.0000
  C   C125      1.0  0.15850  0.77850  0.40310  1.0000
  C   C126      1.0  0.65850  0.72150  0.59690  1.0000
  C   C127      1.0  0.34150  0.22150  0.90310  1.0000
  C   C128      1.0  0.84150  0.27850  0.09690  1.0000
  C   C129      1.0  0.40310  0.15850  0.77850  1.0000
  C   C130      1.0  0.59690  0.65850  0.72150  1.0000
  C   C131      1.0  0.90310  0.34150  0.22150  1.0000
  C   C132      1.0  0.09690  0.84150  0.27850  1.0000
  C   C133      1.0  0.22150  0.59690  0.84150  1.0000
  C   C134      1.0  0.27850  0.40310  0.34150  1.0000
  C   C135      1.0  0.77850  0.09690  0.65850  1.0000
  C   C136      1.0  0.72150  0.90310  0.15850  1.0000
  C   C137      1.0  0.84150  0.22150  0.59690  1.0000
  C   C138      1.0  0.34150  0.27850  0.40310  1.0000
  C   C139      1.0  0.65850  0.77850  0.09690  1.0000
  C   C140      1.0  0.15850  0.72150  0.90310  1.0000
  C   C141      1.0  0.59690  0.84150  0.22150  1.0000
  C   C142      1.0  0.40310  0.34150  0.27850  1.0000
  C   C143      1.0  0.09690  0.65850  0.77850  1.0000
  C   C144      1.0  0.90310  0.15850  0.72150  1.0000
  H   H49       1.0  0.76514  0.41003  0.17534  1.0000
  H   H50       1.0  0.73486  0.58997  0.67534  1.0000
  H   H51       1.0  0.23486  0.91003  0.32466  1.0000
  H   H52       1.0  0.26514  0.08997  0.82466  1.0000
  H   H53       1.0  0.17534  0.76514  0.41003  1.0000
  H   H54       1.0  0.67534  0.73486  0.58997  1.0000
  H   H55       1.0  0.32466  0.23486  0.91003  1.0000
  H   H56       1.0  0.82466  0.26514  0.08997  1.0000
  H   H57       1.0  0.41003  0.17534  0.76514  1.0000
  H   H58       1.0  0.58997  0.67534  0.73486  1.0000
  H   H59       1.0  0.91003  0.32466  0.23486  1.0000
  H   H60       1.0  0.08997  0.82466  0.26514  1.0000
  H   H61       1.0  0.23486  0.58997  0.82466  1.0000
  H   H62       1.0  0.26514  0.41003  0.32466  1.0000
  H   H63       1.0  0.76514  0.08997  0.67534  1.0000
  H   H64       1.0  0.73486  0.91003  0.17534  1.0000
  H   H65       1.0  0.82466  0.23486  0.58997  1.0000
  H   H66       1.0  0.32466  0.26514  0.41003  1.0000
  H   H67       1.0  0.67534  0.76514  0.08997  1.0000
  H   H68       1.0  0.17534  0.73486  0.91003  1.0000
  H   H69       1.0  0.58997  0.82466  0.23486  1.0000
  H   H70       1.0  0.41003  0.32466  0.26514  1.0000
  H   H71       1.0  0.08997  0.67534  0.76514  1.0000
  H   H72       1.0  0.91003  0.17534  0.73486  1.0000
  C   C145      1.0  0.80550  0.38410  0.16510  1.0000
  C   C146      1.0  0.69450  0.61590  0.66510  1.0000
  C   C147      1.0  0.19450  0.88410  0.33490  1.0000
  C   C148      1.0  0.30550  0.11590  0.83490  1.0000
  C   C149      1.0  0.16510  0.80550  0.38410  1.0000
  C   C150      1.0  0.66510  0.69450  0.61590  1.0000
  C   C151      1.0  0.33490  0.19450  0.88410  1.0000
  C   C152      1.0  0.83490  0.30550  0.11590  1.0000
  C   C153      1.0  0.38410  0.16510  0.80550  1.0000
  C   C154      1.0  0.61590  0.66510  0.69450  1.0000
  C   C155      1.0  0.88410  0.33490  0.19450  1.0000
  C   C156      1.0  0.11590  0.83490  0.30550  1.0000
  C   C157      1.0  0.19450  0.61590  0.83490  1.0000
  C   C158      1.0  0.30550  0.38410  0.33490  1.0000
  C   C159      1.0  0.80550  0.11590  0.66510  1.0000
  C   C160      1.0  0.69450  0.88410  0.16510  1.0000
  C   C161      1.0  0.83490  0.19450  0.61590  1.0000
  C   C162      1.0  0.33490  0.30550  0.38410  1.0000
  C   C163      1.0  0.66510  0.80550  0.11590  1.0000
  C   C164      1.0  0.16510  0.69450  0.88410  1.0000
  C   C165      1.0  0.61590  0.83490  0.19450  1.0000
  C   C166      1.0  0.38410  0.33490  0.30550  1.0000
  C   C167      1.0  0.11590  0.66510  0.80550  1.0000
  C   C168      1.0  0.88410  0.16510  0.69450  1.0000
  H   H73       1.0  0.81028  0.37827  0.18641  1.0000
  H   H74       1.0  0.68972  0.62173  0.68641  1.0000
  H   H75       1.0  0.18972  0.87827  0.31359  1.0000
  H   H76       1.0  0.31028  0.12173  0.81359  1.0000
  H   H77       1.0  0.18641  0.81028  0.37827  1.0000
  H   H78       1.0  0.68641  0.68972  0.62173  1.0000
  H   H79       1.0  0.31359  0.18972  0.87827  1.0000
  H   H80       1.0  0.81359  0.31028  0.12173  1.0000
  H   H81       1.0  0.37827  0.18641  0.81028  1.0000
  H   H82       1.0  0.62173  0.68641  0.68972  1.0000
  H   H83       1.0  0.87827  0.31359  0.18972  1.0000
  H   H84       1.0  0.12173  0.81359  0.31028  1.0000
  H   H85       1.0  0.18972  0.62173  0.81359  1.0000
  H   H86       1.0  0.31028  0.37827  0.31359  1.0000
  H   H87       1.0  0.81028  0.12173  0.68641  1.0000
  H   H88       1.0  0.68972  0.87827  0.18641  1.0000
  H   H89       1.0  0.81359  0.18972  0.62173  1.0000
  H   H90       1.0  0.31359  0.31028  0.37827  1.0000
  H   H91       1.0  0.68641  0.81028  0.12173  1.0000
  H   H92       1.0  0.18641  0.68972  0.87827  1.0000
  H   H93       1.0  0.62173  0.81359  0.18972  1.0000
  H   H94       1.0  0.37827  0.31359  0.31028  1.0000
  H   H95       1.0  0.12173  0.68641  0.81028  1.0000
  H   H96       1.0  0.87827  0.18641  0.68972  1.0000
  C   C169      1.0  0.64960  0.61380  0.12380  1.0000
  C   C170      1.0  0.85040  0.38620  0.62380  1.0000
  C   C171      1.0  0.35040  0.11380  0.37620  1.0000
  C   C172      1.0  0.14960  0.88620  0.87620  1.0000
  C   C173      1.0  0.12380  0.64960  0.61380  1.0000
  C   C174      1.0  0.62380  0.85040  0.38620  1.0000
  C   C175      1.0  0.37620  0.35040  0.11380  1.0000
  C   C176      1.0  0.87620  0.14960  0.88620  1.0000
  C   C177      1.0  0.61380  0.12380  0.64960  1.0000
  C   C178      1.0  0.38620  0.62380  0.85040  1.0000
  C   C179      1.0  0.11380  0.37620  0.35040  1.0000
  C   C180      1.0  0.88620  0.87620  0.14960  1.0000
  C   C181      1.0  0.35040  0.38620  0.87620  1.0000
  C   C182      1.0  0.14960  0.61380  0.37620  1.0000
  C   C183      1.0  0.64960  0.88620  0.62380  1.0000
  C   C184      1.0  0.85040  0.11380  0.12380  1.0000
  C   C185      1.0  0.87620  0.35040  0.38620  1.0000
  C   C186      1.0  0.37620  0.14960  0.61380  1.0000
  C   C187      1.0  0.62380  0.64960  0.88620  1.0000
  C   C188      1.0  0.12380  0.85040  0.11380  1.0000
  C   C189      1.0  0.38620  0.87620  0.35040  1.0000
  C   C190      1.0  0.61380  0.37620  0.14960  1.0000
  C   C191      1.0  0.88620  0.62380  0.64960  1.0000
  C   C192      1.0  0.11380  0.12380  0.85040  1.0000
  C   C193      1.0  0.67150  0.63400  0.10800  1.0000
  C   C194      1.0  0.82850  0.36600  0.60800  1.0000
  C   C195      1.0  0.32850  0.13400  0.39200  1.0000
  C   C196      1.0  0.17150  0.86600  0.89200  1.0000
  C   C197      1.0  0.10800  0.67150  0.63400  1.0000
  C   C198      1.0  0.60800  0.82850  0.36600  1.0000
  C   C199      1.0  0.39200  0.32850  0.13400  1.0000
  C   C200      1.0  0.89200  0.17150  0.86600  1.0000
  C   C201      1.0  0.63400  0.10800  0.67150  1.0000
  C   C202      1.0  0.36600  0.60800  0.82850  1.0000
  C   C203      1.0  0.13400  0.39200  0.32850  1.0000
  C   C204      1.0  0.86600  0.89200  0.17150  1.0000
  C   C205      1.0  0.32850  0.36600  0.89200  1.0000
  C   C206      1.0  0.17150  0.63400  0.39200  1.0000
  C   C207      1.0  0.67150  0.86600  0.60800  1.0000
  C   C208      1.0  0.82850  0.13400  0.10800  1.0000
  C   C209      1.0  0.89200  0.32850  0.36600  1.0000
  C   C210      1.0  0.39200  0.17150  0.63400  1.0000
  C   C211      1.0  0.60800  0.67150  0.86600  1.0000
  C   C212      1.0  0.10800  0.82850  0.13400  1.0000
  C   C213      1.0  0.36600  0.89200  0.32850  1.0000
  C   C214      1.0  0.63400  0.39200  0.17150  1.0000
  C   C215      1.0  0.86600  0.60800  0.67150  1.0000
  C   C216      1.0  0.13400  0.10800  0.82850  1.0000
  H   H97       1.0  0.67759  0.62959  0.08670  1.0000
  H   H98       1.0  0.82241  0.37041  0.58670  1.0000
  H   H99       1.0  0.32241  0.12959  0.41330  1.0000
  H   H100      1.0  0.17759  0.87041  0.91330  1.0000
  H   H101      1.0  0.08670  0.67759  0.62959  1.0000
  H   H102      1.0  0.58670  0.82241  0.37041  1.0000
  H   H103      1.0  0.41330  0.32241  0.12959  1.0000
  H   H104      1.0  0.91330  0.17759  0.87041  1.0000
  H   H105      1.0  0.62959  0.08670  0.67759  1.0000
  H   H106      1.0  0.37041  0.58670  0.82241  1.0000
  H   H107      1.0  0.12959  0.41330  0.32241  1.0000
  H   H108      1.0  0.87041  0.91330  0.17759  1.0000
  H   H109      1.0  0.32241  0.37041  0.91330  1.0000
  H   H110      1.0  0.17759  0.62959  0.41330  1.0000
  H   H111      1.0  0.67759  0.87041  0.58670  1.0000
  H   H112      1.0  0.82241  0.12959  0.08670  1.0000
  H   H113      1.0  0.91330  0.32241  0.37041  1.0000
  H   H114      1.0  0.41330  0.17759  0.62959  1.0000
  H   H115      1.0  0.58670  0.67759  0.87041  1.0000
  H   H116      1.0  0.08670  0.82241  0.12959  1.0000
  H   H117      1.0  0.37041  0.91330  0.32241  1.0000
  H   H118      1.0  0.62959  0.41330  0.17759  1.0000
  H   H119      1.0  0.87041  0.58670  0.67759  1.0000
  H   H120      1.0  0.12959  0.08670  0.82241  1.0000
  C   C217      1.0  0.68420  0.66090  0.12390  1.0000
  C   C218      1.0  0.81580  0.33910  0.62390  1.0000
  C   C219      1.0  0.31580  0.16090  0.37610  1.0000
  C   C220      1.0  0.18420  0.83910  0.87610  1.0000
  C   C221      1.0  0.12390  0.68420  0.66090  1.0000
  C   C222      1.0  0.62390  0.81580  0.33910  1.0000
  C   C223      1.0  0.37610  0.31580  0.16090  1.0000
  C   C224      1.0  0.87610  0.18420  0.83910  1.0000
  C   C225      1.0  0.66090  0.12390  0.68420  1.0000
  C   C226      1.0  0.33910  0.62390  0.81580  1.0000
  C   C227      1.0  0.16090  0.37610  0.31580  1.0000
  C   C228      1.0  0.83910  0.87610  0.18420  1.0000
  C   C229      1.0  0.31580  0.33910  0.87610  1.0000
  C   C230      1.0  0.18420  0.66090  0.37610  1.0000
  C   C231      1.0  0.68420  0.83910  0.62390  1.0000
  C   C232      1.0  0.81580  0.16090  0.12390  1.0000
  C   C233      1.0  0.87610  0.31580  0.33910  1.0000
  C   C234      1.0  0.37610  0.18420  0.66090  1.0000
  C   C235      1.0  0.62390  0.68420  0.83910  1.0000
  C   C236      1.0  0.12390  0.81580  0.16090  1.0000
  C   C237      1.0  0.33910  0.87610  0.31580  1.0000
  C   C238      1.0  0.66090  0.37610  0.18420  1.0000
  C   C239      1.0  0.83910  0.62390  0.68420  1.0000
  C   C240      1.0  0.16090  0.12390  0.81580  1.0000
  H   H121      1.0  0.69883  0.67439  0.11335  1.0000
  H   H122      1.0  0.80117  0.32561  0.61335  1.0000
  H   H123      1.0  0.30117  0.17439  0.38665  1.0000
  H   H124      1.0  0.19883  0.82561  0.88665  1.0000
  H   H125      1.0  0.11335  0.69883  0.67439  1.0000
  H   H126      1.0  0.61335  0.80117  0.32561  1.0000
  H   H127      1.0  0.38665  0.30117  0.17439  1.0000
  H   H128      1.0  0.88665  0.19883  0.82561  1.0000
  H   H129      1.0  0.67439  0.11335  0.69883  1.0000
  H   H130      1.0  0.32561  0.61335  0.80117  1.0000
  H   H131      1.0  0.17439  0.38665  0.30117  1.0000
  H   H132      1.0  0.82561  0.88665  0.19883  1.0000
  H   H133      1.0  0.30117  0.32561  0.88665  1.0000
  H   H134      1.0  0.19883  0.67439  0.38665  1.0000
  H   H135      1.0  0.69883  0.82561  0.61335  1.0000
  H   H136      1.0  0.80117  0.17439  0.11335  1.0000
  H   H137      1.0  0.88665  0.30117  0.32561  1.0000
  H   H138      1.0  0.38665  0.19883  0.67439  1.0000
  H   H139      1.0  0.61335  0.69883  0.82561  1.0000
  H   H140      1.0  0.11335  0.80117  0.17439  1.0000
  H   H141      1.0  0.32561  0.88665  0.30117  1.0000
  H   H142      1.0  0.67439  0.38665  0.19883  1.0000
  H   H143      1.0  0.82561  0.61335  0.69883  1.0000
  H   H144      1.0  0.17439  0.11335  0.80117  1.0000
  C   C241      1.0  0.67510  0.66750  0.15570  1.0000
  C   C242      1.0  0.82490  0.33250  0.65570  1.0000
  C   C243      1.0  0.32490  0.16750  0.34430  1.0000
  C   C244      1.0  0.17510  0.83250  0.84430  1.0000
  C   C245      1.0  0.15570  0.67510  0.66750  1.0000
  C   C246      1.0  0.65570  0.82490  0.33250  1.0000
  C   C247      1.0  0.34430  0.32490  0.16750  1.0000
  C   C248      1.0  0.84430  0.17510  0.83250  1.0000
  C   C249      1.0  0.66750  0.15570  0.67510  1.0000
  C   C250      1.0  0.33250  0.65570  0.82490  1.0000
  C   C251      1.0  0.16750  0.34430  0.32490  1.0000
  C   C252      1.0  0.83250  0.84430  0.17510  1.0000
  C   C253      1.0  0.32490  0.33250  0.84430  1.0000
  C   C254      1.0  0.17510  0.66750  0.34430  1.0000
  C   C255      1.0  0.67510  0.83250  0.65570  1.0000
  C   C256      1.0  0.82490  0.16750  0.15570  1.0000
  C   C257      1.0  0.84430  0.32490  0.33250  1.0000
  C   C258      1.0  0.34430  0.17510  0.66750  1.0000
  C   C259      1.0  0.65570  0.67510  0.83250  1.0000
  C   C260      1.0  0.15570  0.82490  0.16750  1.0000
  C   C261      1.0  0.33250  0.84430  0.32490  1.0000
  C   C262      1.0  0.66750  0.34430  0.17510  1.0000
  C   C263      1.0  0.83250  0.65570  0.67510  1.0000
  C   C264      1.0  0.16750  0.15570  0.82490  1.0000
  C   C265      1.0  0.65320  0.64730  0.17150  1.0000
  C   C266      1.0  0.84680  0.35270  0.67150  1.0000
  C   C267      1.0  0.34680  0.14730  0.32850  1.0000
  C   C268      1.0  0.15320  0.85270  0.82850  1.0000
  C   C269      1.0  0.17150  0.65320  0.64730  1.0000
  C   C270      1.0  0.67150  0.84680  0.35270  1.0000
  C   C271      1.0  0.32850  0.34680  0.14730  1.0000
  C   C272      1.0  0.82850  0.15320  0.85270  1.0000
  C   C273      1.0  0.64730  0.17150  0.65320  1.0000
  C   C274      1.0  0.35270  0.67150  0.84680  1.0000
  C   C275      1.0  0.14730  0.32850  0.34680  1.0000
  C   C276      1.0  0.85270  0.82850  0.15320  1.0000
  C   C277      1.0  0.34680  0.35270  0.82850  1.0000
  C   C278      1.0  0.15320  0.64730  0.32850  1.0000
  C   C279      1.0  0.65320  0.85270  0.67150  1.0000
  C   C280      1.0  0.84680  0.14730  0.17150  1.0000
  C   C281      1.0  0.82850  0.34680  0.35270  1.0000
  C   C282      1.0  0.32850  0.15320  0.64730  1.0000
  C   C283      1.0  0.67150  0.65320  0.85270  1.0000
  C   C284      1.0  0.17150  0.84680  0.14730  1.0000
  C   C285      1.0  0.35270  0.82850  0.34680  1.0000
  C   C286      1.0  0.64730  0.32850  0.15320  1.0000
  C   C287      1.0  0.85270  0.67150  0.65320  1.0000
  C   C288      1.0  0.14730  0.17150  0.84680  1.0000
  H   H145      1.0  0.64706  0.65170  0.19279  1.0000
  H   H146      1.0  0.85294  0.34830  0.69279  1.0000
  H   H147      1.0  0.35294  0.15170  0.30721  1.0000
  H   H148      1.0  0.14706  0.84830  0.80721  1.0000
  H   H149      1.0  0.19279  0.64706  0.65170  1.0000
  H   H150      1.0  0.69279  0.85294  0.34830  1.0000
  H   H151      1.0  0.30721  0.35294  0.15170  1.0000
  H   H152      1.0  0.80721  0.14706  0.84830  1.0000
  H   H153      1.0  0.65170  0.19279  0.64706  1.0000
  H   H154      1.0  0.34830  0.69279  0.85294  1.0000
  H   H155      1.0  0.15170  0.30721  0.35294  1.0000
  H   H156      1.0  0.84830  0.80721  0.14706  1.0000
  H   H157      1.0  0.35294  0.34830  0.80721  1.0000
  H   H158      1.0  0.14706  0.65170  0.30721  1.0000
  H   H159      1.0  0.64706  0.84830  0.69279  1.0000
  H   H160      1.0  0.85294  0.15170  0.19279  1.0000
  H   H161      1.0  0.80721  0.35294  0.34830  1.0000
  H   H162      1.0  0.30721  0.14706  0.65170  1.0000
  H   H163      1.0  0.69279  0.64706  0.84830  1.0000
  H   H164      1.0  0.19279  0.85294  0.15170  1.0000
  H   H165      1.0  0.34830  0.80721  0.35294  1.0000
  H   H166      1.0  0.65170  0.30721  0.14706  1.0000
  H   H167      1.0  0.84830  0.69279  0.64706  1.0000
  H   H168      1.0  0.15170  0.19279  0.85294  1.0000
  C   C289      1.0  0.64040  0.62040  0.15560  1.0000
  C   C290      1.0  0.85960  0.37960  0.65560  1.0000
  C   C291      1.0  0.35960  0.12040  0.34440  1.0000
  C   C292      1.0  0.14040  0.87960  0.84440  1.0000
  C   C293      1.0  0.15560  0.64040  0.62040  1.0000
  C   C294      1.0  0.65560  0.85960  0.37960  1.0000
  C   C295      1.0  0.34440  0.35960  0.12040  1.0000
  C   C296      1.0  0.84440  0.14040  0.87960  1.0000
  C   C297      1.0  0.62040  0.15560  0.64040  1.0000
  C   C298      1.0  0.37960  0.65560  0.85960  1.0000
  C   C299      1.0  0.12040  0.34440  0.35960  1.0000
  C   C300      1.0  0.87960  0.84440  0.14040  1.0000
  C   C301      1.0  0.35960  0.37960  0.84440  1.0000
  C   C302      1.0  0.14040  0.62040  0.34440  1.0000
  C   C303      1.0  0.64040  0.87960  0.65560  1.0000
  C   C304      1.0  0.85960  0.12040  0.15560  1.0000
  C   C305      1.0  0.84440  0.35960  0.37960  1.0000
  C   C306      1.0  0.34440  0.14040  0.62040  1.0000
  C   C307      1.0  0.65560  0.64040  0.87960  1.0000
  C   C308      1.0  0.15560  0.85960  0.12040  1.0000
  C   C309      1.0  0.37960  0.84440  0.35960  1.0000
  C   C310      1.0  0.62040  0.34440  0.14040  1.0000
  C   C311      1.0  0.87960  0.65560  0.64040  1.0000
  C   C312      1.0  0.12040  0.15560  0.85960  1.0000
  H   H169      1.0  0.62581  0.60689  0.16615  1.0000
  H   H170      1.0  0.87419  0.39311  0.66615  1.0000
  H   H171      1.0  0.37419  0.10689  0.33385  1.0000
  H   H172      1.0  0.12581  0.89311  0.83385  1.0000
  H   H173      1.0  0.16615  0.62581  0.60689  1.0000
  H   H174      1.0  0.66615  0.87419  0.39311  1.0000
  H   H175      1.0  0.33385  0.37419  0.10689  1.0000
  H   H176      1.0  0.83385  0.12581  0.89311  1.0000
  H   H177      1.0  0.60689  0.16615  0.62581  1.0000
  H   H178      1.0  0.39311  0.66615  0.87419  1.0000
  H   H179      1.0  0.10689  0.33385  0.37419  1.0000
  H   H180      1.0  0.89311  0.83385  0.12581  1.0000
  H   H181      1.0  0.37419  0.39311  0.83385  1.0000
  H   H182      1.0  0.12581  0.60689  0.33385  1.0000
  H   H183      1.0  0.62581  0.89311  0.66615  1.0000
  H   H184      1.0  0.87419  0.10689  0.16615  1.0000
  H   H185      1.0  0.83385  0.37419  0.39311  1.0000
  H   H186      1.0  0.33385  0.12581  0.60689  1.0000
  H   H187      1.0  0.66615  0.62581  0.89311  1.0000
  H   H188      1.0  0.16615  0.87419  0.10689  1.0000
  H   H189      1.0  0.39311  0.83385  0.37419  1.0000
  H   H190      1.0  0.60689  0.33385  0.12581  1.0000
  H   H191      1.0  0.89311  0.66615  0.62581  1.0000
  H   H192      1.0  0.10689  0.16615  0.87419  1.0000
  C   C313      1.0  0.74390  0.43250  0.11750  1.0000
  C   C314      1.0  0.75610  0.56750  0.61750  1.0000
  C   C315      1.0  0.25610  0.93250  0.38250  1.0000
  C   C316      1.0  0.24390  0.06750  0.88250  1.0000
  C   C317      1.0  0.11750  0.74390  0.43250  1.0000
  C   C318      1.0  0.61750  0.75610  0.56750  1.0000
  C   C319      1.0  0.38250  0.25610  0.93250  1.0000
  C   C320      1.0  0.88250  0.24390  0.06750  1.0000
  C   C321      1.0  0.43250  0.11750  0.74390  1.0000
  C   C322      1.0  0.56750  0.61750  0.75610  1.0000
  C   C323      1.0  0.93250  0.38250  0.25610  1.0000
  C   C324      1.0  0.06750  0.88250  0.24390  1.0000
  C   C325      1.0  0.25610  0.56750  0.88250  1.0000
  C   C326      1.0  0.24390  0.43250  0.38250  1.0000
  C   C327      1.0  0.74390  0.06750  0.61750  1.0000
  C   C328      1.0  0.75610  0.93250  0.11750  1.0000
  C   C329      1.0  0.88250  0.25610  0.56750  1.0000
  C   C330      1.0  0.38250  0.24390  0.43250  1.0000
  C   C331      1.0  0.61750  0.74390  0.06750  1.0000
  C   C332      1.0  0.11750  0.75610  0.93250  1.0000
  C   C333      1.0  0.56750  0.88250  0.25610  1.0000
  C   C334      1.0  0.43250  0.38250  0.24390  1.0000
  C   C335      1.0  0.06750  0.61750  0.74390  1.0000
  C   C336      1.0  0.93250  0.11750  0.75610  1.0000
  C   C337      1.0  0.74280  0.45090  0.08920  1.0000
  C   C338      1.0  0.75720  0.54910  0.58920  1.0000
  C   C339      1.0  0.25720  0.95090  0.41080  1.0000
  C   C340      1.0  0.24280  0.04910  0.91080  1.0000
  C   C341      1.0  0.08920  0.74280  0.45090  1.0000
  C   C342      1.0  0.58920  0.75720  0.54910  1.0000
  C   C343      1.0  0.41080  0.25720  0.95090  1.0000
  C   C344      1.0  0.91080  0.24280  0.04910  1.0000
  C   C345      1.0  0.45090  0.08920  0.74280  1.0000
  C   C346      1.0  0.54910  0.58920  0.75720  1.0000
  C   C347      1.0  0.95090  0.41080  0.25720  1.0000
  C   C348      1.0  0.04910  0.91080  0.24280  1.0000
  C   C349      1.0  0.25720  0.54910  0.91080  1.0000
  C   C350      1.0  0.24280  0.45090  0.41080  1.0000
  C   C351      1.0  0.74280  0.04910  0.58920  1.0000
  C   C352      1.0  0.75720  0.95090  0.08920  1.0000
  C   C353      1.0  0.91080  0.25720  0.54910  1.0000
  C   C354      1.0  0.41080  0.24280  0.45090  1.0000
  C   C355      1.0  0.58920  0.74280  0.04910  1.0000
  C   C356      1.0  0.08920  0.75720  0.95090  1.0000
  C   C357      1.0  0.54910  0.91080  0.25720  1.0000
  C   C358      1.0  0.45090  0.41080  0.24280  1.0000
  C   C359      1.0  0.04910  0.58920  0.74280  1.0000
  C   C360      1.0  0.95090  0.08920  0.75720  1.0000
  H   H193      1.0  0.76003  0.45036  0.07473  1.0000
  H   H194      1.0  0.73997  0.54964  0.57473  1.0000
  H   H195      1.0  0.23997  0.95036  0.42527  1.0000
  H   H196      1.0  0.26003  0.04964  0.92527  1.0000
  H   H197      1.0  0.07473  0.76003  0.45036  1.0000
  H   H198      1.0  0.57473  0.73997  0.54964  1.0000
  H   H199      1.0  0.42527  0.23997  0.95036  1.0000
  H   H200      1.0  0.92527  0.26003  0.04964  1.0000
  H   H201      1.0  0.45036  0.07473  0.76003  1.0000
  H   H202      1.0  0.54964  0.57473  0.73997  1.0000
  H   H203      1.0  0.95036  0.42527  0.23997  1.0000
  H   H204      1.0  0.04964  0.92527  0.26003  1.0000
  H   H205      1.0  0.23997  0.54964  0.92527  1.0000
  H   H206      1.0  0.26003  0.45036  0.42527  1.0000
  H   H207      1.0  0.76003  0.04964  0.57473  1.0000
  H   H208      1.0  0.73997  0.95036  0.07473  1.0000
  H   H209      1.0  0.92527  0.23997  0.54964  1.0000
  H   H210      1.0  0.42527  0.26003  0.45036  1.0000
  H   H211      1.0  0.57473  0.76003  0.04964  1.0000
  H   H212      1.0  0.07473  0.73997  0.95036  1.0000
  H   H213      1.0  0.54964  0.92527  0.23997  1.0000
  H   H214      1.0  0.45036  0.42527  0.26003  1.0000
  H   H215      1.0  0.04964  0.57473  0.76003  1.0000
  H   H216      1.0  0.95036  0.07473  0.73997  1.0000
  C   C361      1.0  0.71580  0.47010  0.08270  1.0000
  C   C362      1.0  0.78420  0.52990  0.58270  1.0000
  C   C363      1.0  0.28420  0.97010  0.41730  1.0000
  C   C364      1.0  0.21580  0.02990  0.91730  1.0000
  C   C365      1.0  0.08270  0.71580  0.47010  1.0000
  C   C366      1.0  0.58270  0.78420  0.52990  1.0000
  C   C367      1.0  0.41730  0.28420  0.97010  1.0000
  C   C368      1.0  0.91730  0.21580  0.02990  1.0000
  C   C369      1.0  0.47010  0.08270  0.71580  1.0000
  C   C370      1.0  0.52990  0.58270  0.78420  1.0000
  C   C371      1.0  0.97010  0.41730  0.28420  1.0000
  C   C372      1.0  0.02990  0.91730  0.21580  1.0000
  C   C373      1.0  0.28420  0.52990  0.91730  1.0000
  C   C374      1.0  0.21580  0.47010  0.41730  1.0000
  C   C375      1.0  0.71580  0.02990  0.58270  1.0000
  C   C376      1.0  0.78420  0.97010  0.08270  1.0000
  C   C377      1.0  0.91730  0.28420  0.52990  1.0000
  C   C378      1.0  0.41730  0.21580  0.47010  1.0000
  C   C379      1.0  0.58270  0.71580  0.02990  1.0000
  C   C380      1.0  0.08270  0.78420  0.97010  1.0000
  C   C381      1.0  0.52990  0.91730  0.28420  1.0000
  C   C382      1.0  0.47010  0.41730  0.21580  1.0000
  C   C383      1.0  0.02990  0.58270  0.71580  1.0000
  C   C384      1.0  0.97010  0.08270  0.78420  1.0000
  H   H217      1.0  0.71506  0.48240  0.06377  1.0000
  H   H218      1.0  0.78494  0.51760  0.56377  1.0000
  H   H219      1.0  0.28494  0.98240  0.43623  1.0000
  H   H220      1.0  0.21506  0.01760  0.93623  1.0000
  H   H221      1.0  0.06377  0.71506  0.48240  1.0000
  H   H222      1.0  0.56377  0.78494  0.51760  1.0000
  H   H223      1.0  0.43623  0.28494  0.98240  1.0000
  H   H224      1.0  0.93623  0.21506  0.01760  1.0000
  H   H225      1.0  0.48240  0.06377  0.71506  1.0000
  H   H226      1.0  0.51760  0.56377  0.78494  1.0000
  H   H227      1.0  0.98240  0.43623  0.28494  1.0000
  H   H228      1.0  0.01760  0.93623  0.21506  1.0000
  H   H229      1.0  0.28494  0.51760  0.93623  1.0000
  H   H230      1.0  0.21506  0.48240  0.43623  1.0000
  H   H231      1.0  0.71506  0.01760  0.56377  1.0000
  H   H232      1.0  0.78494  0.98240  0.06377  1.0000
  H   H233      1.0  0.93623  0.28494  0.51760  1.0000
  H   H234      1.0  0.43623  0.21506  0.48240  1.0000
  H   H235      1.0  0.56377  0.71506  0.01760  1.0000
  H   H236      1.0  0.06377  0.78494  0.98240  1.0000
  H   H237      1.0  0.51760  0.93623  0.28494  1.0000
  H   H238      1.0  0.48240  0.43623  0.21506  1.0000
  H   H239      1.0  0.01760  0.56377  0.71506  1.0000
  H   H240      1.0  0.98240  0.06377  0.78494  1.0000
  C   C385      1.0  0.69000  0.47090  0.10440  1.0000
  C   C386      1.0  0.81000  0.52910  0.60440  1.0000
  C   C387      1.0  0.31000  0.97090  0.39560  1.0000
  C   C388      1.0  0.19000  0.02910  0.89560  1.0000
  C   C389      1.0  0.10440  0.69000  0.47090  1.0000
  C   C390      1.0  0.60440  0.81000  0.52910  1.0000
  C   C391      1.0  0.39560  0.31000  0.97090  1.0000
  C   C392      1.0  0.89560  0.19000  0.02910  1.0000
  C   C393      1.0  0.47090  0.10440  0.69000  1.0000
  C   C394      1.0  0.52910  0.60440  0.81000  1.0000
  C   C395      1.0  0.97090  0.39560  0.31000  1.0000
  C   C396      1.0  0.02910  0.89560  0.19000  1.0000
  C   C397      1.0  0.31000  0.52910  0.89560  1.0000
  C   C398      1.0  0.19000  0.47090  0.39560  1.0000
  C   C399      1.0  0.69000  0.02910  0.60440  1.0000
  C   C400      1.0  0.81000  0.97090  0.10440  1.0000
  C   C401      1.0  0.89560  0.31000  0.52910  1.0000
  C   C402      1.0  0.39560  0.19000  0.47090  1.0000
  C   C403      1.0  0.60440  0.69000  0.02910  1.0000
  C   C404      1.0  0.10440  0.81000  0.97090  1.0000
  C   C405      1.0  0.52910  0.89560  0.31000  1.0000
  C   C406      1.0  0.47090  0.39560  0.19000  1.0000
  C   C407      1.0  0.02910  0.60440  0.69000  1.0000
  C   C408      1.0  0.97090  0.10440  0.81000  1.0000
  C   C409      1.0  0.69120  0.45260  0.13260  1.0000
  C   C410      1.0  0.80880  0.54740  0.63260  1.0000
  C   C411      1.0  0.30880  0.95260  0.36740  1.0000
  C   C412      1.0  0.19120  0.04740  0.86740  1.0000
  C   C413      1.0  0.13260  0.69120  0.45260  1.0000
  C   C414      1.0  0.63260  0.80880  0.54740  1.0000
  C   C415      1.0  0.36740  0.30880  0.95260  1.0000
  C   C416      1.0  0.86740  0.19120  0.04740  1.0000
  C   C417      1.0  0.45260  0.13260  0.69120  1.0000
  C   C418      1.0  0.54740  0.63260  0.80880  1.0000
  C   C419      1.0  0.95260  0.36740  0.30880  1.0000
  C   C420      1.0  0.04740  0.86740  0.19120  1.0000
  C   C421      1.0  0.30880  0.54740  0.86740  1.0000
  C   C422      1.0  0.19120  0.45260  0.36740  1.0000
  C   C423      1.0  0.69120  0.04740  0.63260  1.0000
  C   C424      1.0  0.80880  0.95260  0.13260  1.0000
  C   C425      1.0  0.86740  0.30880  0.54740  1.0000
  C   C426      1.0  0.36740  0.19120  0.45260  1.0000
  C   C427      1.0  0.63260  0.69120  0.04740  1.0000
  C   C428      1.0  0.13260  0.80880  0.95260  1.0000
  C   C429      1.0  0.54740  0.86740  0.30880  1.0000
  C   C430      1.0  0.45260  0.36740  0.19120  1.0000
  C   C431      1.0  0.04740  0.63260  0.69120  1.0000
  C   C432      1.0  0.95260  0.13260  0.80880  1.0000
  H   H241      1.0  0.67388  0.45312  0.14716  1.0000
  H   H242      1.0  0.82612  0.54688  0.64716  1.0000
  H   H243      1.0  0.32612  0.95312  0.35284  1.0000
  H   H244      1.0  0.17388  0.04688  0.85284  1.0000
  H   H245      1.0  0.14716  0.67388  0.45312  1.0000
  H   H246      1.0  0.64716  0.82612  0.54688  1.0000
  H   H247      1.0  0.35284  0.32612  0.95312  1.0000
  H   H248      1.0  0.85284  0.17388  0.04688  1.0000
  H   H249      1.0  0.45312  0.14716  0.67388  1.0000
  H   H250      1.0  0.54688  0.64716  0.82612  1.0000
  H   H251      1.0  0.95312  0.35284  0.32612  1.0000
  H   H252      1.0  0.04688  0.85284  0.17388  1.0000
  H   H253      1.0  0.32612  0.54688  0.85284  1.0000
  H   H254      1.0  0.17388  0.45312  0.35284  1.0000
  H   H255      1.0  0.67388  0.04688  0.64716  1.0000
  H   H256      1.0  0.82612  0.95312  0.14716  1.0000
  H   H257      1.0  0.85284  0.32612  0.54688  1.0000
  H   H258      1.0  0.35284  0.17388  0.45312  1.0000
  H   H259      1.0  0.64716  0.67388  0.04688  1.0000
  H   H260      1.0  0.14716  0.82612  0.95312  1.0000
  H   H261      1.0  0.54688  0.85284  0.32612  1.0000
  H   H262      1.0  0.45312  0.35284  0.17388  1.0000
  H   H263      1.0  0.04688  0.64716  0.67388  1.0000
  H   H264      1.0  0.95312  0.14716  0.82612  1.0000
  C   C433      1.0  0.71810  0.43340  0.13920  1.0000
  C   C434      1.0  0.78190  0.56660  0.63920  1.0000
  C   C435      1.0  0.28190  0.93340  0.36080  1.0000
  C   C436      1.0  0.21810  0.06660  0.86080  1.0000
  C   C437      1.0  0.13920  0.71810  0.43340  1.0000
  C   C438      1.0  0.63920  0.78190  0.56660  1.0000
  C   C439      1.0  0.36080  0.28190  0.93340  1.0000
  C   C440      1.0  0.86080  0.21810  0.06660  1.0000
  C   C441      1.0  0.43340  0.13920  0.71810  1.0000
  C   C442      1.0  0.56660  0.63920  0.78190  1.0000
  C   C443      1.0  0.93340  0.36080  0.28190  1.0000
  C   C444      1.0  0.06660  0.86080  0.21810  1.0000
  C   C445      1.0  0.28190  0.56660  0.86080  1.0000
  C   C446      1.0  0.21810  0.43340  0.36080  1.0000
  C   C447      1.0  0.71810  0.06660  0.63920  1.0000
  C   C448      1.0  0.78190  0.93340  0.13920  1.0000
  C   C449      1.0  0.86080  0.28190  0.56660  1.0000
  C   C450      1.0  0.36080  0.21810  0.43340  1.0000
  C   C451      1.0  0.63920  0.71810  0.06660  1.0000
  C   C452      1.0  0.13920  0.78190  0.93340  1.0000
  C   C453      1.0  0.56660  0.86080  0.28190  1.0000
  C   C454      1.0  0.43340  0.36080  0.21810  1.0000
  C   C455      1.0  0.06660  0.63920  0.71810  1.0000
  C   C456      1.0  0.93340  0.13920  0.78190  1.0000
  H   H265      1.0  0.71885  0.42108  0.15812  1.0000
  H   H266      1.0  0.78115  0.57892  0.65812  1.0000
  H   H267      1.0  0.28115  0.92108  0.34188  1.0000
  H   H268      1.0  0.21885  0.07892  0.84188  1.0000
  H   H269      1.0  0.15812  0.71885  0.42108  1.0000
  H   H270      1.0  0.65812  0.78115  0.57892  1.0000
  H   H271      1.0  0.34188  0.28115  0.92108  1.0000
  H   H272      1.0  0.84188  0.21885  0.07892  1.0000
  H   H273      1.0  0.42108  0.15812  0.71885  1.0000
  H   H274      1.0  0.57892  0.65812  0.78115  1.0000
  H   H275      1.0  0.92108  0.34188  0.28115  1.0000
  H   H276      1.0  0.07892  0.84188  0.21885  1.0000
  H   H277      1.0  0.28115  0.57892  0.84188  1.0000
  H   H278      1.0  0.21885  0.42108  0.34188  1.0000
  H   H279      1.0  0.71885  0.07892  0.65812  1.0000
  H   H280      1.0  0.78115  0.92108  0.15812  1.0000
  H   H281      1.0  0.84188  0.28115  0.57892  1.0000
  H   H282      1.0  0.34188  0.21885  0.42108  1.0000
  H   H283      1.0  0.65812  0.71885  0.07892  1.0000
  H   H284      1.0  0.15812  0.78115  0.92108  1.0000
  H   H285      1.0  0.57892  0.84188  0.28115  1.0000
  H   H286      1.0  0.42108  0.34188  0.21885  1.0000
  H   H287      1.0  0.07892  0.65812  0.71885  1.0000
  H   H288      1.0  0.92108  0.15812  0.78115  1.0000
  C   C457      1.0  0.63770  0.58650  0.10730  1.0000
  C   C458      1.0  0.86230  0.41350  0.60730  1.0000
  C   C459      1.0  0.36230  0.08650  0.39270  1.0000
  C   C460      1.0  0.13770  0.91350  0.89270  1.0000
  C   C461      1.0  0.10730  0.63770  0.58650  1.0000
  C   C462      1.0  0.60730  0.86230  0.41350  1.0000
  C   C463      1.0  0.39270  0.36230  0.08650  1.0000
  C   C464      1.0  0.89270  0.13770  0.91350  1.0000
  C   C465      1.0  0.58650  0.10730  0.63770  1.0000
  C   C466      1.0  0.41350  0.60730  0.86230  1.0000
  C   C467      1.0  0.08650  0.39270  0.36230  1.0000
  C   C468      1.0  0.91350  0.89270  0.13770  1.0000
  C   C469      1.0  0.36230  0.41350  0.89270  1.0000
  C   C470      1.0  0.13770  0.58650  0.39270  1.0000
  C   C471      1.0  0.63770  0.91350  0.60730  1.0000
  C   C472      1.0  0.86230  0.08650  0.10730  1.0000
  C   C473      1.0  0.89270  0.36230  0.41350  1.0000
  C   C474      1.0  0.39270  0.13770  0.58650  1.0000
  C   C475      1.0  0.60730  0.63770  0.91350  1.0000
  C   C476      1.0  0.10730  0.86230  0.08650  1.0000
  C   C477      1.0  0.41350  0.89270  0.36230  1.0000
  C   C478      1.0  0.58650  0.39270  0.13770  1.0000
  C   C479      1.0  0.91350  0.60730  0.63770  1.0000
  C   C480      1.0  0.08650  0.10730  0.86230  1.0000
  C   C481      1.0  0.71370  0.74720  0.20810  1.0000
  C   C482      1.0  0.78630  0.25280  0.70810  1.0000
  C   C483      1.0  0.28630  0.24720  0.29190  1.0000
  C   C484      1.0  0.21370  0.75280  0.79190  1.0000
  C   C485      1.0  0.20810  0.71370  0.74720  1.0000
  C   C486      1.0  0.70810  0.78630  0.25280  1.0000
  C   C487      1.0  0.29190  0.28630  0.24720  1.0000
  C   C488      1.0  0.79190  0.21370  0.75280  1.0000
  C   C489      1.0  0.74720  0.20810  0.71370  1.0000
  C   C490      1.0  0.25280  0.70810  0.78630  1.0000
  C   C491      1.0  0.24720  0.29190  0.28630  1.0000
  C   C492      1.0  0.75280  0.79190  0.21370  1.0000
  C   C493      1.0  0.28630  0.25280  0.79190  1.0000
  C   C494      1.0  0.21370  0.74720  0.29190  1.0000
  C   C495      1.0  0.71370  0.75280  0.70810  1.0000
  C   C496      1.0  0.78630  0.24720  0.20810  1.0000
  C   C497      1.0  0.79190  0.28630  0.25280  1.0000
  C   C498      1.0  0.29190  0.21370  0.74720  1.0000
  C   C499      1.0  0.70810  0.71370  0.75280  1.0000
  C   C500      1.0  0.20810  0.78630  0.24720  1.0000
  C   C501      1.0  0.25280  0.79190  0.28630  1.0000
  C   C502      1.0  0.74720  0.29190  0.21370  1.0000
  C   C503      1.0  0.75280  0.70810  0.71370  1.0000
  C   C504      1.0  0.24720  0.20810  0.78630  1.0000
  C   C505      1.0  0.70310  0.72020  0.22530  1.0000
  C   C506      1.0  0.79690  0.27980  0.72530  1.0000
  C   C507      1.0  0.29690  0.22020  0.27470  1.0000
  C   C508      1.0  0.20310  0.77980  0.77470  1.0000
  C   C509      1.0  0.22530  0.70310  0.72020  1.0000
  C   C510      1.0  0.72530  0.79690  0.27980  1.0000
  C   C511      1.0  0.27470  0.29690  0.22020  1.0000
  C   C512      1.0  0.77470  0.20310  0.77980  1.0000
  C   C513      1.0  0.72020  0.22530  0.70310  1.0000
  C   C514      1.0  0.27980  0.72530  0.79690  1.0000
  C   C515      1.0  0.22020  0.27470  0.29690  1.0000
  C   C516      1.0  0.77980  0.77470  0.20310  1.0000
  C   C517      1.0  0.29690  0.27980  0.77470  1.0000
  C   C518      1.0  0.20310  0.72020  0.27470  1.0000
  C   C519      1.0  0.70310  0.77980  0.72530  1.0000
  C   C520      1.0  0.79690  0.22020  0.22530  1.0000
  C   C521      1.0  0.77470  0.29690  0.27980  1.0000
  C   C522      1.0  0.27470  0.20310  0.72020  1.0000
  C   C523      1.0  0.72530  0.70310  0.77980  1.0000
  C   C524      1.0  0.22530  0.79690  0.22020  1.0000
  C   C525      1.0  0.27980  0.77470  0.29690  1.0000
  C   C526      1.0  0.72020  0.27470  0.20310  1.0000
  C   C527      1.0  0.77980  0.72530  0.70310  1.0000
  C   C528      1.0  0.22020  0.22530  0.79690  1.0000
  H   H289      1.0  0.70435  0.71994  0.24779  1.0000
  H   H290      1.0  0.79565  0.28006  0.74779  1.0000
  H   H291      1.0  0.29565  0.21994  0.25221  1.0000
  H   H292      1.0  0.20435  0.78006  0.75221  1.0000
  H   H293      1.0  0.24779  0.70435  0.71994  1.0000
  H   H294      1.0  0.74779  0.79565  0.28006  1.0000
  H   H295      1.0  0.25221  0.29565  0.21994  1.0000
  H   H296      1.0  0.75221  0.20435  0.78006  1.0000
  H   H297      1.0  0.71994  0.24779  0.70435  1.0000
  H   H298      1.0  0.28006  0.74779  0.79565  1.0000
  H   H299      1.0  0.21994  0.25221  0.29565  1.0000
  H   H300      1.0  0.78006  0.75221  0.20435  1.0000
  H   H301      1.0  0.29565  0.28006  0.75221  1.0000
  H   H302      1.0  0.20435  0.71994  0.25221  1.0000
  H   H303      1.0  0.70435  0.78006  0.74779  1.0000
  H   H304      1.0  0.79565  0.21994  0.24779  1.0000
  H   H305      1.0  0.75221  0.29565  0.28006  1.0000
  H   H306      1.0  0.25221  0.20435  0.71994  1.0000
  H   H307      1.0  0.74779  0.70435  0.78006  1.0000
  H   H308      1.0  0.24779  0.79565  0.21994  1.0000
  H   H309      1.0  0.28006  0.75221  0.29565  1.0000
  H   H310      1.0  0.71994  0.25221  0.20435  1.0000
  H   H311      1.0  0.78006  0.74779  0.70435  1.0000
  H   H312      1.0  0.21994  0.24779  0.79565  1.0000
  C   C529      1.0  0.69070  0.69350  0.20880  1.0000
  C   C530      1.0  0.80930  0.30650  0.70880  1.0000
  C   C531      1.0  0.30930  0.19350  0.29120  1.0000
  C   C532      1.0  0.19070  0.80650  0.79120  1.0000
  C   C533      1.0  0.20880  0.69070  0.69350  1.0000
  C   C534      1.0  0.70880  0.80930  0.30650  1.0000
  C   C535      1.0  0.29120  0.30930  0.19350  1.0000
  C   C536      1.0  0.79120  0.19070  0.80650  1.0000
  C   C537      1.0  0.69350  0.20880  0.69070  1.0000
  C   C538      1.0  0.30650  0.70880  0.80930  1.0000
  C   C539      1.0  0.19350  0.29120  0.30930  1.0000
  C   C540      1.0  0.80650  0.79120  0.19070  1.0000
  C   C541      1.0  0.30930  0.30650  0.79120  1.0000
  C   C542      1.0  0.19070  0.69350  0.29120  1.0000
  C   C543      1.0  0.69070  0.80650  0.70880  1.0000
  C   C544      1.0  0.80930  0.19350  0.20880  1.0000
  C   C545      1.0  0.79120  0.30930  0.30650  1.0000
  C   C546      1.0  0.29120  0.19070  0.69350  1.0000
  C   C547      1.0  0.70880  0.69070  0.80650  1.0000
  C   C548      1.0  0.20880  0.80930  0.19350  1.0000
  C   C549      1.0  0.30650  0.79120  0.30930  1.0000
  C   C550      1.0  0.69350  0.29120  0.19070  1.0000
  C   C551      1.0  0.80650  0.70880  0.69070  1.0000
  C   C552      1.0  0.19350  0.20880  0.80930  1.0000
  H   H313      1.0  0.68359  0.67545  0.22025  1.0000
  H   H314      1.0  0.81641  0.32455  0.72025  1.0000
  H   H315      1.0  0.31641  0.17545  0.27975  1.0000
  H   H316      1.0  0.18359  0.82455  0.77975  1.0000
  H   H317      1.0  0.22025  0.68359  0.67545  1.0000
  H   H318      1.0  0.72025  0.81641  0.32455  1.0000
  H   H319      1.0  0.27975  0.31641  0.17545  1.0000
  H   H320      1.0  0.77975  0.18359  0.82455  1.0000
  H   H321      1.0  0.67545  0.22025  0.68359  1.0000
  H   H322      1.0  0.32455  0.72025  0.81641  1.0000
  H   H323      1.0  0.17545  0.27975  0.31641  1.0000
  H   H324      1.0  0.82455  0.77975  0.18359  1.0000
  H   H325      1.0  0.31641  0.32455  0.77975  1.0000
  H   H326      1.0  0.18359  0.67545  0.27975  1.0000
  H   H327      1.0  0.68359  0.82455  0.72025  1.0000
  H   H328      1.0  0.81641  0.17545  0.22025  1.0000
  H   H329      1.0  0.77975  0.31641  0.32455  1.0000
  H   H330      1.0  0.27975  0.18359  0.67545  1.0000
  H   H331      1.0  0.72025  0.68359  0.82455  1.0000
  H   H332      1.0  0.22025  0.81641  0.17545  1.0000
  H   H333      1.0  0.32455  0.77975  0.31641  1.0000
  H   H334      1.0  0.67545  0.27975  0.18359  1.0000
  H   H335      1.0  0.82455  0.72025  0.68359  1.0000
  H   H336      1.0  0.17545  0.22025  0.81641  1.0000
  C   C553      1.0  0.68880  0.69390  0.17510  1.0000
  C   C554      1.0  0.81120  0.30610  0.67510  1.0000
  C   C555      1.0  0.31120  0.19390  0.32490  1.0000
  C   C556      1.0  0.18880  0.80610  0.82490  1.0000
  C   C557      1.0  0.17510  0.68880  0.69390  1.0000
  C   C558      1.0  0.67510  0.81120  0.30610  1.0000
  C   C559      1.0  0.32490  0.31120  0.19390  1.0000
  C   C560      1.0  0.82490  0.18880  0.80610  1.0000
  C   C561      1.0  0.69390  0.17510  0.68880  1.0000
  C   C562      1.0  0.30610  0.67510  0.81120  1.0000
  C   C563      1.0  0.19390  0.32490  0.31120  1.0000
  C   C564      1.0  0.80610  0.82490  0.18880  1.0000
  C   C565      1.0  0.31120  0.30610  0.82490  1.0000
  C   C566      1.0  0.18880  0.69390  0.32490  1.0000
  C   C567      1.0  0.68880  0.80610  0.67510  1.0000
  C   C568      1.0  0.81120  0.19390  0.17510  1.0000
  C   C569      1.0  0.82490  0.31120  0.30610  1.0000
  C   C570      1.0  0.32490  0.18880  0.69390  1.0000
  C   C571      1.0  0.67510  0.68880  0.80610  1.0000
  C   C572      1.0  0.17510  0.81120  0.19390  1.0000
  C   C573      1.0  0.30610  0.82490  0.31120  1.0000
  C   C574      1.0  0.69390  0.32490  0.18880  1.0000
  C   C575      1.0  0.80610  0.67510  0.68880  1.0000
  C   C576      1.0  0.19390  0.17510  0.81120  1.0000
  C   C577      1.0  0.69940  0.72090  0.15790  1.0000
  C   C578      1.0  0.80060  0.27910  0.65790  1.0000
  C   C579      1.0  0.30060  0.22090  0.34210  1.0000
  C   C580      1.0  0.19940  0.77910  0.84210  1.0000
  C   C581      1.0  0.15790  0.69940  0.72090  1.0000
  C   C582      1.0  0.65790  0.80060  0.27910  1.0000
  C   C583      1.0  0.34210  0.30060  0.22090  1.0000
  C   C584      1.0  0.84210  0.19940  0.77910  1.0000
  C   C585      1.0  0.72090  0.15790  0.69940  1.0000
  C   C586      1.0  0.27910  0.65790  0.80060  1.0000
  C   C587      1.0  0.22090  0.34210  0.30060  1.0000
  C   C588      1.0  0.77910  0.84210  0.19940  1.0000
  C   C589      1.0  0.30060  0.27910  0.84210  1.0000
  C   C590      1.0  0.19940  0.72090  0.34210  1.0000
  C   C591      1.0  0.69940  0.77910  0.65790  1.0000
  C   C592      1.0  0.80060  0.22090  0.15790  1.0000
  C   C593      1.0  0.84210  0.30060  0.27910  1.0000
  C   C594      1.0  0.34210  0.19940  0.72090  1.0000
  C   C595      1.0  0.65790  0.69940  0.77910  1.0000
  C   C596      1.0  0.15790  0.80060  0.22090  1.0000
  C   C597      1.0  0.27910  0.84210  0.30060  1.0000
  C   C598      1.0  0.72090  0.34210  0.19940  1.0000
  C   C599      1.0  0.77910  0.65790  0.69940  1.0000
  C   C600      1.0  0.22090  0.15790  0.80060  1.0000
  H   H337      1.0  0.69822  0.72116  0.13538  1.0000
  H   H338      1.0  0.80178  0.27884  0.63538  1.0000
  H   H339      1.0  0.30178  0.22116  0.36462  1.0000
  H   H340      1.0  0.19822  0.77884  0.86462  1.0000
  H   H341      1.0  0.13538  0.69822  0.72116  1.0000
  H   H342      1.0  0.63538  0.80178  0.27884  1.0000
  H   H343      1.0  0.36462  0.30178  0.22116  1.0000
  H   H344      1.0  0.86462  0.19822  0.77884  1.0000
  H   H345      1.0  0.72116  0.13538  0.69822  1.0000
  H   H346      1.0  0.27884  0.63538  0.80178  1.0000
  H   H347      1.0  0.22116  0.36462  0.30178  1.0000
  H   H348      1.0  0.77884  0.86462  0.19822  1.0000
  H   H349      1.0  0.30178  0.27884  0.86462  1.0000
  H   H350      1.0  0.19822  0.72116  0.36462  1.0000
  H   H351      1.0  0.69822  0.77884  0.63538  1.0000
  H   H352      1.0  0.80178  0.22116  0.13538  1.0000
  H   H353      1.0  0.86462  0.30178  0.27884  1.0000
  H   H354      1.0  0.36462  0.19822  0.72116  1.0000
  H   H355      1.0  0.63538  0.69822  0.77884  1.0000
  H   H356      1.0  0.13538  0.80178  0.22116  1.0000
  H   H357      1.0  0.27884  0.86462  0.30178  1.0000
  H   H358      1.0  0.72116  0.36462  0.19822  1.0000
  H   H359      1.0  0.77884  0.63538  0.69822  1.0000
  H   H360      1.0  0.22116  0.13538  0.80178  1.0000
  C   C601      1.0  0.71190  0.74760  0.17440  1.0000
  C   C602      1.0  0.78810  0.25240  0.67440  1.0000
  C   C603      1.0  0.28810  0.24760  0.32560  1.0000
  C   C604      1.0  0.21190  0.75240  0.82560  1.0000
  C   C605      1.0  0.17440  0.71190  0.74760  1.0000
  C   C606      1.0  0.67440  0.78810  0.25240  1.0000
  C   C607      1.0  0.32560  0.28810  0.24760  1.0000
  C   C608      1.0  0.82560  0.21190  0.75240  1.0000
  C   C609      1.0  0.74760  0.17440  0.71190  1.0000
  C   C610      1.0  0.25240  0.67440  0.78810  1.0000
  C   C611      1.0  0.24760  0.32560  0.28810  1.0000
  C   C612      1.0  0.75240  0.82560  0.21190  1.0000
  C   C613      1.0  0.28810  0.25240  0.82560  1.0000
  C   C614      1.0  0.21190  0.74760  0.32560  1.0000
  C   C615      1.0  0.71190  0.75240  0.67440  1.0000
  C   C616      1.0  0.78810  0.24760  0.17440  1.0000
  C   C617      1.0  0.82560  0.28810  0.25240  1.0000
  C   C618      1.0  0.32560  0.21190  0.74760  1.0000
  C   C619      1.0  0.67440  0.71190  0.75240  1.0000
  C   C620      1.0  0.17440  0.78810  0.24760  1.0000
  C   C621      1.0  0.25240  0.82560  0.28810  1.0000
  C   C622      1.0  0.74760  0.32560  0.21190  1.0000
  C   C623      1.0  0.75240  0.67440  0.71190  1.0000
  C   C624      1.0  0.24760  0.17440  0.78810  1.0000
  H   H361      1.0  0.71898  0.76565  0.16292  1.0000
  H   H362      1.0  0.78102  0.23435  0.66292  1.0000
  H   H363      1.0  0.28102  0.26565  0.33708  1.0000
  H   H364      1.0  0.21898  0.73435  0.83708  1.0000
  H   H365      1.0  0.16292  0.71898  0.76565  1.0000
  H   H366      1.0  0.66292  0.78102  0.23435  1.0000
  H   H367      1.0  0.33708  0.28102  0.26565  1.0000
  H   H368      1.0  0.83708  0.21898  0.73435  1.0000
  H   H369      1.0  0.76565  0.16292  0.71898  1.0000
  H   H370      1.0  0.23435  0.66292  0.78102  1.0000
  H   H371      1.0  0.26565  0.33708  0.28102  1.0000
  H   H372      1.0  0.73435  0.83708  0.21898  1.0000
  H   H373      1.0  0.28102  0.23435  0.83708  1.0000
  H   H374      1.0  0.21898  0.76565  0.33708  1.0000
  H   H375      1.0  0.71898  0.73435  0.66292  1.0000
  H   H376      1.0  0.78102  0.26565  0.16292  1.0000
  H   H377      1.0  0.83708  0.28102  0.23435  1.0000
  H   H378      1.0  0.33708  0.21898  0.76565  1.0000
  H   H379      1.0  0.66292  0.71898  0.73435  1.0000
  H   H380      1.0  0.16292  0.78102  0.26565  1.0000
  H   H381      1.0  0.23435  0.83708  0.28102  1.0000
  H   H382      1.0  0.76565  0.33708  0.21898  1.0000
  H   H383      1.0  0.73435  0.66292  0.71898  1.0000
  H   H384      1.0  0.26565  0.16292  0.78102  1.0000
  C   C625      1.0  0.55910  0.48670  0.10510  1.0000
  C   C626      1.0  0.94090  0.51330  0.60510  1.0000
  C   C627      1.0  0.44090  0.98670  0.39490  1.0000
  C   C628      1.0  0.05910  0.01330  0.89490  1.0000
  C   C629      1.0  0.10510  0.55910  0.48670  1.0000
  C   C630      1.0  0.60510  0.94090  0.51330  1.0000
  C   C631      1.0  0.39490  0.44090  0.98670  1.0000
  C   C632      1.0  0.89490  0.05910  0.01330  1.0000
  C   C633      1.0  0.48670  0.10510  0.55910  1.0000
  C   C634      1.0  0.51330  0.60510  0.94090  1.0000
  C   C635      1.0  0.98670  0.39490  0.44090  1.0000
  C   C636      1.0  0.01330  0.89490  0.05910  1.0000
  C   C637      1.0  0.44090  0.51330  0.89490  1.0000
  C   C638      1.0  0.05910  0.48670  0.39490  1.0000
  C   C639      1.0  0.55910  0.01330  0.60510  1.0000
  C   C640      1.0  0.94090  0.98670  0.10510  1.0000
  C   C641      1.0  0.89490  0.44090  0.51330  1.0000
  C   C642      1.0  0.39490  0.05910  0.48670  1.0000
  C   C643      1.0  0.60510  0.55910  0.01330  1.0000
  C   C644      1.0  0.10510  0.94090  0.98670  1.0000
  C   C645      1.0  0.51330  0.89490  0.44090  1.0000
  C   C646      1.0  0.48670  0.39490  0.05910  1.0000
  C   C647      1.0  0.01330  0.60510  0.55910  1.0000
  C   C648      1.0  0.98670  0.10510  0.94090  1.0000
  C   C649      1.0  0.57220  0.47290  0.07410  1.0000
  C   C650      1.0  0.92780  0.52710  0.57410  1.0000
  C   C651      1.0  0.42780  0.97290  0.42590  1.0000
  C   C652      1.0  0.07220  0.02710  0.92590  1.0000
  C   C653      1.0  0.07410  0.57220  0.47290  1.0000
  C   C654      1.0  0.57410  0.92780  0.52710  1.0000
  C   C655      1.0  0.42590  0.42780  0.97290  1.0000
  C   C656      1.0  0.92590  0.07220  0.02710  1.0000
  C   C657      1.0  0.47290  0.07410  0.57220  1.0000
  C   C658      1.0  0.52710  0.57410  0.92780  1.0000
  C   C659      1.0  0.97290  0.42590  0.42780  1.0000
  C   C660      1.0  0.02710  0.92590  0.07220  1.0000
  C   C661      1.0  0.42780  0.52710  0.92590  1.0000
  C   C662      1.0  0.07220  0.47290  0.42590  1.0000
  C   C663      1.0  0.57220  0.02710  0.57410  1.0000
  C   C664      1.0  0.92780  0.97290  0.07410  1.0000
  C   C665      1.0  0.92590  0.42780  0.52710  1.0000
  C   C666      1.0  0.42590  0.07220  0.47290  1.0000
  C   C667      1.0  0.57410  0.57220  0.02710  1.0000
  C   C668      1.0  0.07410  0.92780  0.97290  1.0000
  C   C669      1.0  0.52710  0.92590  0.42780  1.0000
  C   C670      1.0  0.47290  0.42590  0.07220  1.0000
  C   C671      1.0  0.02710  0.57410  0.57220  1.0000
  C   C672      1.0  0.97290  0.07410  0.92780  1.0000
  N   N1        1.0  0.85290  0.35290  0.14710  1.0000
  N   N2        1.0  0.64710  0.64710  0.64710  1.0000
  N   N3        1.0  0.14710  0.85290  0.35290  1.0000
  N   N4        1.0  0.35290  0.14710  0.85290  1.0000
  N   N5        1.0  0.14710  0.64710  0.85290  1.0000
  N   N6        1.0  0.35290  0.35290  0.35290  1.0000
  N   N7        1.0  0.85290  0.14710  0.64710  1.0000
  N   N8        1.0  0.64710  0.85290  0.14710  1.0000
  N   N9        1.0  0.72370  0.77630  0.22370  1.0000
  N   N10       1.0  0.77630  0.22370  0.72370  1.0000
  N   N11       1.0  0.27630  0.27630  0.27630  1.0000
  N   N12       1.0  0.22370  0.72370  0.77630  1.0000
  N   N13       1.0  0.27630  0.22370  0.77630  1.0000
  N   N14       1.0  0.22370  0.77630  0.27630  1.0000
  N   N15       1.0  0.72370  0.72370  0.72370  1.0000
  N   N16       1.0  0.77630  0.27630  0.22370  1.0000
  O   O1        1.0  0.65830  0.50630  0.07180  1.0000
  O   O2        1.0  0.84170  0.49370  0.57180  1.0000
  O   O3        1.0  0.34170  0.00630  0.42820  1.0000
  O   O4        1.0  0.15830  0.99370  0.92820  1.0000
  O   O5        1.0  0.07180  0.65830  0.50630  1.0000
  O   O6        1.0  0.57180  0.84170  0.49370  1.0000
  O   O7        1.0  0.42820  0.34170  0.00630  1.0000
  O   O8        1.0  0.92820  0.15830  0.99370  1.0000
  O   O9        1.0  0.50630  0.07180  0.65830  1.0000
  O   O10       1.0  0.49370  0.57180  0.84170  1.0000
  O   O11       1.0  0.00630  0.42820  0.34170  1.0000
  O   O12       1.0  0.99370  0.92820  0.15830  1.0000
  O   O13       1.0  0.34170  0.49370  0.92820  1.0000
  O   O14       1.0  0.15830  0.50630  0.42820  1.0000
  O   O15       1.0  0.65830  0.99370  0.57180  1.0000
  O   O16       1.0  0.84170  0.00630  0.07180  1.0000
  O   O17       1.0  0.92820  0.34170  0.49370  1.0000
  O   O18       1.0  0.42820  0.15830  0.50630  1.0000
  O   O19       1.0  0.57180  0.65830  0.99370  1.0000
  O   O20       1.0  0.07180  0.84170  0.00630  1.0000
  O   O21       1.0  0.49370  0.92820  0.34170  1.0000
  O   O22       1.0  0.50630  0.42820  0.15830  1.0000
  O   O23       1.0  0.99370  0.57180  0.65830  1.0000
  O   O24       1.0  0.00630  0.07180  0.84170  1.0000
  O   O25       1.0  0.63790  0.49340  0.11460  1.0000
  O   O26       1.0  0.86210  0.50660  0.61460  1.0000
  O   O27       1.0  0.36210  0.99340  0.38540  1.0000
  O   O28       1.0  0.13790  0.00660  0.88540  1.0000
  O   O29       1.0  0.11460  0.63790  0.49340  1.0000
  O   O30       1.0  0.61460  0.86210  0.50660  1.0000
  O   O31       1.0  0.38540  0.36210  0.99340  1.0000
  O   O32       1.0  0.88540  0.13790  0.00660  1.0000
  O   O33       1.0  0.49340  0.11460  0.63790  1.0000
  O   O34       1.0  0.50660  0.61460  0.86210  1.0000
  O   O35       1.0  0.99340  0.38540  0.36210  1.0000
  O   O36       1.0  0.00660  0.88540  0.13790  1.0000
  O   O37       1.0  0.36210  0.50660  0.88540  1.0000
  O   O38       1.0  0.13790  0.49340  0.38540  1.0000
  O   O39       1.0  0.63790  0.00660  0.61460  1.0000
  O   O40       1.0  0.86210  0.99340  0.11460  1.0000
  O   O41       1.0  0.88540  0.36210  0.50660  1.0000
  O   O42       1.0  0.38540  0.13790  0.49340  1.0000
  O   O43       1.0  0.61460  0.63790  0.00660  1.0000
  O   O44       1.0  0.11460  0.86210  0.99340  1.0000
  O   O45       1.0  0.50660  0.88540  0.36210  1.0000
  O   O46       1.0  0.49340  0.38540  0.13790  1.0000
  O   O47       1.0  0.00660  0.61460  0.63790  1.0000
  O   O48       1.0  0.99340  0.11460  0.86210  1.0000
  O   O49       1.0  0.61820  0.56650  0.11510  1.0000
  O   O50       1.0  0.88180  0.43350  0.61510  1.0000
  O   O51       1.0  0.38180  0.06650  0.38490  1.0000
  O   O52       1.0  0.11820  0.93350  0.88490  1.0000
  O   O53       1.0  0.11510  0.61820  0.56650  1.0000
  O   O54       1.0  0.61510  0.88180  0.43350  1.0000
  O   O55       1.0  0.38490  0.38180  0.06650  1.0000
  O   O56       1.0  0.88490  0.11820  0.93350  1.0000
  O   O57       1.0  0.56650  0.11510  0.61820  1.0000
  O   O58       1.0  0.43350  0.61510  0.88180  1.0000
  O   O59       1.0  0.06650  0.38490  0.38180  1.0000
  O   O60       1.0  0.93350  0.88490  0.11820  1.0000
  O   O61       1.0  0.38180  0.43350  0.88490  1.0000
  O   O62       1.0  0.11820  0.56650  0.38490  1.0000
  O   O63       1.0  0.61820  0.93350  0.61510  1.0000
  O   O64       1.0  0.88180  0.06650  0.11510  1.0000
  O   O65       1.0  0.88490  0.38180  0.43350  1.0000
  O   O66       1.0  0.38490  0.11820  0.56650  1.0000
  O   O67       1.0  0.61510  0.61820  0.93350  1.0000
  O   O68       1.0  0.11510  0.88180  0.06650  1.0000
  O   O69       1.0  0.43350  0.88490  0.38180  1.0000
  O   O70       1.0  0.56650  0.38490  0.11820  1.0000
  O   O71       1.0  0.93350  0.61510  0.61820  1.0000
  O   O72       1.0  0.06650  0.11510  0.88180  1.0000
  O   O73       1.0  0.64250  0.57930  0.07820  1.0000
  O   O74       1.0  0.85750  0.42070  0.57820  1.0000
  O   O75       1.0  0.35750  0.07930  0.42180  1.0000
  O   O76       1.0  0.14250  0.92070  0.92180  1.0000
  O   O77       1.0  0.07820  0.64250  0.57930  1.0000
  O   O78       1.0  0.57820  0.85750  0.42070  1.0000
  O   O79       1.0  0.42180  0.35750  0.07930  1.0000
  O   O80       1.0  0.92180  0.14250  0.92070  1.0000
  O   O81       1.0  0.57930  0.07820  0.64250  1.0000
  O   O82       1.0  0.42070  0.57820  0.85750  1.0000
  O   O83       1.0  0.07930  0.42180  0.35750  1.0000
  O   O84       1.0  0.92070  0.92180  0.14250  1.0000
  O   O85       1.0  0.35750  0.42070  0.92180  1.0000
  O   O86       1.0  0.14250  0.57930  0.42180  1.0000
  O   O87       1.0  0.64250  0.92070  0.57820  1.0000
  O   O88       1.0  0.85750  0.07930  0.07820  1.0000
  O   O89       1.0  0.92180  0.35750  0.42070  1.0000
  O   O90       1.0  0.42180  0.14250  0.57930  1.0000
  O   O91       1.0  0.57820  0.64250  0.92070  1.0000
  O   O92       1.0  0.07820  0.85750  0.07930  1.0000
  O   O93       1.0  0.42070  0.92180  0.35750  1.0000
  O   O94       1.0  0.57930  0.42180  0.14250  1.0000
  O   O95       1.0  0.92070  0.57820  0.64250  1.0000
  O   O96       1.0  0.07930  0.07820  0.85750  1.0000
  O   O97       1.0  0.57060  0.51580  0.10910  1.0000
  O   O98       1.0  0.92940  0.48420  0.60910  1.0000
  O   O99       1.0  0.42940  0.01580  0.39090  1.0000
  O   O100      1.0  0.07060  0.98420  0.89090  1.0000
  O   O101      1.0  0.10910  0.57060  0.51580  1.0000
  O   O102      1.0  0.60910  0.92940  0.48420  1.0000
  O   O103      1.0  0.39090  0.42940  0.01580  1.0000
  O   O104      1.0  0.89090  0.07060  0.98420  1.0000
  O   O105      1.0  0.51580  0.10910  0.57060  1.0000
  O   O106      1.0  0.48420  0.60910  0.92940  1.0000
  O   O107      1.0  0.01580  0.39090  0.42940  1.0000
  O   O108      1.0  0.98420  0.89090  0.07060  1.0000
  O   O109      1.0  0.42940  0.48420  0.89090  1.0000
  O   O110      1.0  0.07060  0.51580  0.39090  1.0000
  O   O111      1.0  0.57060  0.98420  0.60910  1.0000
  O   O112      1.0  0.92940  0.01580  0.10910  1.0000
  O   O113      1.0  0.89090  0.42940  0.48420  1.0000
  O   O114      1.0  0.39090  0.07060  0.51580  1.0000
  O   O115      1.0  0.60910  0.57060  0.98420  1.0000
  O   O116      1.0  0.10910  0.92940  0.01580  1.0000
  O   O117      1.0  0.48420  0.89090  0.42940  1.0000
  O   O118      1.0  0.51580  0.39090  0.07060  1.0000
  O   O119      1.0  0.98420  0.60910  0.57060  1.0000
  O   O120      1.0  0.01580  0.10910  0.92940  1.0000
  O   O121      1.0  0.53820  0.47550  0.12150  1.0000
  O   O122      1.0  0.96180  0.52450  0.62150  1.0000
  O   O123      1.0  0.46180  0.97550  0.37850  1.0000
  O   O124      1.0  0.03820  0.02450  0.87850  1.0000
  O   O125      1.0  0.12150  0.53820  0.47550  1.0000
  O   O126      1.0  0.62150  0.96180  0.52450  1.0000
  O   O127      1.0  0.37850  0.46180  0.97550  1.0000
  O   O128      1.0  0.87850  0.03820  0.02450  1.0000
  O   O129      1.0  0.47550  0.12150  0.53820  1.0000
  O   O130      1.0  0.52450  0.62150  0.96180  1.0000
  O   O131      1.0  0.97550  0.37850  0.46180  1.0000
  O   O132      1.0  0.02450  0.87850  0.03820  1.0000
  O   O133      1.0  0.46180  0.52450  0.87850  1.0000
  O   O134      1.0  0.03820  0.47550  0.37850  1.0000
  O   O135      1.0  0.53820  0.02450  0.62150  1.0000
  O   O136      1.0  0.96180  0.97550  0.12150  1.0000
  O   O137      1.0  0.87850  0.46180  0.52450  1.0000
  O   O138      1.0  0.37850  0.03820  0.47550  1.0000
  O   O139      1.0  0.62150  0.53820  0.02450  1.0000
  O   O140      1.0  0.12150  0.96180  0.97550  1.0000
  O   O141      1.0  0.52450  0.87850  0.46180  1.0000
  O   O142      1.0  0.47550  0.37850  0.03820  1.0000
  O   O143      1.0  0.02450  0.62150  0.53820  1.0000
  O   O144      1.0  0.97550  0.12150  0.96180  1.0000
  O   O145      1.0  0.59220  0.48410  0.05700  1.0000
  O   O146      1.0  0.90780  0.51590  0.55700  1.0000
  O   O147      1.0  0.40780  0.98410  0.44300  1.0000
  O   O148      1.0  0.09220  0.01590  0.94300  1.0000
  O   O149      1.0  0.05700  0.59220  0.48410  1.0000
  O   O150      1.0  0.55700  0.90780  0.51590  1.0000
  O   O151      1.0  0.44300  0.40780  0.98410  1.0000
  O   O152      1.0  0.94300  0.09220  0.01590  1.0000
  O   O153      1.0  0.48410  0.05700  0.59220  1.0000
  O   O154      1.0  0.51590  0.55700  0.90780  1.0000
  O   O155      1.0  0.98410  0.44300  0.40780  1.0000
  O   O156      1.0  0.01590  0.94300  0.09220  1.0000
  O   O157      1.0  0.40780  0.51590  0.94300  1.0000
  O   O158      1.0  0.09220  0.48410  0.44300  1.0000
  O   O159      1.0  0.59220  0.01590  0.55700  1.0000
  O   O160      1.0  0.90780  0.98410  0.05700  1.0000
  O   O161      1.0  0.94300  0.40780  0.51590  1.0000
  O   O162      1.0  0.44300  0.09220  0.48410  1.0000
  O   O163      1.0  0.55700  0.59220  0.01590  1.0000
  O   O164      1.0  0.05700  0.90780  0.98410  1.0000
  O   O165      1.0  0.51590  0.94300  0.40780  1.0000
  O   O166      1.0  0.48410  0.44300  0.09220  1.0000
  O   O167      1.0  0.01590  0.55700  0.59220  1.0000
  O   O168      1.0  0.98410  0.05700  0.90780  1.0000
  O   O169      1.0  0.56110  0.44220  0.07260  1.0000
  O   O170      1.0  0.93890  0.55780  0.57260  1.0000
  O   O171      1.0  0.43890  0.94220  0.42740  1.0000
  O   O172      1.0  0.06110  0.05780  0.92740  1.0000
  O   O173      1.0  0.07260  0.56110  0.44220  1.0000
  O   O174      1.0  0.57260  0.93890  0.55780  1.0000
  O   O175      1.0  0.42740  0.43890  0.94220  1.0000
  O   O176      1.0  0.92740  0.06110  0.05780  1.0000
  O   O177      1.0  0.44220  0.07260  0.56110  1.0000
  O   O178      1.0  0.55780  0.57260  0.93890  1.0000
  O   O179      1.0  0.94220  0.42740  0.43890  1.0000
  O   O180      1.0  0.05780  0.92740  0.06110  1.0000
  O   O181      1.0  0.43890  0.55780  0.92740  1.0000
  O   O182      1.0  0.06110  0.44220  0.42740  1.0000
  O   O183      1.0  0.56110  0.05780  0.57260  1.0000
  O   O184      1.0  0.93890  0.94220  0.07260  1.0000
  O   O185      1.0  0.92740  0.43890  0.55780  1.0000
  O   O186      1.0  0.42740  0.06110  0.44220  1.0000
  O   O187      1.0  0.57260  0.56110  0.05780  1.0000
  O   O188      1.0  0.07260  0.93890  0.94220  1.0000
  O   O189      1.0  0.55780  0.92740  0.43890  1.0000
  O   O190      1.0  0.44220  0.42740  0.06110  1.0000
  O   O191      1.0  0.05780  0.57260  0.56110  1.0000
  O   O192      1.0  0.94220  0.07260  0.93890  1.0000
