data_image0
_chemical_formula_structural       In24C120H24C24H24C48H24C24H24C72H24C24H24C48H24C24H24N16O192
_chemical_formula_sum              "In24 C384 H192 N16 O192"
_cell_length_a       30.3504
_cell_length_b       30.3504
_cell_length_c       30.3504
_cell_angle_alpha    90
_cell_angle_beta     90
_cell_angle_gamma    90

_space_group_name_H-M_alt    "P 1"
_space_group_IT_number       1

loop_
  _space_group_symop_operation_xyz
  'x, y, z'

loop_
  _atom_site_type_symbol
  _atom_site_label
  _atom_site_symmetry_multiplicity
  _atom_site_fract_x
  _atom_site_fract_y
  _atom_site_fract_z
  _atom_site_occupancy
  In  In1       1.0  0.39612  0.65215  0.46324  1.0000
  In  In2       1.0  0.10388  0.34785  0.96324  1.0000
  In  In3       1.0  0.60388  0.15215  0.03676  1.0000
  In  In4       1.0  0.89612  0.84785  0.53676  1.0000
  In  In5       1.0  0.46324  0.39612  0.65215  1.0000
  In  In6       1.0  0.96324  0.10388  0.34785  1.0000
  In  In7       1.0  0.03676  0.60388  0.15215  1.0000
  In  In8       1.0  0.53676  0.89612  0.84785  1.0000
  In  In9       1.0  0.65215  0.46324  0.39612  1.0000
  In  In10      1.0  0.34785  0.96324  0.10388  1.0000
  In  In11      1.0  0.15215  0.03676  0.60388  1.0000
  In  In12      1.0  0.84785  0.53676  0.89612  1.0000
  In  In13      1.0  0.60388  0.34785  0.53676  1.0000
  In  In14      1.0  0.89612  0.65215  0.03676  1.0000
  In  In15      1.0  0.39612  0.84785  0.96324  1.0000
  In  In16      1.0  0.10388  0.15215  0.46324  1.0000
  In  In17      1.0  0.53676  0.60388  0.34785  1.0000
  In  In18      1.0  0.03676  0.89612  0.65215  1.0000
  In  In19      1.0  0.96324  0.39612  0.84785  1.0000
  In  In20      1.0  0.46324  0.10388  0.15215  1.0000
  In  In21      1.0  0.34785  0.53676  0.60388  1.0000
  In  In22      1.0  0.65215  0.03676  0.89612  1.0000
  In  In23      1.0  0.84785  0.96324  0.39612  1.0000
  In  In24      1.0  0.15215  0.46324  0.10388  1.0000
  C   C1        1.0  0.48240  0.64280  0.41670  1.0000
  C   C2        1.0  0.01760  0.35720  0.91670  1.0000
  C   C3        1.0  0.51760  0.14280  0.08330  1.0000
  C   C4        1.0  0.98240  0.85720  0.58330  1.0000
  C   C5        1.0  0.41670  0.48240  0.64280  1.0000
  C   C6        1.0  0.91670  0.01760  0.35720  1.0000
  C   C7        1.0  0.08330  0.51760  0.14280  1.0000
  C   C8        1.0  0.58330  0.98240  0.85720  1.0000
  C   C9        1.0  0.64280  0.41670  0.48240  1.0000
  C   C10       1.0  0.35720  0.91670  0.01760  1.0000
  C   C11       1.0  0.14280  0.08330  0.51760  1.0000
  C   C12       1.0  0.85720  0.58330  0.98240  1.0000
  C   C13       1.0  0.51760  0.35720  0.58330  1.0000
  C   C14       1.0  0.98240  0.64280  0.08330  1.0000
  C   C15       1.0  0.48240  0.85720  0.91670  1.0000
  C   C16       1.0  0.01760  0.14280  0.41670  1.0000
  C   C17       1.0  0.58330  0.51760  0.35720  1.0000
  C   C18       1.0  0.08330  0.98240  0.64280  1.0000
  C   C19       1.0  0.91670  0.48240  0.85720  1.0000
  C   C20       1.0  0.41670  0.01760  0.14280  1.0000
  C   C21       1.0  0.35720  0.58330  0.51760  1.0000
  C   C22       1.0  0.64280  0.08330  0.98240  1.0000
  C   C23       1.0  0.85720  0.91670  0.48240  1.0000
  C   C24       1.0  0.14280  0.41670  0.01760  1.0000
  C   C25       1.0  0.45700  0.60170  0.40150  1.0000
  C   C26       1.0  0.04300  0.39830  0.90150  1.0000
  C   C27       1.0  0.54300  0.10170  0.09850  1.0000
  C   C28       1.0  0.95700  0.89830  0.59850  1.0000
  C   C29       1.0  0.40150  0.45700  0.60170  1.0000
  C   C30       1.0  0.90150  0.04300  0.39830  1.0000
  C   C31       1.0  0.09850  0.54300  0.10170  1.0000
  C   C32       1.0  0.59850  0.95700  0.89830  1.0000
  C   C33       1.0  0.60170  0.40150  0.45700  1.0000
  C   C34       1.0  0.39830  0.90150  0.04300  1.0000
  C   C35       1.0  0.10170  0.09850  0.54300  1.0000
  C   C36       1.0  0.89830  0.59850  0.95700  1.0000
  C   C37       1.0  0.54300  0.39830  0.59850  1.0000
  C   C38       1.0  0.95700  0.60170  0.09850  1.0000
  C   C39       1.0  0.45700  0.89830  0.90150  1.0000
  C   C40       1.0  0.04300  0.10170  0.40150  1.0000
  C   C41       1.0  0.59850  0.54300  0.39830  1.0000
  C   C42       1.0  0.09850  0.95700  0.60170  1.0000
  C   C43       1.0  0.90150  0.45700  0.89830  1.0000
  C   C44       1.0  0.40150  0.04300  0.10170  1.0000
  C   C45       1.0  0.39830  0.59850  0.54300  1.0000
  C   C46       1.0  0.60170  0.09850  0.95700  1.0000
  C   C47       1.0  0.89830  0.90150  0.45700  1.0000
  C   C48       1.0  0.10170  0.40150  0.04300  1.0000
  C   C49       1.0  0.37210  0.71830  0.51860  1.0000
  C   C50       1.0  0.12790  0.28170  0.01860  1.0000
  C   C51       1.0  0.62790  0.21830  0.98140  1.0000
  C   C52       1.0  0.87210  0.78170  0.48140  1.0000
  C   C53       1.0  0.51860  0.37210  0.71830  1.0000
  C   C54       1.0  0.01860  0.12790  0.28170  1.0000
  C   C55       1.0  0.98140  0.62790  0.21830  1.0000
  C   C56       1.0  0.48140  0.87210  0.78170  1.0000
  C   C57       1.0  0.71830  0.51860  0.37210  1.0000
  C   C58       1.0  0.28170  0.01860  0.12790  1.0000
  C   C59       1.0  0.21830  0.98140  0.62790  1.0000
  C   C60       1.0  0.78170  0.48140  0.87210  1.0000
  C   C61       1.0  0.62790  0.28170  0.48140  1.0000
  C   C62       1.0  0.87210  0.71830  0.98140  1.0000
  C   C63       1.0  0.37210  0.78170  0.01860  1.0000
  C   C64       1.0  0.12790  0.21830  0.51860  1.0000
  C   C65       1.0  0.48140  0.62790  0.28170  1.0000
  C   C66       1.0  0.98140  0.87210  0.71830  1.0000
  C   C67       1.0  0.01860  0.37210  0.78170  1.0000
  C   C68       1.0  0.51860  0.12790  0.21830  1.0000
  C   C69       1.0  0.28170  0.48140  0.62790  1.0000
  C   C70       1.0  0.71830  0.98140  0.87210  1.0000
  C   C71       1.0  0.78170  0.01860  0.37210  1.0000
  C   C72       1.0  0.21830  0.51860  0.12790  1.0000
  C   C73       1.0  0.36560  0.75780  0.54890  1.0000
  C   C74       1.0  0.13440  0.24220  0.04890  1.0000
  C   C75       1.0  0.63440  0.25780  0.95110  1.0000
  C   C76       1.0  0.86560  0.74220  0.45110  1.0000
  C   C77       1.0  0.54890  0.36560  0.75780  1.0000
  C   C78       1.0  0.04890  0.13440  0.24220  1.0000
  C   C79       1.0  0.95110  0.63440  0.25780  1.0000
  C   C80       1.0  0.45110  0.86560  0.74220  1.0000
  C   C81       1.0  0.75780  0.54890  0.36560  1.0000
  C   C82       1.0  0.24220  0.04890  0.13440  1.0000
  C   C83       1.0  0.25780  0.95110  0.63440  1.0000
  C   C84       1.0  0.74220  0.45110  0.86560  1.0000
  C   C85       1.0  0.63440  0.24220  0.45110  1.0000
  C   C86       1.0  0.86560  0.75780  0.95110  1.0000
  C   C87       1.0  0.36560  0.74220  0.04890  1.0000
  C   C88       1.0  0.13440  0.25780  0.54890  1.0000
  C   C89       1.0  0.45110  0.63440  0.24220  1.0000
  C   C90       1.0  0.95110  0.86560  0.75780  1.0000
  C   C91       1.0  0.04890  0.36560  0.74220  1.0000
  C   C92       1.0  0.54890  0.13440  0.25780  1.0000
  C   C93       1.0  0.24220  0.45110  0.63440  1.0000
  C   C94       1.0  0.75780  0.95110  0.86560  1.0000
  C   C95       1.0  0.74220  0.04890  0.36560  1.0000
  C   C96       1.0  0.25780  0.54890  0.13440  1.0000
  C   C97       1.0  0.32810  0.76830  0.56860  1.0000
  C   C98       1.0  0.17190  0.23170  0.06860  1.0000
  C   C99       1.0  0.67190  0.26830  0.93140  1.0000
  C   C100      1.0  0.82810  0.73170  0.43140  1.0000
  C   C101      1.0  0.56860  0.32810  0.76830  1.0000
  C   C102      1.0  0.06860  0.17190  0.23170  1.0000
  C   C103      1.0  0.93140  0.67190  0.26830  1.0000
  C   C104      1.0  0.43140  0.82810  0.73170  1.0000
  C   C105      1.0  0.76830  0.56860  0.32810  1.0000
  C   C106      1.0  0.23170  0.06860  0.17190  1.0000
  C   C107      1.0  0.26830  0.93140  0.67190  1.0000
  C   C108      1.0  0.73170  0.43140  0.82810  1.0000
  C   C109      1.0  0.67190  0.23170  0.43140  1.0000
  C   C110      1.0  0.82810  0.76830  0.93140  1.0000
  C   C111      1.0  0.32810  0.73170  0.06860  1.0000
  C   C112      1.0  0.17190  0.26830  0.56860  1.0000
  C   C113      1.0  0.43140  0.67190  0.23170  1.0000
  C   C114      1.0  0.93140  0.82810  0.76830  1.0000
  C   C115      1.0  0.06860  0.32810  0.73170  1.0000
  C   C116      1.0  0.56860  0.17190  0.26830  1.0000
  C   C117      1.0  0.23170  0.43140  0.67190  1.0000
  C   C118      1.0  0.76830  0.93140  0.82810  1.0000
  C   C119      1.0  0.73170  0.06860  0.32810  1.0000
  C   C120      1.0  0.26830  0.56860  0.17190  1.0000
  H   H1        1.0  0.30253  0.75277  0.56200  1.0000
  H   H2        1.0  0.19747  0.24723  0.06200  1.0000
  H   H3        1.0  0.69747  0.25277  0.93800  1.0000
  H   H4        1.0  0.80253  0.74723  0.43800  1.0000
  H   H5        1.0  0.56200  0.30253  0.75277  1.0000
  H   H6        1.0  0.06200  0.19747  0.24723  1.0000
  H   H7        1.0  0.93800  0.69747  0.25277  1.0000
  H   H8        1.0  0.43800  0.80253  0.74723  1.0000
  H   H9        1.0  0.75277  0.56200  0.30253  1.0000
  H   H10       1.0  0.24723  0.06200  0.19747  1.0000
  H   H11       1.0  0.25277  0.93800  0.69747  1.0000
  H   H12       1.0  0.74723  0.43800  0.80253  1.0000
  H   H13       1.0  0.69747  0.24723  0.43800  1.0000
  H   H14       1.0  0.80253  0.75277  0.93800  1.0000
  H   H15       1.0  0.30253  0.74723  0.06200  1.0000
  H   H16       1.0  0.19747  0.25277  0.56200  1.0000
  H   H17       1.0  0.43800  0.69747  0.24723  1.0000
  H   H18       1.0  0.93800  0.80253  0.75277  1.0000
  H   H19       1.0  0.06200  0.30253  0.74723  1.0000
  H   H20       1.0  0.56200  0.19747  0.25277  1.0000
  H   H21       1.0  0.24723  0.43800  0.69747  1.0000
  H   H22       1.0  0.75277  0.93800  0.80253  1.0000
  H   H23       1.0  0.74723  0.06200  0.30253  1.0000
  H   H24       1.0  0.25277  0.56200  0.19747  1.0000
  C   C121      1.0  0.32710  0.79980  0.59680  1.0000
  C   C122      1.0  0.17290  0.20020  0.09680  1.0000
  C   C123      1.0  0.67290  0.29980  0.90320  1.0000
  C   C124      1.0  0.82710  0.70020  0.40320  1.0000
  C   C125      1.0  0.59680  0.32710  0.79980  1.0000
  C   C126      1.0  0.09680  0.17290  0.20020  1.0000
  C   C127      1.0  0.90320  0.67290  0.29980  1.0000
  C   C128      1.0  0.40320  0.82710  0.70020  1.0000
  C   C129      1.0  0.79980  0.59680  0.32710  1.0000
  C   C130      1.0  0.20020  0.09680  0.17290  1.0000
  C   C131      1.0  0.29980  0.90320  0.67290  1.0000
  C   C132      1.0  0.70020  0.40320  0.82710  1.0000
  C   C133      1.0  0.67290  0.20020  0.40320  1.0000
  C   C134      1.0  0.82710  0.79980  0.90320  1.0000
  C   C135      1.0  0.32710  0.70020  0.09680  1.0000
  C   C136      1.0  0.17290  0.29980  0.59680  1.0000
  C   C137      1.0  0.40320  0.67290  0.20020  1.0000
  C   C138      1.0  0.90320  0.82710  0.79980  1.0000
  C   C139      1.0  0.09680  0.32710  0.70020  1.0000
  C   C140      1.0  0.59680  0.17290  0.29980  1.0000
  C   C141      1.0  0.20020  0.40320  0.67290  1.0000
  C   C142      1.0  0.79980  0.90320  0.82710  1.0000
  C   C143      1.0  0.70020  0.09680  0.32710  1.0000
  C   C144      1.0  0.29980  0.59680  0.17290  1.0000
  H   H25       1.0  0.30062  0.80502  0.61132  1.0000
  H   H26       1.0  0.19938  0.19498  0.11132  1.0000
  H   H27       1.0  0.69938  0.30502  0.88868  1.0000
  H   H28       1.0  0.80062  0.69498  0.38868  1.0000
  H   H29       1.0  0.61132  0.30062  0.80502  1.0000
  H   H30       1.0  0.11132  0.19938  0.19498  1.0000
  H   H31       1.0  0.88868  0.69938  0.30502  1.0000
  H   H32       1.0  0.38868  0.80062  0.69498  1.0000
  H   H33       1.0  0.80502  0.61132  0.30062  1.0000
  H   H34       1.0  0.19498  0.11132  0.19938  1.0000
  H   H35       1.0  0.30502  0.88868  0.69938  1.0000
  H   H36       1.0  0.69498  0.38868  0.80062  1.0000
  H   H37       1.0  0.69938  0.19498  0.38868  1.0000
  H   H38       1.0  0.80062  0.80502  0.88868  1.0000
  H   H39       1.0  0.30062  0.69498  0.11132  1.0000
  H   H40       1.0  0.19938  0.30502  0.61132  1.0000
  H   H41       1.0  0.38868  0.69938  0.19498  1.0000
  H   H42       1.0  0.88868  0.80062  0.80502  1.0000
  H   H43       1.0  0.11132  0.30062  0.69498  1.0000
  H   H44       1.0  0.61132  0.19938  0.30502  1.0000
  H   H45       1.0  0.19498  0.38868  0.69938  1.0000
  H   H46       1.0  0.80502  0.88868  0.80062  1.0000
  H   H47       1.0  0.69498  0.11132  0.30062  1.0000
  H   H48       1.0  0.30502  0.61132  0.19938  1.0000
  C   C145      1.0  0.36210  0.82630  0.60700  1.0000
  C   C146      1.0  0.13790  0.17370  0.10700  1.0000
  C   C147      1.0  0.63790  0.32630  0.89300  1.0000
  C   C148      1.0  0.86210  0.67370  0.39300  1.0000
  C   C149      1.0  0.60700  0.36210  0.82630  1.0000
  C   C150      1.0  0.10700  0.13790  0.17370  1.0000
  C   C151      1.0  0.89300  0.63790  0.32630  1.0000
  C   C152      1.0  0.39300  0.86210  0.67370  1.0000
  C   C153      1.0  0.82630  0.60700  0.36210  1.0000
  C   C154      1.0  0.17370  0.10700  0.13790  1.0000
  C   C155      1.0  0.32630  0.89300  0.63790  1.0000
  C   C156      1.0  0.67370  0.39300  0.86210  1.0000
  C   C157      1.0  0.63790  0.17370  0.39300  1.0000
  C   C158      1.0  0.86210  0.82630  0.89300  1.0000
  C   C159      1.0  0.36210  0.67370  0.10700  1.0000
  C   C160      1.0  0.13790  0.32630  0.60700  1.0000
  C   C161      1.0  0.39300  0.63790  0.17370  1.0000
  C   C162      1.0  0.89300  0.86210  0.82630  1.0000
  C   C163      1.0  0.10700  0.36210  0.67370  1.0000
  C   C164      1.0  0.60700  0.13790  0.32630  1.0000
  C   C165      1.0  0.17370  0.39300  0.63790  1.0000
  C   C166      1.0  0.82630  0.89300  0.86210  1.0000
  C   C167      1.0  0.67370  0.10700  0.36210  1.0000
  C   C168      1.0  0.32630  0.60700  0.13790  1.0000
  C   C169      1.0  0.40280  0.81440  0.59040  1.0000
  C   C170      1.0  0.09720  0.18560  0.09040  1.0000
  C   C171      1.0  0.59720  0.31440  0.90960  1.0000
  C   C172      1.0  0.90280  0.68560  0.40960  1.0000
  C   C173      1.0  0.59040  0.40280  0.81440  1.0000
  C   C174      1.0  0.09040  0.09720  0.18560  1.0000
  C   C175      1.0  0.90960  0.59720  0.31440  1.0000
  C   C176      1.0  0.40960  0.90280  0.68560  1.0000
  C   C177      1.0  0.81440  0.59040  0.40280  1.0000
  C   C178      1.0  0.18560  0.09040  0.09720  1.0000
  C   C179      1.0  0.31440  0.90960  0.59720  1.0000
  C   C180      1.0  0.68560  0.40960  0.90280  1.0000
  C   C181      1.0  0.59720  0.18560  0.40960  1.0000
  C   C182      1.0  0.90280  0.81440  0.90960  1.0000
  C   C183      1.0  0.40280  0.68560  0.09040  1.0000
  C   C184      1.0  0.09720  0.31440  0.59040  1.0000
  C   C185      1.0  0.40960  0.59720  0.18560  1.0000
  C   C186      1.0  0.90960  0.90280  0.81440  1.0000
  C   C187      1.0  0.09040  0.40280  0.68560  1.0000
  C   C188      1.0  0.59040  0.09720  0.31440  1.0000
  C   C189      1.0  0.18560  0.40960  0.59720  1.0000
  C   C190      1.0  0.81440  0.90960  0.90280  1.0000
  C   C191      1.0  0.68560  0.09040  0.40280  1.0000
  C   C192      1.0  0.31440  0.59040  0.09720  1.0000
  H   H49       1.0  0.42833  0.82925  0.59858  1.0000
  H   H50       1.0  0.07167  0.17075  0.09858  1.0000
  H   H51       1.0  0.57167  0.32925  0.90142  1.0000
  H   H52       1.0  0.92833  0.67075  0.40142  1.0000
  H   H53       1.0  0.59858  0.42833  0.82925  1.0000
  H   H54       1.0  0.09858  0.07167  0.17075  1.0000
  H   H55       1.0  0.90142  0.57167  0.32925  1.0000
  H   H56       1.0  0.40142  0.92833  0.67075  1.0000
  H   H57       1.0  0.82925  0.59858  0.42833  1.0000
  H   H58       1.0  0.17075  0.09858  0.07167  1.0000
  H   H59       1.0  0.32925  0.90142  0.57167  1.0000
  H   H60       1.0  0.67075  0.40142  0.92833  1.0000
  H   H61       1.0  0.57167  0.17075  0.40142  1.0000
  H   H62       1.0  0.92833  0.82925  0.90142  1.0000
  H   H63       1.0  0.42833  0.67075  0.09858  1.0000
  H   H64       1.0  0.07167  0.32925  0.59858  1.0000
  H   H65       1.0  0.40142  0.57167  0.17075  1.0000
  H   H66       1.0  0.90142  0.92833  0.82925  1.0000
  H   H67       1.0  0.09858  0.42833  0.67075  1.0000
  H   H68       1.0  0.59858  0.07167  0.32925  1.0000
  H   H69       1.0  0.17075  0.40142  0.57167  1.0000
  H   H70       1.0  0.82925  0.90142  0.92833  1.0000
  H   H71       1.0  0.67075  0.09858  0.42833  1.0000
  H   H72       1.0  0.32925  0.59858  0.07167  1.0000
  C   C193      1.0  0.40420  0.77800  0.55990  1.0000
  C   C194      1.0  0.09580  0.22200  0.05990  1.0000
  C   C195      1.0  0.59580  0.27800  0.94010  1.0000
  C   C196      1.0  0.90420  0.72200  0.44010  1.0000
  C   C197      1.0  0.55990  0.40420  0.77800  1.0000
  C   C198      1.0  0.05990  0.09580  0.22200  1.0000
  C   C199      1.0  0.94010  0.59580  0.27800  1.0000
  C   C200      1.0  0.44010  0.90420  0.72200  1.0000
  C   C201      1.0  0.77800  0.55990  0.40420  1.0000
  C   C202      1.0  0.22200  0.05990  0.09580  1.0000
  C   C203      1.0  0.27800  0.94010  0.59580  1.0000
  C   C204      1.0  0.72200  0.44010  0.90420  1.0000
  C   C205      1.0  0.59580  0.22200  0.44010  1.0000
  C   C206      1.0  0.90420  0.77800  0.94010  1.0000
  C   C207      1.0  0.40420  0.72200  0.05990  1.0000
  C   C208      1.0  0.09580  0.27800  0.55990  1.0000
  C   C209      1.0  0.44010  0.59580  0.22200  1.0000
  C   C210      1.0  0.94010  0.90420  0.77800  1.0000
  C   C211      1.0  0.05990  0.40420  0.72200  1.0000
  C   C212      1.0  0.55990  0.09580  0.27800  1.0000
  C   C213      1.0  0.22200  0.44010  0.59580  1.0000
  C   C214      1.0  0.77800  0.94010  0.90420  1.0000
  C   C215      1.0  0.72200  0.05990  0.40420  1.0000
  C   C216      1.0  0.27800  0.55990  0.09580  1.0000
  H   H73       1.0  0.43083  0.76849  0.54800  1.0000
  H   H74       1.0  0.06917  0.23151  0.04800  1.0000
  H   H75       1.0  0.56917  0.26849  0.95200  1.0000
  H   H76       1.0  0.93083  0.73151  0.45200  1.0000
  H   H77       1.0  0.54800  0.43083  0.76849  1.0000
  H   H78       1.0  0.04800  0.06917  0.23151  1.0000
  H   H79       1.0  0.95200  0.56917  0.26849  1.0000
  H   H80       1.0  0.45200  0.93083  0.73151  1.0000
  H   H81       1.0  0.76849  0.54800  0.43083  1.0000
  H   H82       1.0  0.23151  0.04800  0.06917  1.0000
  H   H83       1.0  0.26849  0.95200  0.56917  1.0000
  H   H84       1.0  0.73151  0.45200  0.93083  1.0000
  H   H85       1.0  0.56917  0.23151  0.45200  1.0000
  H   H86       1.0  0.93083  0.76849  0.95200  1.0000
  H   H87       1.0  0.43083  0.73151  0.04800  1.0000
  H   H88       1.0  0.06917  0.26849  0.54800  1.0000
  H   H89       1.0  0.45200  0.56917  0.23151  1.0000
  H   H90       1.0  0.95200  0.93083  0.76849  1.0000
  H   H91       1.0  0.04800  0.43083  0.73151  1.0000
  H   H92       1.0  0.54800  0.06917  0.26849  1.0000
  H   H93       1.0  0.23151  0.45200  0.56917  1.0000
  H   H94       1.0  0.76849  0.95200  0.93083  1.0000
  H   H95       1.0  0.73151  0.04800  0.43083  1.0000
  H   H96       1.0  0.26849  0.54800  0.06917  1.0000
  C   C217      1.0  0.35850  0.68610  0.38880  1.0000
  C   C218      1.0  0.14150  0.31390  0.88880  1.0000
  C   C219      1.0  0.64150  0.18610  0.11120  1.0000
  C   C220      1.0  0.85850  0.81390  0.61120  1.0000
  C   C221      1.0  0.38880  0.35850  0.68610  1.0000
  C   C222      1.0  0.88880  0.14150  0.31390  1.0000
  C   C223      1.0  0.11120  0.64150  0.18610  1.0000
  C   C224      1.0  0.61120  0.85850  0.81390  1.0000
  C   C225      1.0  0.68610  0.38880  0.35850  1.0000
  C   C226      1.0  0.31390  0.88880  0.14150  1.0000
  C   C227      1.0  0.18610  0.11120  0.64150  1.0000
  C   C228      1.0  0.81390  0.61120  0.85850  1.0000
  C   C229      1.0  0.64150  0.31390  0.61120  1.0000
  C   C230      1.0  0.85850  0.68610  0.11120  1.0000
  C   C231      1.0  0.35850  0.81390  0.88880  1.0000
  C   C232      1.0  0.14150  0.18610  0.38880  1.0000
  C   C233      1.0  0.61120  0.64150  0.31390  1.0000
  C   C234      1.0  0.11120  0.85850  0.68610  1.0000
  C   C235      1.0  0.88880  0.35850  0.81390  1.0000
  C   C236      1.0  0.38880  0.14150  0.18610  1.0000
  C   C237      1.0  0.31390  0.61120  0.64150  1.0000
  C   C238      1.0  0.68610  0.11120  0.85850  1.0000
  C   C239      1.0  0.81390  0.88880  0.35850  1.0000
  C   C240      1.0  0.18610  0.38880  0.14150  1.0000
  C   C241      1.0  0.33160  0.70170  0.34930  1.0000
  C   C242      1.0  0.16840  0.29830  0.84930  1.0000
  C   C243      1.0  0.66840  0.20170  0.15070  1.0000
  C   C244      1.0  0.83160  0.79830  0.65070  1.0000
  C   C245      1.0  0.34930  0.33160  0.70170  1.0000
  C   C246      1.0  0.84930  0.16840  0.29830  1.0000
  C   C247      1.0  0.15070  0.66840  0.20170  1.0000
  C   C248      1.0  0.65070  0.83160  0.79830  1.0000
  C   C249      1.0  0.70170  0.34930  0.33160  1.0000
  C   C250      1.0  0.29830  0.84930  0.16840  1.0000
  C   C251      1.0  0.20170  0.15070  0.66840  1.0000
  C   C252      1.0  0.79830  0.65070  0.83160  1.0000
  C   C253      1.0  0.66840  0.29830  0.65070  1.0000
  C   C254      1.0  0.83160  0.70170  0.15070  1.0000
  C   C255      1.0  0.33160  0.79830  0.84930  1.0000
  C   C256      1.0  0.16840  0.20170  0.34930  1.0000
  C   C257      1.0  0.65070  0.66840  0.29830  1.0000
  C   C258      1.0  0.15070  0.83160  0.70170  1.0000
  C   C259      1.0  0.84930  0.33160  0.79830  1.0000
  C   C260      1.0  0.34930  0.16840  0.20170  1.0000
  C   C261      1.0  0.29830  0.65070  0.66840  1.0000
  C   C262      1.0  0.70170  0.15070  0.83160  1.0000
  C   C263      1.0  0.79830  0.84930  0.33160  1.0000
  C   C264      1.0  0.20170  0.34930  0.16840  1.0000
  C   C265      1.0  0.35360  0.71680  0.31230  1.0000
  C   C266      1.0  0.14640  0.28320  0.81230  1.0000
  C   C267      1.0  0.64640  0.21680  0.18770  1.0000
  C   C268      1.0  0.85360  0.78320  0.68770  1.0000
  C   C269      1.0  0.31230  0.35360  0.71680  1.0000
  C   C270      1.0  0.81230  0.14640  0.28320  1.0000
  C   C271      1.0  0.18770  0.64640  0.21680  1.0000
  C   C272      1.0  0.68770  0.85360  0.78320  1.0000
  C   C273      1.0  0.71680  0.31230  0.35360  1.0000
  C   C274      1.0  0.28320  0.81230  0.14640  1.0000
  C   C275      1.0  0.21680  0.18770  0.64640  1.0000
  C   C276      1.0  0.78320  0.68770  0.85360  1.0000
  C   C277      1.0  0.64640  0.28320  0.68770  1.0000
  C   C278      1.0  0.85360  0.71680  0.18770  1.0000
  C   C279      1.0  0.35360  0.78320  0.81230  1.0000
  C   C280      1.0  0.14640  0.21680  0.31230  1.0000
  C   C281      1.0  0.68770  0.64640  0.28320  1.0000
  C   C282      1.0  0.18770  0.85360  0.71680  1.0000
  C   C283      1.0  0.81230  0.35360  0.78320  1.0000
  C   C284      1.0  0.31230  0.14640  0.21680  1.0000
  C   C285      1.0  0.28320  0.68770  0.64640  1.0000
  C   C286      1.0  0.71680  0.18770  0.85360  1.0000
  C   C287      1.0  0.78320  0.81230  0.35360  1.0000
  C   C288      1.0  0.21680  0.31230  0.14640  1.0000
  H   H97       1.0  0.38420  0.71723  0.31146  1.0000
  H   H98       1.0  0.11580  0.28277  0.81146  1.0000
  H   H99       1.0  0.61580  0.21723  0.18854  1.0000
  H   H100      1.0  0.88420  0.78277  0.68854  1.0000
  H   H101      1.0  0.31146  0.38420  0.71723  1.0000
  H   H102      1.0  0.81146  0.11580  0.28277  1.0000
  H   H103      1.0  0.18854  0.61580  0.21723  1.0000
  H   H104      1.0  0.68854  0.88420  0.78277  1.0000
  H   H105      1.0  0.71723  0.31146  0.38420  1.0000
  H   H106      1.0  0.28277  0.81146  0.11580  1.0000
  H   H107      1.0  0.21723  0.18854  0.61580  1.0000
  H   H108      1.0  0.78277  0.68854  0.88420  1.0000
  H   H109      1.0  0.61580  0.28277  0.68854  1.0000
  H   H110      1.0  0.88420  0.71723  0.18854  1.0000
  H   H111      1.0  0.38420  0.78277  0.81146  1.0000
  H   H112      1.0  0.11580  0.21723  0.31146  1.0000
  H   H113      1.0  0.68854  0.61580  0.28277  1.0000
  H   H114      1.0  0.18854  0.88420  0.71723  1.0000
  H   H115      1.0  0.81146  0.38420  0.78277  1.0000
  H   H116      1.0  0.31146  0.11580  0.21723  1.0000
  H   H117      1.0  0.28277  0.68854  0.61580  1.0000
  H   H118      1.0  0.71723  0.18854  0.88420  1.0000
  H   H119      1.0  0.78277  0.81146  0.38420  1.0000
  H   H120      1.0  0.21723  0.31146  0.11580  1.0000
  C   C289      1.0  0.32950  0.73100  0.27700  1.0000
  C   C290      1.0  0.17050  0.26900  0.77700  1.0000
  C   C291      1.0  0.67050  0.23100  0.22300  1.0000
  C   C292      1.0  0.82950  0.76900  0.72300  1.0000
  C   C293      1.0  0.27700  0.32950  0.73100  1.0000
  C   C294      1.0  0.77700  0.17050  0.26900  1.0000
  C   C295      1.0  0.22300  0.67050  0.23100  1.0000
  C   C296      1.0  0.72300  0.82950  0.76900  1.0000
  C   C297      1.0  0.73100  0.27700  0.32950  1.0000
  C   C298      1.0  0.26900  0.77700  0.17050  1.0000
  C   C299      1.0  0.23100  0.22300  0.67050  1.0000
  C   C300      1.0  0.76900  0.72300  0.82950  1.0000
  C   C301      1.0  0.67050  0.26900  0.72300  1.0000
  C   C302      1.0  0.82950  0.73100  0.22300  1.0000
  C   C303      1.0  0.32950  0.76900  0.77700  1.0000
  C   C304      1.0  0.17050  0.23100  0.27700  1.0000
  C   C305      1.0  0.72300  0.67050  0.26900  1.0000
  C   C306      1.0  0.22300  0.82950  0.73100  1.0000
  C   C307      1.0  0.77700  0.32950  0.76900  1.0000
  C   C308      1.0  0.27700  0.17050  0.23100  1.0000
  C   C309      1.0  0.26900  0.72300  0.67050  1.0000
  C   C310      1.0  0.73100  0.22300  0.82950  1.0000
  C   C311      1.0  0.76900  0.77700  0.32950  1.0000
  C   C312      1.0  0.23100  0.27700  0.17050  1.0000
  H   H121      1.0  0.34370  0.74229  0.25231  1.0000
  H   H122      1.0  0.15630  0.25771  0.75231  1.0000
  H   H123      1.0  0.65630  0.24229  0.24769  1.0000
  H   H124      1.0  0.84370  0.75771  0.74769  1.0000
  H   H125      1.0  0.25231  0.34370  0.74229  1.0000
  H   H126      1.0  0.75231  0.15630  0.25771  1.0000
  H   H127      1.0  0.24769  0.65630  0.24229  1.0000
  H   H128      1.0  0.74769  0.84370  0.75771  1.0000
  H   H129      1.0  0.74229  0.25231  0.34370  1.0000
  H   H130      1.0  0.25771  0.75231  0.15630  1.0000
  H   H131      1.0  0.24229  0.24769  0.65630  1.0000
  H   H132      1.0  0.75771  0.74769  0.84370  1.0000
  H   H133      1.0  0.65630  0.25771  0.74769  1.0000
  H   H134      1.0  0.84370  0.74229  0.24769  1.0000
  H   H135      1.0  0.34370  0.75771  0.75231  1.0000
  H   H136      1.0  0.15630  0.24229  0.25231  1.0000
  H   H137      1.0  0.74769  0.65630  0.25771  1.0000
  H   H138      1.0  0.24769  0.84370  0.74229  1.0000
  H   H139      1.0  0.75231  0.34370  0.75771  1.0000
  H   H140      1.0  0.25231  0.15630  0.24229  1.0000
  H   H141      1.0  0.25771  0.74769  0.65630  1.0000
  H   H142      1.0  0.74229  0.24769  0.84370  1.0000
  H   H143      1.0  0.75771  0.75231  0.34370  1.0000
  H   H144      1.0  0.24229  0.25231  0.15630  1.0000
  C   C313      1.0  0.28330  0.72850  0.27780  1.0000
  C   C314      1.0  0.21670  0.27150  0.77780  1.0000
  C   C315      1.0  0.71670  0.22850  0.22220  1.0000
  C   C316      1.0  0.78330  0.77150  0.72220  1.0000
  C   C317      1.0  0.27780  0.28330  0.72850  1.0000
  C   C318      1.0  0.77780  0.21670  0.27150  1.0000
  C   C319      1.0  0.22220  0.71670  0.22850  1.0000
  C   C320      1.0  0.72220  0.78330  0.77150  1.0000
  C   C321      1.0  0.72850  0.27780  0.28330  1.0000
  C   C322      1.0  0.27150  0.77780  0.21670  1.0000
  C   C323      1.0  0.22850  0.22220  0.71670  1.0000
  C   C324      1.0  0.77150  0.72220  0.78330  1.0000
  C   C325      1.0  0.71670  0.27150  0.72220  1.0000
  C   C326      1.0  0.78330  0.72850  0.22220  1.0000
  C   C327      1.0  0.28330  0.77150  0.77780  1.0000
  C   C328      1.0  0.21670  0.22850  0.27780  1.0000
  C   C329      1.0  0.72220  0.71670  0.27150  1.0000
  C   C330      1.0  0.22220  0.78330  0.72850  1.0000
  C   C331      1.0  0.77780  0.28330  0.77150  1.0000
  C   C332      1.0  0.27780  0.21670  0.22850  1.0000
  C   C333      1.0  0.27150  0.72220  0.71670  1.0000
  C   C334      1.0  0.72850  0.22220  0.78330  1.0000
  C   C335      1.0  0.77150  0.77780  0.28330  1.0000
  C   C336      1.0  0.22850  0.27780  0.21670  1.0000
  C   C337      1.0  0.26310  0.71290  0.31490  1.0000
  C   C338      1.0  0.23690  0.28710  0.81490  1.0000
  C   C339      1.0  0.73690  0.21290  0.18510  1.0000
  C   C340      1.0  0.76310  0.78710  0.68510  1.0000
  C   C341      1.0  0.31490  0.26310  0.71290  1.0000
  C   C342      1.0  0.81490  0.23690  0.28710  1.0000
  C   C343      1.0  0.18510  0.73690  0.21290  1.0000
  C   C344      1.0  0.68510  0.76310  0.78710  1.0000
  C   C345      1.0  0.71290  0.31490  0.26310  1.0000
  C   C346      1.0  0.28710  0.81490  0.23690  1.0000
  C   C347      1.0  0.21290  0.18510  0.73690  1.0000
  C   C348      1.0  0.78710  0.68510  0.76310  1.0000
  C   C349      1.0  0.73690  0.28710  0.68510  1.0000
  C   C350      1.0  0.76310  0.71290  0.18510  1.0000
  C   C351      1.0  0.26310  0.78710  0.81490  1.0000
  C   C352      1.0  0.23690  0.21290  0.31490  1.0000
  C   C353      1.0  0.68510  0.73690  0.28710  1.0000
  C   C354      1.0  0.18510  0.76310  0.71290  1.0000
  C   C355      1.0  0.81490  0.26310  0.78710  1.0000
  C   C356      1.0  0.31490  0.23690  0.21290  1.0000
  C   C357      1.0  0.28710  0.68510  0.73690  1.0000
  C   C358      1.0  0.71290  0.18510  0.76310  1.0000
  C   C359      1.0  0.78710  0.81490  0.26310  1.0000
  C   C360      1.0  0.21290  0.31490  0.23690  1.0000
  H   H145      1.0  0.23251  0.71189  0.31585  1.0000
  H   H146      1.0  0.26749  0.28811  0.81585  1.0000
  H   H147      1.0  0.76749  0.21189  0.18415  1.0000
  H   H148      1.0  0.73251  0.78811  0.68415  1.0000
  H   H149      1.0  0.31585  0.23251  0.71189  1.0000
  H   H150      1.0  0.81585  0.26749  0.28811  1.0000
  H   H151      1.0  0.18415  0.76749  0.21189  1.0000
  H   H152      1.0  0.68415  0.73251  0.78811  1.0000
  H   H153      1.0  0.71189  0.31585  0.23251  1.0000
  H   H154      1.0  0.28811  0.81585  0.26749  1.0000
  H   H155      1.0  0.21189  0.18415  0.76749  1.0000
  H   H156      1.0  0.78811  0.68415  0.73251  1.0000
  H   H157      1.0  0.76749  0.28811  0.68415  1.0000
  H   H158      1.0  0.73251  0.71189  0.18415  1.0000
  H   H159      1.0  0.23251  0.78811  0.81585  1.0000
  H   H160      1.0  0.26749  0.21189  0.31585  1.0000
  H   H161      1.0  0.68415  0.76749  0.28811  1.0000
  H   H162      1.0  0.18415  0.73251  0.71189  1.0000
  H   H163      1.0  0.81585  0.23251  0.78811  1.0000
  H   H164      1.0  0.31585  0.26749  0.21189  1.0000
  H   H165      1.0  0.28811  0.68415  0.76749  1.0000
  H   H166      1.0  0.71189  0.18415  0.73251  1.0000
  H   H167      1.0  0.78811  0.81585  0.23251  1.0000
  H   H168      1.0  0.21189  0.31585  0.26749  1.0000
  C   C361      1.0  0.28750  0.69830  0.35230  1.0000
  C   C362      1.0  0.21250  0.30170  0.85230  1.0000
  C   C363      1.0  0.71250  0.19830  0.14770  1.0000
  C   C364      1.0  0.78750  0.80170  0.64770  1.0000
  C   C365      1.0  0.35230  0.28750  0.69830  1.0000
  C   C366      1.0  0.85230  0.21250  0.30170  1.0000
  C   C367      1.0  0.14770  0.71250  0.19830  1.0000
  C   C368      1.0  0.64770  0.78750  0.80170  1.0000
  C   C369      1.0  0.69830  0.35230  0.28750  1.0000
  C   C370      1.0  0.30170  0.85230  0.21250  1.0000
  C   C371      1.0  0.19830  0.14770  0.71250  1.0000
  C   C372      1.0  0.80170  0.64770  0.78750  1.0000
  C   C373      1.0  0.71250  0.30170  0.64770  1.0000
  C   C374      1.0  0.78750  0.69830  0.14770  1.0000
  C   C375      1.0  0.28750  0.80170  0.85230  1.0000
  C   C376      1.0  0.21250  0.19830  0.35230  1.0000
  C   C377      1.0  0.64770  0.71250  0.30170  1.0000
  C   C378      1.0  0.14770  0.78750  0.69830  1.0000
  C   C379      1.0  0.85230  0.28750  0.80170  1.0000
  C   C380      1.0  0.35230  0.21250  0.19830  1.0000
  C   C381      1.0  0.30170  0.64770  0.71250  1.0000
  C   C382      1.0  0.69830  0.14770  0.78750  1.0000
  C   C383      1.0  0.80170  0.85230  0.28750  1.0000
  C   C384      1.0  0.19830  0.35230  0.21250  1.0000
  H   H169      1.0  0.27369  0.68710  0.37728  1.0000
  H   H170      1.0  0.22631  0.31290  0.87728  1.0000
  H   H171      1.0  0.72631  0.18710  0.12272  1.0000
  H   H172      1.0  0.77369  0.81290  0.62272  1.0000
  H   H173      1.0  0.37728  0.27369  0.68710  1.0000
  H   H174      1.0  0.87728  0.22631  0.31290  1.0000
  H   H175      1.0  0.12272  0.72631  0.18710  1.0000
  H   H176      1.0  0.62272  0.77369  0.81290  1.0000
  H   H177      1.0  0.68710  0.37728  0.27369  1.0000
  H   H178      1.0  0.31290  0.87728  0.22631  1.0000
  H   H179      1.0  0.18710  0.12272  0.72631  1.0000
  H   H180      1.0  0.81290  0.62272  0.77369  1.0000
  H   H181      1.0  0.72631  0.31290  0.62272  1.0000
  H   H182      1.0  0.77369  0.68710  0.12272  1.0000
  H   H183      1.0  0.27369  0.81290  0.87728  1.0000
  H   H184      1.0  0.22631  0.18710  0.37728  1.0000
  H   H185      1.0  0.62272  0.72631  0.31290  1.0000
  H   H186      1.0  0.12272  0.77369  0.68710  1.0000
  H   H187      1.0  0.87728  0.27369  0.81290  1.0000
  H   H188      1.0  0.37728  0.22631  0.18710  1.0000
  H   H189      1.0  0.31290  0.62272  0.72631  1.0000
  H   H190      1.0  0.68710  0.12272  0.77369  1.0000
  H   H191      1.0  0.81290  0.87728  0.27369  1.0000
  H   H192      1.0  0.18710  0.37728  0.22631  1.0000
  N   N1        1.0  0.36100  0.86100  0.63900  1.0000
  N   N2        1.0  0.13900  0.13900  0.13900  1.0000
  N   N3        1.0  0.63900  0.36100  0.86100  1.0000
  N   N4        1.0  0.86100  0.63900  0.36100  1.0000
  N   N5        1.0  0.63900  0.13900  0.36100  1.0000
  N   N6        1.0  0.86100  0.86100  0.86100  1.0000
  N   N7        1.0  0.36100  0.63900  0.13900  1.0000
  N   N8        1.0  0.13900  0.36100  0.63900  1.0000
  N   N9        1.0  0.25820  0.74180  0.24180  1.0000
  N   N10       1.0  0.24180  0.25820  0.74180  1.0000
  N   N11       1.0  0.74180  0.24180  0.25820  1.0000
  N   N12       1.0  0.75820  0.75820  0.75820  1.0000
  N   N13       1.0  0.74180  0.25820  0.75820  1.0000
  N   N14       1.0  0.75820  0.74180  0.25820  1.0000
  N   N15       1.0  0.25820  0.75820  0.74180  1.0000
  N   N16       1.0  0.24180  0.24180  0.24180  1.0000
  O   O1        1.0  0.46680  0.66620  0.44830  1.0000
  O   O2        1.0  0.03320  0.33380  0.94830  1.0000
  O   O3        1.0  0.53320  0.16620  0.05170  1.0000
  O   O4        1.0  0.96680  0.83380  0.55170  1.0000
  O   O5        1.0  0.44830  0.46680  0.66620  1.0000
  O   O6        1.0  0.94830  0.03320  0.33380  1.0000
  O   O7        1.0  0.05170  0.53320  0.16620  1.0000
  O   O8        1.0  0.55170  0.96680  0.83380  1.0000
  O   O9        1.0  0.66620  0.44830  0.46680  1.0000
  O   O10       1.0  0.33380  0.94830  0.03320  1.0000
  O   O11       1.0  0.16620  0.05170  0.53320  1.0000
  O   O12       1.0  0.83380  0.55170  0.96680  1.0000
  O   O13       1.0  0.53320  0.33380  0.55170  1.0000
  O   O14       1.0  0.96680  0.66620  0.05170  1.0000
  O   O15       1.0  0.46680  0.83380  0.94830  1.0000
  O   O16       1.0  0.03320  0.16620  0.44830  1.0000
  O   O17       1.0  0.55170  0.53320  0.33380  1.0000
  O   O18       1.0  0.05170  0.96680  0.66620  1.0000
  O   O19       1.0  0.94830  0.46680  0.83380  1.0000
  O   O20       1.0  0.44830  0.03320  0.16620  1.0000
  O   O21       1.0  0.33380  0.55170  0.53320  1.0000
  O   O22       1.0  0.66620  0.05170  0.96680  1.0000
  O   O23       1.0  0.83380  0.94830  0.46680  1.0000
  O   O24       1.0  0.16620  0.44830  0.03320  1.0000
  O   O25       1.0  0.51830  0.65100  0.39930  1.0000
  O   O26       1.0  0.98170  0.34900  0.89930  1.0000
  O   O27       1.0  0.48170  0.15100  0.10070  1.0000
  O   O28       1.0  0.01830  0.84900  0.60070  1.0000
  O   O29       1.0  0.39930  0.51830  0.65100  1.0000
  O   O30       1.0  0.89930  0.98170  0.34900  1.0000
  O   O31       1.0  0.10070  0.48170  0.15100  1.0000
  O   O32       1.0  0.60070  0.01830  0.84900  1.0000
  O   O33       1.0  0.65100  0.39930  0.51830  1.0000
  O   O34       1.0  0.34900  0.89930  0.98170  1.0000
  O   O35       1.0  0.15100  0.10070  0.48170  1.0000
  O   O36       1.0  0.84900  0.60070  0.01830  1.0000
  O   O37       1.0  0.48170  0.34900  0.60070  1.0000
  O   O38       1.0  0.01830  0.65100  0.10070  1.0000
  O   O39       1.0  0.51830  0.84900  0.89930  1.0000
  O   O40       1.0  0.98170  0.15100  0.39930  1.0000
  O   O41       1.0  0.60070  0.48170  0.34900  1.0000
  O   O42       1.0  0.10070  0.01830  0.65100  1.0000
  O   O43       1.0  0.89930  0.51830  0.84900  1.0000
  O   O44       1.0  0.39930  0.98170  0.15100  1.0000
  O   O45       1.0  0.34900  0.60070  0.48170  1.0000
  O   O46       1.0  0.65100  0.10070  0.01830  1.0000
  O   O47       1.0  0.84900  0.89930  0.51830  1.0000
  O   O48       1.0  0.15100  0.39930  0.98170  1.0000
  O   O49       1.0  0.42120  0.59700  0.42130  1.0000
  O   O50       1.0  0.07880  0.40300  0.92130  1.0000
  O   O51       1.0  0.57880  0.09700  0.07870  1.0000
  O   O52       1.0  0.92120  0.90300  0.57870  1.0000
  O   O53       1.0  0.42130  0.42120  0.59700  1.0000
  O   O54       1.0  0.92130  0.07880  0.40300  1.0000
  O   O55       1.0  0.07870  0.57880  0.09700  1.0000
  O   O56       1.0  0.57870  0.92120  0.90300  1.0000
  O   O57       1.0  0.59700  0.42130  0.42120  1.0000
  O   O58       1.0  0.40300  0.92130  0.07880  1.0000
  O   O59       1.0  0.09700  0.07870  0.57880  1.0000
  O   O60       1.0  0.90300  0.57870  0.92120  1.0000
  O   O61       1.0  0.57880  0.40300  0.57870  1.0000
  O   O62       1.0  0.92120  0.59700  0.07870  1.0000
  O   O63       1.0  0.42120  0.90300  0.92130  1.0000
  O   O64       1.0  0.07880  0.09700  0.42130  1.0000
  O   O65       1.0  0.57870  0.57880  0.40300  1.0000
  O   O66       1.0  0.07870  0.92120  0.59700  1.0000
  O   O67       1.0  0.92130  0.42120  0.90300  1.0000
  O   O68       1.0  0.42130  0.07880  0.09700  1.0000
  O   O69       1.0  0.40300  0.57870  0.57880  1.0000
  O   O70       1.0  0.59700  0.07870  0.92120  1.0000
  O   O71       1.0  0.90300  0.92130  0.42120  1.0000
  O   O72       1.0  0.09700  0.42130  0.07880  1.0000
  O   O73       1.0  0.47520  0.57740  0.37700  1.0000
  O   O74       1.0  0.02480  0.42260  0.87700  1.0000
  O   O75       1.0  0.52480  0.07740  0.12300  1.0000
  O   O76       1.0  0.97520  0.92260  0.62300  1.0000
  O   O77       1.0  0.37700  0.47520  0.57740  1.0000
  O   O78       1.0  0.87700  0.02480  0.42260  1.0000
  O   O79       1.0  0.12300  0.52480  0.07740  1.0000
  O   O80       1.0  0.62300  0.97520  0.92260  1.0000
  O   O81       1.0  0.57740  0.37700  0.47520  1.0000
  O   O82       1.0  0.42260  0.87700  0.02480  1.0000
  O   O83       1.0  0.07740  0.12300  0.52480  1.0000
  O   O84       1.0  0.92260  0.62300  0.97520  1.0000
  O   O85       1.0  0.52480  0.42260  0.62300  1.0000
  O   O86       1.0  0.97520  0.57740  0.12300  1.0000
  O   O87       1.0  0.47520  0.92260  0.87700  1.0000
  O   O88       1.0  0.02480  0.07740  0.37700  1.0000
  O   O89       1.0  0.62300  0.52480  0.42260  1.0000
  O   O90       1.0  0.12300  0.97520  0.57740  1.0000
  O   O91       1.0  0.87700  0.47520  0.92260  1.0000
  O   O92       1.0  0.37700  0.02480  0.07740  1.0000
  O   O93       1.0  0.42260  0.62300  0.52480  1.0000
  O   O94       1.0  0.57740  0.12300  0.97520  1.0000
  O   O95       1.0  0.92260  0.87700  0.47520  1.0000
  O   O96       1.0  0.07740  0.37700  0.02480  1.0000
  O   O97       1.0  0.40450  0.71330  0.49510  1.0000
  O   O98       1.0  0.09550  0.28670  0.99510  1.0000
  O   O99       1.0  0.59550  0.21330  0.00490  1.0000
  O   O100      1.0  0.90450  0.78670  0.50490  1.0000
  O   O101      1.0  0.49510  0.40450  0.71330  1.0000
  O   O102      1.0  0.99510  0.09550  0.28670  1.0000
  O   O103      1.0  0.00490  0.59550  0.21330  1.0000
  O   O104      1.0  0.50490  0.90450  0.78670  1.0000
  O   O105      1.0  0.71330  0.49510  0.40450  1.0000
  O   O106      1.0  0.28670  0.99510  0.09550  1.0000
  O   O107      1.0  0.21330  0.00490  0.59550  1.0000
  O   O108      1.0  0.78670  0.50490  0.90450  1.0000
  O   O109      1.0  0.59550  0.28670  0.50490  1.0000
  O   O110      1.0  0.90450  0.71330  0.00490  1.0000
  O   O111      1.0  0.40450  0.78670  0.99510  1.0000
  O   O112      1.0  0.09550  0.21330  0.49510  1.0000
  O   O113      1.0  0.50490  0.59550  0.28670  1.0000
  O   O114      1.0  0.00490  0.90450  0.71330  1.0000
  O   O115      1.0  0.99510  0.40450  0.78670  1.0000
  O   O116      1.0  0.49510  0.09550  0.21330  1.0000
  O   O117      1.0  0.28670  0.50490  0.59550  1.0000
  O   O118      1.0  0.71330  0.00490  0.90450  1.0000
  O   O119      1.0  0.78670  0.99510  0.40450  1.0000
  O   O120      1.0  0.21330  0.49510  0.09550  1.0000
  O   O121      1.0  0.34350  0.69030  0.51780  1.0000
  O   O122      1.0  0.15650  0.30970  0.01780  1.0000
  O   O123      1.0  0.65650  0.19030  0.98220  1.0000
  O   O124      1.0  0.84350  0.80970  0.48220  1.0000
  O   O125      1.0  0.51780  0.34350  0.69030  1.0000
  O   O126      1.0  0.01780  0.15650  0.30970  1.0000
  O   O127      1.0  0.98220  0.65650  0.19030  1.0000
  O   O128      1.0  0.48220  0.84350  0.80970  1.0000
  O   O129      1.0  0.69030  0.51780  0.34350  1.0000
  O   O130      1.0  0.30970  0.01780  0.15650  1.0000
  O   O131      1.0  0.19030  0.98220  0.65650  1.0000
  O   O132      1.0  0.80970  0.48220  0.84350  1.0000
  O   O133      1.0  0.65650  0.30970  0.48220  1.0000
  O   O134      1.0  0.84350  0.69030  0.98220  1.0000
  O   O135      1.0  0.34350  0.80970  0.01780  1.0000
  O   O136      1.0  0.15650  0.19030  0.51780  1.0000
  O   O137      1.0  0.48220  0.65650  0.30970  1.0000
  O   O138      1.0  0.98220  0.84350  0.69030  1.0000
  O   O139      1.0  0.01780  0.34350  0.80970  1.0000
  O   O140      1.0  0.51780  0.15650  0.19030  1.0000
  O   O141      1.0  0.30970  0.48220  0.65650  1.0000
  O   O142      1.0  0.69030  0.98220  0.84350  1.0000
  O   O143      1.0  0.80970  0.01780  0.34350  1.0000
  O   O144      1.0  0.19030  0.51780  0.15650  1.0000
  O   O145      1.0  0.40010  0.69120  0.39060  1.0000
  O   O146      1.0  0.09990  0.30880  0.89060  1.0000
  O   O147      1.0  0.59990  0.19120  0.10940  1.0000
  O   O148      1.0  0.90010  0.80880  0.60940  1.0000
  O   O149      1.0  0.39060  0.40010  0.69120  1.0000
  O   O150      1.0  0.89060  0.09990  0.30880  1.0000
  O   O151      1.0  0.10940  0.59990  0.19120  1.0000
  O   O152      1.0  0.60940  0.90010  0.80880  1.0000
  O   O153      1.0  0.69120  0.39060  0.40010  1.0000
  O   O154      1.0  0.30880  0.89060  0.09990  1.0000
  O   O155      1.0  0.19120  0.10940  0.59990  1.0000
  O   O156      1.0  0.80880  0.60940  0.90010  1.0000
  O   O157      1.0  0.59990  0.30880  0.60940  1.0000
  O   O158      1.0  0.90010  0.69120  0.10940  1.0000
  O   O159      1.0  0.40010  0.80880  0.89060  1.0000
  O   O160      1.0  0.09990  0.19120  0.39060  1.0000
  O   O161      1.0  0.60940  0.59990  0.30880  1.0000
  O   O162      1.0  0.10940  0.90010  0.69120  1.0000
  O   O163      1.0  0.89060  0.40010  0.80880  1.0000
  O   O164      1.0  0.39060  0.09990  0.19120  1.0000
  O   O165      1.0  0.30880  0.60940  0.59990  1.0000
  O   O166      1.0  0.69120  0.10940  0.90010  1.0000
  O   O167      1.0  0.80880  0.89060  0.40010  1.0000
  O   O168      1.0  0.19120  0.39060  0.09990  1.0000
  O   O169      1.0  0.34000  0.66770  0.41860  1.0000
  O   O170      1.0  0.16000  0.33230  0.91860  1.0000
  O   O171      1.0  0.66000  0.16770  0.08140  1.0000
  O   O172      1.0  0.84000  0.83230  0.58140  1.0000
  O   O173      1.0  0.41860  0.34000  0.66770  1.0000
  O   O174      1.0  0.91860  0.16000  0.33230  1.0000
  O   O175      1.0  0.08140  0.66000  0.16770  1.0000
  O   O176      1.0  0.58140  0.84000  0.83230  1.0000
  O   O177      1.0  0.66770  0.41860  0.34000  1.0000
  O   O178      1.0  0.33230  0.91860  0.16000  1.0000
  O   O179      1.0  0.16770  0.08140  0.66000  1.0000
  O   O180      1.0  0.83230  0.58140  0.84000  1.0000
  O   O181      1.0  0.66000  0.33230  0.58140  1.0000
  O   O182      1.0  0.84000  0.66770  0.08140  1.0000
  O   O183      1.0  0.34000  0.83230  0.91860  1.0000
  O   O184      1.0  0.16000  0.16770  0.41860  1.0000
  O   O185      1.0  0.58140  0.66000  0.33230  1.0000
  O   O186      1.0  0.08140  0.84000  0.66770  1.0000
  O   O187      1.0  0.91860  0.34000  0.83230  1.0000
  O   O188      1.0  0.41860  0.16000  0.16770  1.0000
  O   O189      1.0  0.33230  0.58140  0.66000  1.0000
  O   O190      1.0  0.66770  0.08140  0.84000  1.0000
  O   O191      1.0  0.83230  0.91860  0.34000  1.0000
  O   O192      1.0  0.16770  0.41860  0.16000  1.0000
