data_image0
_chemical_formula_structural       Ag12Cu4S12C2H2C2H2C2H2C8H2C2H2C2H2C8H2C2H2C2H2C8H2C2H2C2H2C8H2C2H2C2H2C8H2C2H2C2H2C8H2C2H2C2H2C2H2C6H2C2H2C2H2C2H2C2H2C2H2C2H2C2H2C6H2C2H2C2H2C2H2N20O18H4O10H4
_chemical_formula_sum              "Ag12 Cu4 S12 C112 H76 N20 O28"
_cell_length_a       12.8443
_cell_length_b       15.9047
_cell_length_c       21.8952
_cell_angle_alpha    103.901
_cell_angle_beta     93.249
_cell_angle_gamma    102.625

_space_group_name_H-M_alt    "P 1"
_space_group_IT_number       1

loop_
  _space_group_symop_operation_xyz
  'x, y, z'

loop_
  _atom_site_type_symbol
  _atom_site_label
  _atom_site_symmetry_multiplicity
  _atom_site_fract_x
  _atom_site_fract_y
  _atom_site_fract_z
  _atom_site_occupancy
  Ag  Ag1       1.0  0.51991  0.91889  0.06612  1.0000
  Ag  Ag2       1.0  0.48009  0.08111  0.93388  1.0000
  Ag  Ag3       1.0  0.66786  0.06946  0.03928  1.0000
  Ag  Ag4       1.0  0.33214  0.93054  0.96072  1.0000
  Ag  Ag5       1.0  0.41540  0.07173  0.08316  1.0000
  Ag  Ag6       1.0  0.58460  0.92827  0.91684  1.0000
  Ag  Ag7       1.0  0.02358  0.93142  0.57982  1.0000
  Ag  Ag8       1.0  0.97642  0.06858  0.42018  1.0000
  Ag  Ag9       1.0  0.91967  0.07771  0.57903  1.0000
  Ag  Ag10      1.0  0.08033  0.92229  0.42097  1.0000
  Ag  Ag11      1.0  0.18731  0.06434  0.54359  1.0000
  Ag  Ag12      1.0  0.81269  0.93566  0.45641  1.0000
  Cu  Cu1       1.0  0.75015  0.35290  0.39455  1.0000
  Cu  Cu2       1.0  0.24985  0.64710  0.60545  1.0000
  Cu  Cu3       1.0  0.74630  0.61955  0.09299  1.0000
  Cu  Cu4       1.0  0.25370  0.38045  0.90701  1.0000
  S   S1        1.0  0.32470  0.85021  0.04501  1.0000
  S   S2        1.0  0.67530  0.14979  0.95499  1.0000
  S   S3        1.0  0.60030  0.12607  0.14122  1.0000
  S   S4        1.0  0.39970  0.87393  0.85878  1.0000
  S   S5        1.0  0.63790  0.85019  0.99465  1.0000
  S   S6        1.0  0.36210  0.14981  0.00535  1.0000
  S   S7        1.0  0.88260  0.15460  0.49805  1.0000
  S   S8        1.0  0.11740  0.84540  0.50195  1.0000
  S   S9        1.0  0.17190  0.13200  0.45158  1.0000
  S   S10       1.0  0.82810  0.86800  0.54842  1.0000
  S   S11       1.0  0.10400  0.14541  0.63401  1.0000
  S   S12       1.0  0.89600  0.85459  0.36599  1.0000
  C   C1        1.0  0.22860  0.03100  0.17090  1.0000
  C   C2        1.0  0.77140  0.96900  0.82910  1.0000
  H   H1        1.0  0.24490  0.09430  0.18450  1.0000
  H   H2        1.0  0.75510  0.90570  0.81550  1.0000
  C   C3        1.0  0.15120  0.98170  0.19910  1.0000
  C   C4        1.0  0.84880  0.01830  0.80090  1.0000
  H   H3        1.0  0.11250  0.01090  0.22980  1.0000
  H   H4        1.0  0.88750  0.98910  0.77020  1.0000
  C   C5        1.0  0.13190  0.89030  0.18180  1.0000
  C   C6        1.0  0.86810  0.10970  0.81820  1.0000
  H   H5        1.0  0.08240  0.85590  0.20230  1.0000
  H   H6        1.0  0.91760  0.14410  0.79770  1.0000
  C   C7        1.0  0.18450  0.84810  0.13440  1.0000
  C   C8        1.0  0.81550  0.15190  0.86560  1.0000
  C   C9        1.0  0.25890  0.90280  0.10620  1.0000
  C   C10       1.0  0.74110  0.09720  0.89380  1.0000
  C   C11       1.0  0.15910  0.74840  0.11350  1.0000
  C   C12       1.0  0.84090  0.25160  0.88650  1.0000
  C   C13       1.0  0.90420  0.03570  0.06040  1.0000
  C   C14       1.0  0.09580  0.96430  0.93960  1.0000
  H   H7        1.0  0.92390  0.09910  0.07150  1.0000
  H   H8        1.0  0.07610  0.90090  0.92850  1.0000
  C   C15       1.0  0.98280  0.99000  0.06720  1.0000
  C   C16       1.0  0.01720  0.01000  0.93280  1.0000
  H   H9        1.0  0.05530  0.02120  0.08130  1.0000
  H   H10       1.0  0.94470  0.97880  0.91870  1.0000
  C   C17       1.0  0.95340  0.89870  0.05310  1.0000
  C   C18       1.0  0.04660  0.10130  0.94690  1.0000
  H   H11       1.0  0.00560  0.86610  0.05840  1.0000
  H   H12       1.0  0.99440  0.13390  0.94160  1.0000
  C   C19       1.0  0.84790  0.85370  0.03110  1.0000
  C   C20       1.0  0.15210  0.14630  0.96890  1.0000
  C   C21       1.0  0.77200  0.90460  0.02400  1.0000
  C   C22       1.0  0.22800  0.09540  0.97600  1.0000
  C   C23       1.0  0.81020  0.75420  0.02160  1.0000
  C   C24       1.0  0.18980  0.24580  0.97840  1.0000
  C   C25       1.0  0.58470  0.91990  0.21300  1.0000
  C   C26       1.0  0.41530  0.08010  0.78700  1.0000
  H   H13       1.0  0.56560  0.85700  0.19610  1.0000
  H   H14       1.0  0.43440  0.14300  0.80390  1.0000
  C   C27       1.0  0.61720  0.95270  0.27680  1.0000
  C   C28       1.0  0.38280  0.04730  0.72320  1.0000
  H   H15       1.0  0.62230  0.91430  0.30350  1.0000
  H   H16       1.0  0.37770  0.08570  0.69650  1.0000
  C   C29       1.0  0.64260  0.04590  0.30050  1.0000
  C   C30       1.0  0.35740  0.95410  0.69950  1.0000
  H   H17       1.0  0.66650  0.07170  0.34420  1.0000
  H   H18       1.0  0.33350  0.92830  0.65580  1.0000
  C   C31       1.0  0.63330  0.10070  0.26090  1.0000
  C   C32       1.0  0.36670  0.89930  0.73910  1.0000
  C   C33       1.0  0.60340  0.05960  0.19600  1.0000
  C   C34       1.0  0.39660  0.94040  0.80400  1.0000
  C   C35       1.0  0.64950  0.19980  0.29180  1.0000
  C   C36       1.0  0.35050  0.80020  0.70820  1.0000
  C   C37       1.0  0.40690  0.99810  0.56120  1.0000
  C   C38       1.0  0.59310  0.00190  0.43880  1.0000
  H   H19       1.0  0.43800  0.06010  0.57780  1.0000
  H   H20       1.0  0.56200  0.93990  0.42220  1.0000
  C   C39       1.0  0.47400  0.93910  0.55470  1.0000
  C   C40       1.0  0.52600  0.06090  0.44530  1.0000
  H   H21       1.0  0.45070  0.03960  0.43380  1.0000
  H   H22       1.0  0.54930  0.96040  0.56620  1.0000
  C   C41       1.0  0.42830  0.84970  0.53150  1.0000
  C   C42       1.0  0.57170  0.15030  0.46850  1.0000
  H   H23       1.0  0.52830  0.19210  0.47150  1.0000
  H   H24       1.0  0.47170  0.80790  0.52850  1.0000
  C   C43       1.0  0.31950  0.82030  0.51260  1.0000
  C   C44       1.0  0.68050  0.17970  0.48740  1.0000
  C   C45       1.0  0.74280  0.11760  0.47800  1.0000
  C   C46       1.0  0.25720  0.88240  0.52200  1.0000
  C   C47       1.0  0.26780  0.72260  0.47890  1.0000
  C   C48       1.0  0.73220  0.27740  0.52110  1.0000
  C   C49       1.0  0.72570  0.05100  0.66550  1.0000
  C   C50       1.0  0.27430  0.94900  0.33450  1.0000
  H   H25       1.0  0.73930  0.11410  0.67440  1.0000
  H   H26       1.0  0.26070  0.88590  0.32560  1.0000
  C   C51       1.0  0.65180  0.00790  0.69690  1.0000
  C   C52       1.0  0.34820  0.99210  0.30310  1.0000
  H   H27       1.0  0.61560  0.04010  0.72750  1.0000
  H   H28       1.0  0.38440  0.95990  0.27250  1.0000
  C   C53       1.0  0.63110  0.91520  0.68270  1.0000
  C   C54       1.0  0.36890  0.08480  0.31730  1.0000
  H   H29       1.0  0.57990  0.88340  0.70380  1.0000
  H   H30       1.0  0.42010  0.11660  0.29620  1.0000
  C   C55       1.0  0.68500  0.86840  0.63760  1.0000
  C   C56       1.0  0.31500  0.13160  0.36240  1.0000
  C   C57       1.0  0.75820  0.92000  0.60700  1.0000
  C   C58       1.0  0.24180  0.08000  0.39300  1.0000
  C   C59       1.0  0.66010  0.76650  0.62280  1.0000
  C   C60       1.0  0.33990  0.23350  0.37720  1.0000
  C   C61       1.0  0.10940  0.96300  0.72720  1.0000
  C   C62       1.0  0.89060  0.03700  0.27280  1.0000
  H   H31       1.0  0.09180  0.89960  0.71660  1.0000
  H   H32       1.0  0.90820  0.10040  0.28340  1.0000
  C   C63       1.0  0.14800  0.00740  0.78810  1.0000
  C   C64       1.0  0.85200  0.99260  0.21190  1.0000
  H   H33       1.0  0.83910  0.02350  0.18120  1.0000
  H   H34       1.0  0.16090  0.97650  0.81880  1.0000
  C   C65       1.0  0.16820  0.10100  0.80390  1.0000
  C   C66       1.0  0.83180  0.89900  0.19610  1.0000
  H   H35       1.0  0.80500  0.86580  0.15380  1.0000
  H   H36       1.0  0.19500  0.13420  0.84620  1.0000
  C   C67       1.0  0.15000  0.14490  0.75930  1.0000
  C   C68       1.0  0.85000  0.85510  0.24070  1.0000
  C   C69       1.0  0.11410  0.09280  0.69570  1.0000
  C   C70       1.0  0.88590  0.90720  0.30430  1.0000
  C   C71       1.0  0.84270  0.75770  0.22110  1.0000
  C   C72       1.0  0.15730  0.24230  0.77890  1.0000
  C   C73       1.0  0.95400  0.29400  0.38160  1.0000
  C   C74       1.0  0.04600  0.70600  0.61840  1.0000
  H   H37       1.0  0.90850  0.23550  0.36930  1.0000
  H   H38       1.0  0.09150  0.76450  0.63070  1.0000
  C   C75       1.0  0.06370  0.30310  0.38550  1.0000
  C   C76       1.0  0.93630  0.69690  0.61450  1.0000
  H   H39       1.0  0.09400  0.25270  0.37630  1.0000
  H   H40       1.0  0.90600  0.74730  0.62370  1.0000
  C   C77       1.0  0.12790  0.38970  0.40350  1.0000
  C   C78       1.0  0.87210  0.61030  0.59650  1.0000
  H   H41       1.0  0.20380  0.39880  0.40660  1.0000
  H   H42       1.0  0.79620  0.60120  0.59340  1.0000
  C   C79       1.0  0.08450  0.46040  0.41640  1.0000
  C   C80       1.0  0.91550  0.53960  0.58360  1.0000
  H   H43       1.0  0.12910  0.51920  0.42850  1.0000
  H   H44       1.0  0.87090  0.48080  0.57150  1.0000
  C   C81       1.0  0.97290  0.44670  0.41200  1.0000
  C   C82       1.0  0.02710  0.55330  0.58800  1.0000
  C   C83       1.0  0.91440  0.51740  0.42510  1.0000
  C   C84       1.0  0.08560  0.48260  0.57490  1.0000
  C   C85       1.0  0.96510  0.60740  0.43960  1.0000
  C   C86       1.0  0.03490  0.39260  0.56040  1.0000
  H   H45       1.0  0.04090  0.62670  0.44150  1.0000
  H   H46       1.0  0.95910  0.37330  0.55850  1.0000
  C   C87       1.0  0.89950  0.66990  0.45160  1.0000
  C   C88       1.0  0.10050  0.33010  0.54840  1.0000
  H   H47       1.0  0.93110  0.73210  0.46150  1.0000
  H   H48       1.0  0.06890  0.26790  0.53850  1.0000
  C   C89       1.0  0.79160  0.63990  0.44880  1.0000
  C   C90       1.0  0.20840  0.36010  0.55120  1.0000
  H   H49       1.0  0.74680  0.68070  0.45710  1.0000
  H   H50       1.0  0.25320  0.31930  0.54290  1.0000
  C   C91       1.0  0.74760  0.54850  0.43360  1.0000
  C   C92       1.0  0.25240  0.45150  0.56640  1.0000
  H   H51       1.0  0.67210  0.52830  0.43240  1.0000
  H   H52       1.0  0.32790  0.47170  0.56760  1.0000
  C   C93       1.0  0.75110  0.42860  0.09050  1.0000
  C   C94       1.0  0.24890  0.57140  0.90950  1.0000
  H   H53       1.0  0.82700  0.44800  0.09360  1.0000
  H   H54       1.0  0.17300  0.55200  0.90640  1.0000
  C   C95       1.0  0.70750  0.34080  0.08640  1.0000
  C   C96       1.0  0.29250  0.65920  0.91360  1.0000
  H   H55       1.0  0.75210  0.30100  0.08840  1.0000
  H   H56       1.0  0.24790  0.69900  0.91160  1.0000
  C   C97       1.0  0.59850  0.31170  0.07930  1.0000
  C   C98       1.0  0.40150  0.68830  0.92070  1.0000
  H   H57       1.0  0.56570  0.25080  0.07530  1.0000
  H   H58       1.0  0.43430  0.74920  0.92470  1.0000
  C   C99       1.0  0.53690  0.37170  0.07790  1.0000
  C   C100      1.0  0.46310  0.62830  0.92210  1.0000
  H   H59       1.0  0.46080  0.35230  0.07270  1.0000
  H   H60       1.0  0.53920  0.64770  0.92730  1.0000
  C   C101      1.0  0.58600  0.46100  0.08410  1.0000
  C   C102      1.0  0.41400  0.53900  0.91590  1.0000
  C   C103      1.0  0.52690  0.53110  0.08200  1.0000
  C   C104      1.0  0.47310  0.46890  0.91800  1.0000
  C   C105      1.0  0.41590  0.51480  0.07930  1.0000
  C   C106      1.0  0.58410  0.48520  0.92070  1.0000
  H   H61       1.0  0.37310  0.45670  0.07620  1.0000
  H   H62       1.0  0.62690  0.54330  0.92380  1.0000
  C   C107      1.0  0.36860  0.58810  0.08130  1.0000
  C   C108      1.0  0.63140  0.41190  0.91870  1.0000
  H   H63       1.0  0.29300  0.57990  0.08040  1.0000
  H   H64       1.0  0.70700  0.42010  0.91960  1.0000
  C   C109      1.0  0.43140  0.66970  0.08460  1.0000
  C   C110      1.0  0.56860  0.33030  0.91540  1.0000
  H   H65       1.0  0.40050  0.71900  0.08560  1.0000
  H   H66       1.0  0.59950  0.28100  0.91440  1.0000
  C   C111      1.0  0.54060  0.68010  0.08650  1.0000
  C   C112      1.0  0.45940  0.31990  0.91350  1.0000
  H   H67       1.0  0.58450  0.73750  0.08900  1.0000
  H   H68       1.0  0.41550  0.26250  0.91100  1.0000
  N   N1        1.0  0.57830  0.97140  0.17280  1.0000
  N   N2        1.0  0.42170  0.02860  0.82720  1.0000
  N   N3        1.0  0.80230  0.99430  0.03910  1.0000
  N   N4        1.0  0.19770  0.00570  0.96090  1.0000
  N   N5        1.0  0.28000  0.99210  0.12560  1.0000
  N   N6        1.0  0.72000  0.00790  0.87440  1.0000
  N   N7        1.0  0.30050  0.97100  0.54480  1.0000
  N   N8        1.0  0.69950  0.02900  0.45520  1.0000
  N   N9        1.0  0.78010  0.00890  0.62290  1.0000
  N   N10       1.0  0.21990  0.99110  0.37710  1.0000
  N   N11       1.0  0.09430  0.00330  0.68060  1.0000
  N   N12       1.0  0.90570  0.99670  0.31940  1.0000
  N   N13       1.0  0.90900  0.36250  0.39420  1.0000
  N   N14       1.0  0.09100  0.63750  0.60580  1.0000
  N   N15       1.0  0.80580  0.48730  0.42070  1.0000
  N   N16       1.0  0.19420  0.51270  0.57930  1.0000
  N   N17       1.0  0.69300  0.48890  0.09040  1.0000
  N   N18       1.0  0.30700  0.51110  0.90960  1.0000
  N   N19       1.0  0.58790  0.61190  0.08480  1.0000
  N   N20       1.0  0.41210  0.38810  0.91520  1.0000
  O   O1        1.0  0.18830  0.70820  0.15040  1.0000
  O   O2        1.0  0.81170  0.29180  0.84960  1.0000
  O   O3        1.0  0.10350  0.71300  0.06180  1.0000
  O   O4        1.0  0.89650  0.28700  0.93820  1.0000
  O   O5        1.0  0.72250  0.23110  0.33870  1.0000
  O   O6        1.0  0.27750  0.76890  0.66130  1.0000
  O   O7        1.0  0.59060  0.23980  0.27110  1.0000
  O   O8        1.0  0.40940  0.76020  0.72890  1.0000
  O   O9        1.0  0.81220  0.70140  0.97180  1.0000
  O   O10       1.0  0.18780  0.29860  0.02820  1.0000
  O   O11       1.0  0.77660  0.73230  0.06860  1.0000
  O   O12       1.0  0.22340  0.26770  0.93140  1.0000
  O   O13       1.0  0.24980  0.66610  0.50890  1.0000
  O   O14       1.0  0.75020  0.33390  0.49110  1.0000
  O   O15       1.0  0.75350  0.29420  0.57980  1.0000
  O   O16       1.0  0.24650  0.70580  0.42020  1.0000
  O   O17       1.0  0.89960  0.61830  0.10120  1.0000
  O   O18       1.0  0.10040  0.38170  0.89880  1.0000
  H   H69       1.0  0.92960  0.63870  0.07240  1.0000
  H   H70       1.0  0.07040  0.36130  0.92760  1.0000
  H   H71       1.0  0.92940  0.65050  0.13740  1.0000
  H   H72       1.0  0.07060  0.34950  0.86260  1.0000
  O   O19       1.0  0.62120  0.72640  0.56710  1.0000
  O   O20       1.0  0.37880  0.27360  0.43290  1.0000
  O   O21       1.0  0.67540  0.73680  0.66990  1.0000
  O   O22       1.0  0.32460  0.26320  0.33010  1.0000
  O   O23       1.0  0.93070  0.73320  0.22480  1.0000
  O   O24       1.0  0.06930  0.26680  0.77520  1.0000
  O   O25       1.0  0.75460  0.70630  0.19480  1.0000
  O   O26       1.0  0.24540  0.29370  0.80520  1.0000
  O   O27       1.0  0.59660  0.35630  0.39180  1.0000
  O   O28       1.0  0.40340  0.64370  0.60820  1.0000
  H   H73       1.0  0.56880  0.32260  0.35570  1.0000
  H   H74       1.0  0.43120  0.67740  0.64430  1.0000
  H   H75       1.0  0.56230  0.33240  0.41790  1.0000
  H   H76       1.0  0.43770  0.66760  0.58210  1.0000
