data_image0
_chemical_formula_structural       Co12Cl16O8N32C16H8C8H8C8H8C8H8C40H8C8H8C8H8C8H8
_chemical_formula_sum              "Co12 Cl16 O8 N32 C104 H64"
_cell_length_a       20.545
_cell_length_b       15.456
_cell_length_c       13.721
_cell_angle_alpha    90
_cell_angle_beta     90.865
_cell_angle_gamma    90

_space_group_name_H-M_alt    "P 1"
_space_group_IT_number       1

loop_
  _space_group_symop_operation_xyz
  'x, y, z'

loop_
  _atom_site_type_symbol
  _atom_site_label
  _atom_site_symmetry_multiplicity
  _atom_site_fract_x
  _atom_site_fract_y
  _atom_site_fract_z
  _atom_site_occupancy
  Co  Co1       1.0  0.25000  0.25000  0.00000  1.0000
  Co  Co2       1.0  0.75000  0.25000  0.50000  1.0000
  Co  Co3       1.0  0.75000  0.75000  0.00000  1.0000
  Co  Co4       1.0  0.25000  0.75000  0.50000  1.0000
  Co  Co5       1.0  0.16021  0.11685  0.13351  1.0000
  Co  Co6       1.0  0.83979  0.11685  0.36649  1.0000
  Co  Co7       1.0  0.66021  0.61685  0.13351  1.0000
  Co  Co8       1.0  0.33979  0.61685  0.36649  1.0000
  Co  Co9       1.0  0.83979  0.88315  0.86649  1.0000
  Co  Co10      1.0  0.16021  0.88315  0.63351  1.0000
  Co  Co11      1.0  0.33979  0.38315  0.86649  1.0000
  Co  Co12      1.0  0.66021  0.38315  0.63351  1.0000
  Cl  Cl1       1.0  0.10635  0.15759  0.26863  1.0000
  Cl  Cl2       1.0  0.89365  0.15759  0.23137  1.0000
  Cl  Cl3       1.0  0.60635  0.65759  0.26863  1.0000
  Cl  Cl4       1.0  0.39365  0.65759  0.23137  1.0000
  Cl  Cl5       1.0  0.89365  0.84241  0.73137  1.0000
  Cl  Cl6       1.0  0.10635  0.84241  0.76863  1.0000
  Cl  Cl7       1.0  0.39365  0.34241  0.73137  1.0000
  Cl  Cl8       1.0  0.60635  0.34241  0.76863  1.0000
  Cl  Cl9       1.0  0.12743  0.98510  0.08012  1.0000
  Cl  Cl10      1.0  0.87257  0.98510  0.41988  1.0000
  Cl  Cl11      1.0  0.62743  0.48510  0.08012  1.0000
  Cl  Cl12      1.0  0.37257  0.48510  0.41988  1.0000
  Cl  Cl13      1.0  0.87257  0.01490  0.91988  1.0000
  Cl  Cl14      1.0  0.12743  0.01490  0.58012  1.0000
  Cl  Cl15      1.0  0.37257  0.51490  0.91988  1.0000
  Cl  Cl16      1.0  0.62743  0.51490  0.58012  1.0000
  O   O1        1.0  0.15604  0.20330  0.02830  1.0000
  O   O2        1.0  0.84396  0.20330  0.47170  1.0000
  O   O3        1.0  0.65604  0.70330  0.02830  1.0000
  O   O4        1.0  0.34396  0.70330  0.47170  1.0000
  O   O5        1.0  0.84396  0.79670  0.97170  1.0000
  O   O6        1.0  0.15604  0.79670  0.52830  1.0000
  O   O7        1.0  0.34396  0.29670  0.97170  1.0000
  O   O8        1.0  0.65604  0.29670  0.52830  1.0000
  N   N1        1.0  0.20920  0.32280  0.89290  1.0000
  N   N2        1.0  0.79080  0.32280  0.60710  1.0000
  N   N3        1.0  0.70920  0.82280  0.89290  1.0000
  N   N4        1.0  0.29080  0.82280  0.60710  1.0000
  N   N5        1.0  0.79080  0.67720  0.10710  1.0000
  N   N6        1.0  0.20920  0.67720  0.39290  1.0000
  N   N7        1.0  0.29080  0.17720  0.10710  1.0000
  N   N8        1.0  0.70920  0.17720  0.39290  1.0000
  N   N9        1.0  0.24350  0.38240  0.84040  1.0000
  N   N10       1.0  0.75650  0.38240  0.65960  1.0000
  N   N11       1.0  0.74350  0.88240  0.84040  1.0000
  N   N12       1.0  0.25650  0.88240  0.65960  1.0000
  N   N13       1.0  0.75650  0.61760  0.15960  1.0000
  N   N14       1.0  0.24350  0.61760  0.34040  1.0000
  N   N15       1.0  0.25650  0.11760  0.15960  1.0000
  N   N16       1.0  0.74350  0.11760  0.34040  1.0000
  N   N17       1.0  0.13760  0.39900  0.80330  1.0000
  N   N18       1.0  0.86240  0.39900  0.69670  1.0000
  N   N19       1.0  0.63760  0.89900  0.80330  1.0000
  N   N20       1.0  0.36240  0.89900  0.69670  1.0000
  N   N21       1.0  0.86240  0.60100  0.19670  1.0000
  N   N22       1.0  0.13760  0.60100  0.30330  1.0000
  N   N23       1.0  0.36240  0.10100  0.19670  1.0000
  N   N24       1.0  0.63760  0.10100  0.30330  1.0000
  N   N25       1.0  0.23360  0.64270  0.60210  1.0000
  N   N26       1.0  0.76640  0.64270  0.89790  1.0000
  N   N27       1.0  0.73360  0.14270  0.60210  1.0000
  N   N28       1.0  0.26640  0.14270  0.89790  1.0000
  N   N29       1.0  0.76640  0.35730  0.39790  1.0000
  N   N30       1.0  0.23360  0.35730  0.10210  1.0000
  N   N31       1.0  0.26640  0.85730  0.39790  1.0000
  N   N32       1.0  0.73360  0.85730  0.10210  1.0000
  C   C1        1.0  0.09840  0.22630  0.98840  1.0000
  C   C2        1.0  0.90160  0.22630  0.51160  1.0000
  C   C3        1.0  0.59840  0.72630  0.98840  1.0000
  C   C4        1.0  0.40160  0.72630  0.51160  1.0000
  C   C5        1.0  0.90160  0.77370  0.01160  1.0000
  C   C6        1.0  0.09840  0.77370  0.48840  1.0000
  C   C7        1.0  0.40160  0.27370  0.01160  1.0000
  C   C8        1.0  0.59840  0.27370  0.48840  1.0000
  C   C9        1.0  0.04070  0.18940  0.02320  1.0000
  C   C10       1.0  0.95930  0.18940  0.47680  1.0000
  C   C11       1.0  0.54070  0.68940  0.02320  1.0000
  C   C12       1.0  0.45930  0.68940  0.47680  1.0000
  C   C13       1.0  0.95930  0.81060  0.97680  1.0000
  C   C14       1.0  0.04070  0.81060  0.52320  1.0000
  C   C15       1.0  0.45930  0.31060  0.97680  1.0000
  C   C16       1.0  0.54070  0.31060  0.52320  1.0000
  H   H1        1.0  0.04370  0.14890  0.07520  1.0000
  H   H2        1.0  0.95630  0.14890  0.42480  1.0000
  H   H3        1.0  0.54370  0.64890  0.07520  1.0000
  H   H4        1.0  0.45630  0.64890  0.42480  1.0000
  H   H5        1.0  0.95630  0.85110  0.92480  1.0000
  H   H6        1.0  0.04370  0.85110  0.57520  1.0000
  H   H7        1.0  0.45630  0.35110  0.92480  1.0000
  H   H8        1.0  0.54370  0.35110  0.57520  1.0000
  C   C17       1.0  0.97960  0.20940  0.98510  1.0000
  C   C18       1.0  0.02040  0.20940  0.51490  1.0000
  C   C19       1.0  0.47960  0.70940  0.98510  1.0000
  C   C20       1.0  0.52040  0.70940  0.51490  1.0000
  C   C21       1.0  0.02040  0.79060  0.01490  1.0000
  C   C22       1.0  0.97960  0.79060  0.48510  1.0000
  C   C23       1.0  0.52040  0.29060  0.01490  1.0000
  C   C24       1.0  0.47960  0.29060  0.48510  1.0000
  H   H9        1.0  0.94170  0.18290  0.01040  1.0000
  H   H10       1.0  0.05830  0.18290  0.48960  1.0000
  H   H11       1.0  0.44170  0.68290  0.01040  1.0000
  H   H12       1.0  0.55830  0.68290  0.48960  1.0000
  H   H13       1.0  0.05830  0.81710  0.98960  1.0000
  H   H14       1.0  0.94170  0.81710  0.51040  1.0000
  H   H15       1.0  0.55830  0.31710  0.98960  1.0000
  H   H16       1.0  0.44170  0.31710  0.51040  1.0000
  C   C25       1.0  0.97480  0.26860  0.90990  1.0000
  C   C26       1.0  0.02520  0.26860  0.59010  1.0000
  C   C27       1.0  0.47480  0.76860  0.90990  1.0000
  C   C28       1.0  0.52520  0.76860  0.59010  1.0000
  C   C29       1.0  0.02520  0.73140  0.09010  1.0000
  C   C30       1.0  0.97480  0.73140  0.40990  1.0000
  C   C31       1.0  0.52520  0.23140  0.09010  1.0000
  C   C32       1.0  0.47480  0.23140  0.40990  1.0000
  H   H17       1.0  0.93340  0.28250  0.88250  1.0000
  H   H18       1.0  0.06660  0.28250  0.61750  1.0000
  H   H19       1.0  0.43340  0.78250  0.88250  1.0000
  H   H20       1.0  0.56660  0.78250  0.61750  1.0000
  H   H21       1.0  0.06660  0.71750  0.11750  1.0000
  H   H22       1.0  0.93340  0.71750  0.38250  1.0000
  H   H23       1.0  0.56660  0.21750  0.11750  1.0000
  H   H24       1.0  0.43340  0.21750  0.38250  1.0000
  C   C33       1.0  0.02930  0.30690  0.87500  1.0000
  C   C34       1.0  0.97070  0.30690  0.62500  1.0000
  C   C35       1.0  0.52930  0.80690  0.87500  1.0000
  C   C36       1.0  0.47070  0.80690  0.62500  1.0000
  C   C37       1.0  0.97070  0.69310  0.12500  1.0000
  C   C38       1.0  0.02930  0.69310  0.37500  1.0000
  C   C39       1.0  0.47070  0.19310  0.12500  1.0000
  C   C40       1.0  0.52930  0.19310  0.37500  1.0000
  H   H25       1.0  0.02500  0.34870  0.82460  1.0000
  H   H26       1.0  0.97500  0.34870  0.67540  1.0000
  H   H27       1.0  0.52500  0.84870  0.82460  1.0000
  H   H28       1.0  0.47500  0.84870  0.67540  1.0000
  H   H29       1.0  0.97500  0.65130  0.17540  1.0000
  H   H30       1.0  0.02500  0.65130  0.32460  1.0000
  H   H31       1.0  0.47500  0.15130  0.17540  1.0000
  H   H32       1.0  0.52500  0.15130  0.32460  1.0000
  C   C41       1.0  0.09210  0.28660  0.91120  1.0000
  C   C42       1.0  0.90790  0.28660  0.58880  1.0000
  C   C43       1.0  0.59210  0.78660  0.91120  1.0000
  C   C44       1.0  0.40790  0.78660  0.58880  1.0000
  C   C45       1.0  0.90790  0.71340  0.08880  1.0000
  C   C46       1.0  0.09210  0.71340  0.41120  1.0000
  C   C47       1.0  0.40790  0.21340  0.08880  1.0000
  C   C48       1.0  0.59210  0.21340  0.41120  1.0000
  C   C49       1.0  0.14690  0.33540  0.86970  1.0000
  C   C50       1.0  0.85310  0.33540  0.63030  1.0000
  C   C51       1.0  0.64690  0.83540  0.86970  1.0000
  C   C52       1.0  0.35310  0.83540  0.63030  1.0000
  C   C53       1.0  0.85310  0.66460  0.13030  1.0000
  C   C54       1.0  0.14690  0.66460  0.36970  1.0000
  C   C55       1.0  0.35310  0.16460  0.13030  1.0000
  C   C56       1.0  0.64690  0.16460  0.36970  1.0000
  C   C57       1.0  0.19840  0.42670  0.78910  1.0000
  C   C58       1.0  0.80160  0.42670  0.71090  1.0000
  C   C59       1.0  0.69840  0.92670  0.78910  1.0000
  C   C60       1.0  0.30160  0.92670  0.71090  1.0000
  C   C61       1.0  0.80160  0.57330  0.21090  1.0000
  C   C62       1.0  0.19840  0.57330  0.28910  1.0000
  C   C63       1.0  0.30160  0.07330  0.21090  1.0000
  C   C64       1.0  0.69840  0.07330  0.28910  1.0000
  C   C65       1.0  0.21280  0.49980  0.72360  1.0000
  C   C66       1.0  0.78720  0.49980  0.77640  1.0000
  C   C67       1.0  0.71280  0.99980  0.72360  1.0000
  C   C68       1.0  0.28720  0.99980  0.77640  1.0000
  C   C69       1.0  0.78720  0.50020  0.27640  1.0000
  C   C70       1.0  0.21280  0.50020  0.22360  1.0000
  C   C71       1.0  0.28720  0.00020  0.27640  1.0000
  C   C72       1.0  0.71280  0.00020  0.22360  1.0000
  C   C73       1.0  0.27330  0.51890  0.68950  1.0000
  C   C74       1.0  0.72670  0.51890  0.81050  1.0000
  C   C75       1.0  0.77330  0.01890  0.68950  1.0000
  C   C76       1.0  0.22670  0.01890  0.81050  1.0000
  C   C77       1.0  0.72670  0.48110  0.31050  1.0000
  C   C78       1.0  0.27330  0.48110  0.18950  1.0000
  C   C79       1.0  0.22670  0.98110  0.31050  1.0000
  C   C80       1.0  0.77330  0.98110  0.18950  1.0000
  H   H33       1.0  0.30940  0.48310  0.70610  1.0000
  H   H34       1.0  0.69060  0.48310  0.79390  1.0000
  H   H35       1.0  0.80940  0.98310  0.70610  1.0000
  H   H36       1.0  0.19060  0.98310  0.79390  1.0000
  H   H37       1.0  0.69060  0.51690  0.29390  1.0000
  H   H38       1.0  0.30940  0.51690  0.20610  1.0000
  H   H39       1.0  0.19060  0.01690  0.29390  1.0000
  H   H40       1.0  0.80940  0.01690  0.20610  1.0000
  C   C81       1.0  0.28160  0.59090  0.63070  1.0000
  C   C82       1.0  0.71840  0.59090  0.86930  1.0000
  C   C83       1.0  0.78160  0.09090  0.63070  1.0000
  C   C84       1.0  0.21840  0.09090  0.86930  1.0000
  C   C85       1.0  0.71840  0.40910  0.36930  1.0000
  C   C86       1.0  0.28160  0.40910  0.13070  1.0000
  C   C87       1.0  0.21840  0.90910  0.36930  1.0000
  C   C88       1.0  0.78160  0.90910  0.13070  1.0000
  H   H41       1.0  0.32440  0.60390  0.60960  1.0000
  H   H42       1.0  0.67560  0.60390  0.89040  1.0000
  H   H43       1.0  0.82440  0.10390  0.60960  1.0000
  H   H44       1.0  0.17560  0.10390  0.89040  1.0000
  H   H45       1.0  0.67560  0.39610  0.39040  1.0000
  H   H46       1.0  0.32440  0.39610  0.10960  1.0000
  H   H47       1.0  0.17560  0.89610  0.39040  1.0000
  H   H48       1.0  0.82440  0.89610  0.10960  1.0000
  C   C89       1.0  0.17490  0.62430  0.63480  1.0000
  C   C90       1.0  0.82510  0.62430  0.86520  1.0000
  C   C91       1.0  0.67490  0.12430  0.63480  1.0000
  C   C92       1.0  0.32510  0.12430  0.86520  1.0000
  C   C93       1.0  0.82510  0.37570  0.36520  1.0000
  C   C94       1.0  0.17490  0.37570  0.13480  1.0000
  C   C95       1.0  0.32510  0.87570  0.36520  1.0000
  C   C96       1.0  0.67490  0.87570  0.13480  1.0000
  H   H49       1.0  0.13980  0.66130  0.61670  1.0000
  H   H50       1.0  0.86020  0.66130  0.88330  1.0000
  H   H51       1.0  0.63980  0.16130  0.61670  1.0000
  H   H52       1.0  0.36020  0.16130  0.88330  1.0000
  H   H53       1.0  0.86020  0.33870  0.38330  1.0000
  H   H54       1.0  0.13980  0.33870  0.11670  1.0000
  H   H55       1.0  0.36020  0.83870  0.38330  1.0000
  H   H56       1.0  0.63980  0.83870  0.11670  1.0000
  C   C97       1.0  0.16180  0.55390  0.69420  1.0000
  C   C98       1.0  0.83820  0.55390  0.80580  1.0000
  C   C99       1.0  0.66180  0.05390  0.69420  1.0000
  C   C100      1.0  0.33820  0.05390  0.80580  1.0000
  C   C101      1.0  0.83820  0.44610  0.30580  1.0000
  C   C102      1.0  0.16180  0.44610  0.19420  1.0000
  C   C103      1.0  0.33820  0.94610  0.30580  1.0000
  C   C104      1.0  0.66180  0.94610  0.19420  1.0000
  H   H57       1.0  0.11870  0.54260  0.71460  1.0000
  H   H58       1.0  0.88130  0.54260  0.78540  1.0000
  H   H59       1.0  0.61870  0.04260  0.71460  1.0000
  H   H60       1.0  0.38130  0.04260  0.78540  1.0000
  H   H61       1.0  0.88130  0.45740  0.28540  1.0000
  H   H62       1.0  0.11870  0.45740  0.21460  1.0000
  H   H63       1.0  0.38130  0.95740  0.28540  1.0000
  H   H64       1.0  0.61870  0.95740  0.21460  1.0000
