data_image0
_chemical_formula_structural       Co12Cl16O8N32C16H8C8H8C8H8C8H8C40H8C8H8C8H8C8H8
_chemical_formula_sum              "Co12 Cl16 O8 N32 C104 H64"
_cell_length_a       20.787
_cell_length_b       15.4366
_cell_length_c       13.7906
_cell_angle_alpha    90
_cell_angle_beta     90.899
_cell_angle_gamma    90

_space_group_name_H-M_alt    "P 1"
_space_group_IT_number       1

loop_
  _space_group_symop_operation_xyz
  'x, y, z'

loop_
  _atom_site_type_symbol
  _atom_site_label
  _atom_site_symmetry_multiplicity
  _atom_site_fract_x
  _atom_site_fract_y
  _atom_site_fract_z
  _atom_site_occupancy
  Co  Co1       1.0  0.25000  0.25000  0.50000  1.0000
  Co  Co2       1.0  0.75000  0.25000  0.00000  1.0000
  Co  Co3       1.0  0.75000  0.75000  0.50000  1.0000
  Co  Co4       1.0  0.25000  0.75000  0.00000  1.0000
  Co  Co5       1.0  0.16030  0.38257  0.63218  1.0000
  Co  Co6       1.0  0.83970  0.38257  0.86782  1.0000
  Co  Co7       1.0  0.66030  0.88257  0.63218  1.0000
  Co  Co8       1.0  0.33970  0.88257  0.86782  1.0000
  Co  Co9       1.0  0.83970  0.61743  0.36782  1.0000
  Co  Co10      1.0  0.16030  0.61743  0.13218  1.0000
  Co  Co11      1.0  0.33970  0.11743  0.36782  1.0000
  Co  Co12      1.0  0.66030  0.11743  0.13218  1.0000
  Cl  Cl1       1.0  0.10805  0.34161  0.76680  1.0000
  Cl  Cl2       1.0  0.89195  0.34161  0.73320  1.0000
  Cl  Cl3       1.0  0.60805  0.84161  0.76680  1.0000
  Cl  Cl4       1.0  0.39195  0.84161  0.73320  1.0000
  Cl  Cl5       1.0  0.89195  0.65839  0.23320  1.0000
  Cl  Cl6       1.0  0.10805  0.65839  0.26680  1.0000
  Cl  Cl7       1.0  0.39195  0.15839  0.23320  1.0000
  Cl  Cl8       1.0  0.60805  0.15839  0.26680  1.0000
  Cl  Cl9       1.0  0.12615  0.51363  0.57970  1.0000
  Cl  Cl10      1.0  0.87385  0.51363  0.92030  1.0000
  Cl  Cl11      1.0  0.62615  0.01363  0.57970  1.0000
  Cl  Cl12      1.0  0.37385  0.01363  0.92030  1.0000
  Cl  Cl13      1.0  0.87385  0.48637  0.42030  1.0000
  Cl  Cl14      1.0  0.12615  0.48637  0.07970  1.0000
  Cl  Cl15      1.0  0.37385  0.98637  0.42030  1.0000
  Cl  Cl16      1.0  0.62615  0.98637  0.07970  1.0000
  O   O1        1.0  0.15680  0.29580  0.52750  1.0000
  O   O2        1.0  0.84320  0.29580  0.97250  1.0000
  O   O3        1.0  0.65680  0.79580  0.52750  1.0000
  O   O4        1.0  0.34320  0.79580  0.97250  1.0000
  O   O5        1.0  0.84320  0.70420  0.47250  1.0000
  O   O6        1.0  0.15680  0.70420  0.02750  1.0000
  O   O7        1.0  0.34320  0.20420  0.47250  1.0000
  O   O8        1.0  0.65680  0.20420  0.02750  1.0000
  N   N1        1.0  0.21050  0.17560  0.39430  1.0000
  N   N2        1.0  0.78950  0.17560  0.10570  1.0000
  N   N3        1.0  0.71050  0.67560  0.39430  1.0000
  N   N4        1.0  0.28950  0.67560  0.10570  1.0000
  N   N5        1.0  0.78950  0.82440  0.60570  1.0000
  N   N6        1.0  0.21050  0.82440  0.89430  1.0000
  N   N7        1.0  0.28950  0.32440  0.60570  1.0000
  N   N8        1.0  0.71050  0.32440  0.89430  1.0000
  N   N9        1.0  0.24460  0.11710  0.34140  1.0000
  N   N10       1.0  0.75540  0.11710  0.15860  1.0000
  N   N11       1.0  0.74460  0.61710  0.34140  1.0000
  N   N12       1.0  0.25540  0.61710  0.15860  1.0000
  N   N13       1.0  0.75540  0.88290  0.65860  1.0000
  N   N14       1.0  0.24460  0.88290  0.84140  1.0000
  N   N15       1.0  0.25540  0.38290  0.65860  1.0000
  N   N16       1.0  0.74460  0.38290  0.84140  1.0000
  N   N17       1.0  0.14010  0.09980  0.30540  1.0000
  N   N18       1.0  0.85990  0.09980  0.19460  1.0000
  N   N19       1.0  0.64010  0.59980  0.30540  1.0000
  N   N20       1.0  0.35990  0.59980  0.19460  1.0000
  N   N21       1.0  0.85990  0.90020  0.69460  1.0000
  N   N22       1.0  0.14010  0.90020  0.80540  1.0000
  N   N23       1.0  0.35990  0.40020  0.69460  1.0000
  N   N24       1.0  0.64010  0.40020  0.80540  1.0000
  N   N25       1.0  0.23450  0.85740  0.10320  1.0000
  N   N26       1.0  0.76550  0.85740  0.39680  1.0000
  N   N27       1.0  0.73450  0.35740  0.10320  1.0000
  N   N28       1.0  0.26550  0.35740  0.39680  1.0000
  N   N29       1.0  0.76550  0.14260  0.89680  1.0000
  N   N30       1.0  0.23450  0.14260  0.60320  1.0000
  N   N31       1.0  0.26550  0.64260  0.89680  1.0000
  N   N32       1.0  0.73450  0.64260  0.60320  1.0000
  C   C1        1.0  0.10010  0.27200  0.48840  1.0000
  C   C2        1.0  0.89990  0.27200  0.01160  1.0000
  C   C3        1.0  0.60010  0.77200  0.48840  1.0000
  C   C4        1.0  0.39990  0.77200  0.01160  1.0000
  C   C5        1.0  0.89990  0.72800  0.51160  1.0000
  C   C6        1.0  0.10010  0.72800  0.98840  1.0000
  C   C7        1.0  0.39990  0.22800  0.51160  1.0000
  C   C8        1.0  0.60010  0.22800  0.98840  1.0000
  C   C9        1.0  0.04330  0.30850  0.52130  1.0000
  C   C10       1.0  0.95670  0.30850  0.97870  1.0000
  C   C11       1.0  0.54330  0.80850  0.52130  1.0000
  C   C12       1.0  0.45670  0.80850  0.97870  1.0000
  C   C13       1.0  0.95670  0.69150  0.47870  1.0000
  C   C14       1.0  0.04330  0.69150  0.02130  1.0000
  C   C15       1.0  0.45670  0.19150  0.47870  1.0000
  C   C16       1.0  0.54330  0.19150  0.02130  1.0000
  H   H1        1.0  0.04560  0.34900  0.57110  1.0000
  H   H2        1.0  0.95440  0.34900  0.92890  1.0000
  H   H3        1.0  0.54560  0.84900  0.57110  1.0000
  H   H4        1.0  0.45440  0.84900  0.92890  1.0000
  H   H5        1.0  0.95440  0.65100  0.42890  1.0000
  H   H6        1.0  0.04560  0.65100  0.07110  1.0000
  H   H7        1.0  0.45440  0.15100  0.42890  1.0000
  H   H8        1.0  0.54560  0.15100  0.07110  1.0000
  C   C17       1.0  0.98430  0.28730  0.48340  1.0000
  C   C18       1.0  0.01570  0.28730  0.01660  1.0000
  C   C19       1.0  0.48430  0.78730  0.48340  1.0000
  C   C20       1.0  0.51570  0.78730  0.01660  1.0000
  C   C21       1.0  0.01570  0.71270  0.51660  1.0000
  C   C22       1.0  0.98430  0.71270  0.98340  1.0000
  C   C23       1.0  0.51570  0.21270  0.51660  1.0000
  C   C24       1.0  0.48430  0.21270  0.98340  1.0000
  H   H9        1.0  0.94760  0.31310  0.50790  1.0000
  H   H10       1.0  0.05240  0.31310  0.99210  1.0000
  H   H11       1.0  0.44760  0.81310  0.50790  1.0000
  H   H12       1.0  0.55240  0.81310  0.99210  1.0000
  H   H13       1.0  0.05240  0.68690  0.49210  1.0000
  H   H14       1.0  0.94760  0.68690  0.00790  1.0000
  H   H15       1.0  0.55240  0.18690  0.49210  1.0000
  H   H16       1.0  0.44760  0.18690  0.00790  1.0000
  C   C25       1.0  0.97890  0.22800  0.40900  1.0000
  C   C26       1.0  0.02110  0.22800  0.09100  1.0000
  C   C27       1.0  0.47890  0.72800  0.40900  1.0000
  C   C28       1.0  0.52110  0.72800  0.09100  1.0000
  C   C29       1.0  0.02110  0.77200  0.59100  1.0000
  C   C30       1.0  0.97890  0.77200  0.90900  1.0000
  C   C31       1.0  0.52110  0.27200  0.59100  1.0000
  C   C32       1.0  0.47890  0.27200  0.90900  1.0000
  H   H17       1.0  0.93880  0.21310  0.38330  1.0000
  H   H18       1.0  0.06120  0.21310  0.11670  1.0000
  H   H19       1.0  0.43880  0.71310  0.38330  1.0000
  H   H20       1.0  0.56120  0.71310  0.11670  1.0000
  H   H21       1.0  0.06120  0.78690  0.61670  1.0000
  H   H22       1.0  0.93880  0.78690  0.88330  1.0000
  H   H23       1.0  0.56120  0.28690  0.61670  1.0000
  H   H24       1.0  0.43880  0.28690  0.88330  1.0000
  C   C33       1.0  0.03300  0.19190  0.37440  1.0000
  C   C34       1.0  0.96700  0.19190  0.12560  1.0000
  C   C35       1.0  0.53300  0.69190  0.37440  1.0000
  C   C36       1.0  0.46700  0.69190  0.12560  1.0000
  C   C37       1.0  0.96700  0.80810  0.62560  1.0000
  C   C38       1.0  0.03300  0.80810  0.87440  1.0000
  C   C39       1.0  0.46700  0.30810  0.62560  1.0000
  C   C40       1.0  0.53300  0.30810  0.87440  1.0000
  H   H25       1.0  0.02940  0.15200  0.32400  1.0000
  H   H26       1.0  0.97060  0.15200  0.17600  1.0000
  H   H27       1.0  0.52940  0.65200  0.32400  1.0000
  H   H28       1.0  0.47060  0.65200  0.17600  1.0000
  H   H29       1.0  0.97060  0.84800  0.67600  1.0000
  H   H30       1.0  0.02940  0.84800  0.82400  1.0000
  H   H31       1.0  0.47060  0.34800  0.67600  1.0000
  H   H32       1.0  0.52940  0.34800  0.82400  1.0000
  C   C41       1.0  0.09450  0.21220  0.41130  1.0000
  C   C42       1.0  0.90550  0.21220  0.08870  1.0000
  C   C43       1.0  0.59450  0.71220  0.41130  1.0000
  C   C44       1.0  0.40550  0.71220  0.08870  1.0000
  C   C45       1.0  0.90550  0.78780  0.58870  1.0000
  C   C46       1.0  0.09450  0.78780  0.91130  1.0000
  C   C47       1.0  0.40550  0.28780  0.58870  1.0000
  C   C48       1.0  0.59450  0.28780  0.91130  1.0000
  C   C49       1.0  0.14850  0.16450  0.37010  1.0000
  C   C50       1.0  0.85150  0.16450  0.12990  1.0000
  C   C51       1.0  0.64850  0.66450  0.37010  1.0000
  C   C52       1.0  0.35150  0.66450  0.12990  1.0000
  C   C53       1.0  0.85150  0.83550  0.62990  1.0000
  C   C54       1.0  0.14850  0.83550  0.87010  1.0000
  C   C55       1.0  0.35150  0.33550  0.62990  1.0000
  C   C56       1.0  0.64850  0.33550  0.87010  1.0000
  C   C57       1.0  0.20040  0.07200  0.29030  1.0000
  C   C58       1.0  0.79960  0.07200  0.20970  1.0000
  C   C59       1.0  0.70040  0.57200  0.29030  1.0000
  C   C60       1.0  0.29960  0.57200  0.20970  1.0000
  C   C61       1.0  0.79960  0.92800  0.70970  1.0000
  C   C62       1.0  0.20040  0.92800  0.79030  1.0000
  C   C63       1.0  0.29960  0.42800  0.70970  1.0000
  C   C64       1.0  0.70040  0.42800  0.79030  1.0000
  C   C65       1.0  0.21410  0.99940  0.22520  1.0000
  C   C66       1.0  0.78590  0.99940  0.27480  1.0000
  C   C67       1.0  0.71410  0.49940  0.22520  1.0000
  C   C68       1.0  0.28590  0.49940  0.27480  1.0000
  C   C69       1.0  0.78590  0.00060  0.77480  1.0000
  C   C70       1.0  0.21410  0.00060  0.72520  1.0000
  C   C71       1.0  0.28590  0.50060  0.77480  1.0000
  C   C72       1.0  0.71410  0.50060  0.72520  1.0000
  C   C73       1.0  0.27320  0.97910  0.19290  1.0000
  C   C74       1.0  0.72680  0.97910  0.30710  1.0000
  C   C75       1.0  0.77320  0.47910  0.19290  1.0000
  C   C76       1.0  0.22680  0.47910  0.30710  1.0000
  C   C77       1.0  0.72680  0.02090  0.80710  1.0000
  C   C78       1.0  0.27320  0.02090  0.69290  1.0000
  C   C79       1.0  0.22680  0.52090  0.80710  1.0000
  C   C80       1.0  0.77320  0.52090  0.69290  1.0000
  H   H33       1.0  0.30860  0.01250  0.21090  1.0000
  H   H34       1.0  0.69140  0.01250  0.28910  1.0000
  H   H35       1.0  0.80860  0.51250  0.21090  1.0000
  H   H36       1.0  0.19140  0.51250  0.28910  1.0000
  H   H37       1.0  0.69140  0.98750  0.78910  1.0000
  H   H38       1.0  0.30860  0.98750  0.71090  1.0000
  H   H39       1.0  0.19140  0.48750  0.78910  1.0000
  H   H40       1.0  0.80860  0.48750  0.71090  1.0000
  C   C81       1.0  0.28050  0.90730  0.13220  1.0000
  C   C82       1.0  0.71950  0.90730  0.36780  1.0000
  C   C83       1.0  0.78050  0.40730  0.13220  1.0000
  C   C84       1.0  0.21950  0.40730  0.36780  1.0000
  C   C85       1.0  0.71950  0.09270  0.86780  1.0000
  C   C86       1.0  0.28050  0.09270  0.63220  1.0000
  C   C87       1.0  0.21950  0.59270  0.86780  1.0000
  C   C88       1.0  0.78050  0.59270  0.63220  1.0000
  H   H41       1.0  0.32170  0.89470  0.11120  1.0000
  H   H42       1.0  0.67830  0.89470  0.38880  1.0000
  H   H43       1.0  0.82170  0.39470  0.11120  1.0000
  H   H44       1.0  0.17830  0.39470  0.38880  1.0000
  H   H45       1.0  0.67830  0.10530  0.88880  1.0000
  H   H46       1.0  0.32170  0.10530  0.61120  1.0000
  H   H47       1.0  0.17830  0.60530  0.88880  1.0000
  H   H48       1.0  0.82170  0.60530  0.61120  1.0000
  C   C89       1.0  0.17660  0.87820  0.13490  1.0000
  C   C90       1.0  0.82340  0.87820  0.36510  1.0000
  C   C91       1.0  0.67660  0.37820  0.13490  1.0000
  C   C92       1.0  0.32340  0.37820  0.36510  1.0000
  C   C93       1.0  0.82340  0.12180  0.86510  1.0000
  C   C94       1.0  0.17660  0.12180  0.63490  1.0000
  C   C95       1.0  0.32340  0.62180  0.86510  1.0000
  C   C96       1.0  0.67660  0.62180  0.63490  1.0000
  H   H49       1.0  0.14200  0.84410  0.11510  1.0000
  H   H50       1.0  0.85800  0.84410  0.38490  1.0000
  H   H51       1.0  0.64200  0.34410  0.11510  1.0000
  H   H52       1.0  0.35800  0.34410  0.38490  1.0000
  H   H53       1.0  0.85800  0.15590  0.88490  1.0000
  H   H54       1.0  0.14200  0.15590  0.61510  1.0000
  H   H55       1.0  0.35800  0.65590  0.88490  1.0000
  H   H56       1.0  0.64200  0.65590  0.61510  1.0000
  C   C97       1.0  0.16480  0.94680  0.19510  1.0000
  C   C98       1.0  0.83520  0.94680  0.30490  1.0000
  C   C99       1.0  0.66480  0.44680  0.19510  1.0000
  C   C100      1.0  0.33520  0.44680  0.30490  1.0000
  C   C101      1.0  0.83520  0.05320  0.80490  1.0000
  C   C102      1.0  0.16480  0.05320  0.69510  1.0000
  C   C103      1.0  0.33520  0.55320  0.80490  1.0000
  C   C104      1.0  0.66480  0.55320  0.69510  1.0000
  H   H57       1.0  0.12320  0.95690  0.21600  1.0000
  H   H58       1.0  0.87680  0.95690  0.28400  1.0000
  H   H59       1.0  0.62320  0.45690  0.21600  1.0000
  H   H60       1.0  0.37680  0.45690  0.28400  1.0000
  H   H61       1.0  0.87680  0.04310  0.78400  1.0000
  H   H62       1.0  0.12320  0.04310  0.71600  1.0000
  H   H63       1.0  0.37680  0.54310  0.78400  1.0000
  H   H64       1.0  0.62320  0.54310  0.71600  1.0000
