data_image0
_chemical_formula_structural       Co12Cl16O8N32C16H8C8H8C8H8C8H8C40H8C8H8C8H8C8H8
_chemical_formula_sum              "Co12 Cl16 O8 N32 C104 H64"
_cell_length_a       20.471
_cell_length_b       15.3812
_cell_length_c       13.8175
_cell_angle_alpha    90
_cell_angle_beta     90.271
_cell_angle_gamma    90

_space_group_name_H-M_alt    "P 1"
_space_group_IT_number       1

loop_
  _space_group_symop_operation_xyz
  'x, y, z'

loop_
  _atom_site_type_symbol
  _atom_site_label
  _atom_site_symmetry_multiplicity
  _atom_site_fract_x
  _atom_site_fract_y
  _atom_site_fract_z
  _atom_site_occupancy
  Co  Co1       1.0  0.25000  0.75000  0.00000  1.0000
  Co  Co2       1.0  0.75000  0.75000  0.50000  1.0000
  Co  Co3       1.0  0.75000  0.25000  0.00000  1.0000
  Co  Co4       1.0  0.25000  0.25000  0.50000  1.0000
  Co  Co5       1.0  0.15965  0.61553  0.13176  1.0000
  Co  Co6       1.0  0.84035  0.61553  0.36824  1.0000
  Co  Co7       1.0  0.65965  0.11553  0.13176  1.0000
  Co  Co8       1.0  0.34035  0.11553  0.36824  1.0000
  Co  Co9       1.0  0.84035  0.38447  0.86824  1.0000
  Co  Co10      1.0  0.15965  0.38447  0.63176  1.0000
  Co  Co11      1.0  0.34035  0.88447  0.86824  1.0000
  Co  Co12      1.0  0.65965  0.88447  0.63176  1.0000
  Cl  Cl1       1.0  0.10430  0.65559  0.26597  1.0000
  Cl  Cl2       1.0  0.89570  0.65559  0.23403  1.0000
  Cl  Cl3       1.0  0.60430  0.15559  0.26597  1.0000
  Cl  Cl4       1.0  0.39570  0.15559  0.23403  1.0000
  Cl  Cl5       1.0  0.89570  0.34441  0.73403  1.0000
  Cl  Cl6       1.0  0.10430  0.34441  0.76597  1.0000
  Cl  Cl7       1.0  0.39570  0.84441  0.73403  1.0000
  Cl  Cl8       1.0  0.60430  0.84441  0.76597  1.0000
  Cl  Cl9       1.0  0.12710  0.48385  0.07704  1.0000
  Cl  Cl10      1.0  0.87290  0.48385  0.42296  1.0000
  Cl  Cl11      1.0  0.62710  0.98385  0.07704  1.0000
  Cl  Cl12      1.0  0.37290  0.98385  0.42296  1.0000
  Cl  Cl13      1.0  0.87290  0.51615  0.92296  1.0000
  Cl  Cl14      1.0  0.12710  0.51615  0.57704  1.0000
  Cl  Cl15      1.0  0.37290  0.01615  0.92296  1.0000
  Cl  Cl16      1.0  0.62710  0.01615  0.57704  1.0000
  O   O1        1.0  0.15498  0.70350  0.02830  1.0000
  O   O2        1.0  0.84502  0.70350  0.47170  1.0000
  O   O3        1.0  0.65498  0.20350  0.02830  1.0000
  O   O4        1.0  0.34502  0.20350  0.47170  1.0000
  O   O5        1.0  0.84502  0.29650  0.97170  1.0000
  O   O6        1.0  0.15498  0.29650  0.52830  1.0000
  O   O7        1.0  0.34502  0.79650  0.97170  1.0000
  O   O8        1.0  0.65498  0.79650  0.52830  1.0000
  N   N1        1.0  0.20930  0.82420  0.89430  1.0000
  N   N2        1.0  0.79070  0.82420  0.60570  1.0000
  N   N3        1.0  0.70930  0.32420  0.89430  1.0000
  N   N4        1.0  0.29070  0.32420  0.60570  1.0000
  N   N5        1.0  0.79070  0.17580  0.10570  1.0000
  N   N6        1.0  0.20930  0.17580  0.39430  1.0000
  N   N7        1.0  0.29070  0.67580  0.10570  1.0000
  N   N8        1.0  0.70930  0.67580  0.39430  1.0000
  N   N9        1.0  0.24370  0.88410  0.84160  1.0000
  N   N10       1.0  0.75630  0.88410  0.65840  1.0000
  N   N11       1.0  0.74370  0.38410  0.84160  1.0000
  N   N12       1.0  0.25630  0.38410  0.65840  1.0000
  N   N13       1.0  0.75630  0.11590  0.15840  1.0000
  N   N14       1.0  0.24370  0.11590  0.34160  1.0000
  N   N15       1.0  0.25630  0.61590  0.15840  1.0000
  N   N16       1.0  0.74370  0.61590  0.34160  1.0000
  N   N17       1.0  0.13740  0.89990  0.80590  1.0000
  N   N18       1.0  0.86260  0.89990  0.69410  1.0000
  N   N19       1.0  0.63740  0.39990  0.80590  1.0000
  N   N20       1.0  0.36260  0.39990  0.69410  1.0000
  N   N21       1.0  0.86260  0.10010  0.19410  1.0000
  N   N22       1.0  0.13740  0.10010  0.30590  1.0000
  N   N23       1.0  0.36260  0.60010  0.19410  1.0000
  N   N24       1.0  0.63740  0.60010  0.30590  1.0000
  N   N25       1.0  0.23360  0.14220  0.60190  1.0000
  N   N26       1.0  0.76640  0.14220  0.89810  1.0000
  N   N27       1.0  0.73360  0.64220  0.60190  1.0000
  N   N28       1.0  0.26640  0.64220  0.89810  1.0000
  N   N29       1.0  0.76640  0.85780  0.39810  1.0000
  N   N30       1.0  0.23360  0.85780  0.10190  1.0000
  N   N31       1.0  0.26640  0.35780  0.39810  1.0000
  N   N32       1.0  0.73360  0.35780  0.10190  1.0000
  C   C1        1.0  0.09680  0.72610  0.98780  1.0000
  C   C2        1.0  0.90320  0.72610  0.51220  1.0000
  C   C3        1.0  0.59680  0.22610  0.98780  1.0000
  C   C4        1.0  0.40320  0.22610  0.51220  1.0000
  C   C5        1.0  0.90320  0.27390  0.01220  1.0000
  C   C6        1.0  0.09680  0.27390  0.48780  1.0000
  C   C7        1.0  0.40320  0.77390  0.01220  1.0000
  C   C8        1.0  0.59680  0.77390  0.48780  1.0000
  C   C9        1.0  0.03960  0.68930  0.02440  1.0000
  C   C10       1.0  0.96040  0.68930  0.47560  1.0000
  C   C11       1.0  0.53960  0.18930  0.02440  1.0000
  C   C12       1.0  0.46040  0.18930  0.47560  1.0000
  C   C13       1.0  0.96040  0.31070  0.97560  1.0000
  C   C14       1.0  0.03960  0.31070  0.52440  1.0000
  C   C15       1.0  0.46040  0.81070  0.97560  1.0000
  C   C16       1.0  0.53960  0.81070  0.52440  1.0000
  H   H1        1.0  0.04240  0.64920  0.07660  1.0000
  H   H2        1.0  0.95760  0.64920  0.42340  1.0000
  H   H3        1.0  0.54240  0.14920  0.07660  1.0000
  H   H4        1.0  0.45760  0.14920  0.42340  1.0000
  H   H5        1.0  0.95760  0.35080  0.92340  1.0000
  H   H6        1.0  0.04240  0.35080  0.57660  1.0000
  H   H7        1.0  0.45760  0.85080  0.92340  1.0000
  H   H8        1.0  0.54240  0.85080  0.57660  1.0000
  C   C17       1.0  0.97850  0.71010  0.98620  1.0000
  C   C18       1.0  0.02150  0.71010  0.51380  1.0000
  C   C19       1.0  0.47850  0.21010  0.98620  1.0000
  C   C20       1.0  0.52150  0.21010  0.51380  1.0000
  C   C21       1.0  0.02150  0.28990  0.01380  1.0000
  C   C22       1.0  0.97850  0.28990  0.48620  1.0000
  C   C23       1.0  0.52150  0.78990  0.01380  1.0000
  C   C24       1.0  0.47850  0.78990  0.48620  1.0000
  H   H9        1.0  0.94030  0.68350  0.01130  1.0000
  H   H10       1.0  0.05970  0.68350  0.48870  1.0000
  H   H11       1.0  0.44030  0.18350  0.01130  1.0000
  H   H12       1.0  0.55970  0.18350  0.48870  1.0000
  H   H13       1.0  0.05970  0.31650  0.98870  1.0000
  H   H14       1.0  0.94030  0.31650  0.51130  1.0000
  H   H15       1.0  0.55970  0.81650  0.98870  1.0000
  H   H16       1.0  0.44030  0.81650  0.51130  1.0000
  C   C25       1.0  0.97360  0.76900  0.91260  1.0000
  C   C26       1.0  0.02640  0.76900  0.58740  1.0000
  C   C27       1.0  0.47360  0.26900  0.91260  1.0000
  C   C28       1.0  0.52640  0.26900  0.58740  1.0000
  C   C29       1.0  0.02640  0.23100  0.08740  1.0000
  C   C30       1.0  0.97360  0.23100  0.41260  1.0000
  C   C31       1.0  0.52640  0.73100  0.08740  1.0000
  C   C32       1.0  0.47360  0.73100  0.41260  1.0000
  H   H17       1.0  0.93200  0.78370  0.88650  1.0000
  H   H18       1.0  0.06800  0.78370  0.61350  1.0000
  H   H19       1.0  0.43200  0.28370  0.88650  1.0000
  H   H20       1.0  0.56800  0.28370  0.61350  1.0000
  H   H21       1.0  0.06800  0.21630  0.11350  1.0000
  H   H22       1.0  0.93200  0.21630  0.38650  1.0000
  H   H23       1.0  0.56800  0.71630  0.11350  1.0000
  H   H24       1.0  0.43200  0.71630  0.38650  1.0000
  C   C33       1.0  0.02900  0.80670  0.87650  1.0000
  C   C34       1.0  0.97100  0.80670  0.62350  1.0000
  C   C35       1.0  0.52900  0.30670  0.87650  1.0000
  C   C36       1.0  0.47100  0.30670  0.62350  1.0000
  C   C37       1.0  0.97100  0.19330  0.12350  1.0000
  C   C38       1.0  0.02900  0.19330  0.37650  1.0000
  C   C39       1.0  0.47100  0.69330  0.12350  1.0000
  C   C40       1.0  0.52900  0.69330  0.37650  1.0000
  H   H25       1.0  0.02520  0.84810  0.82580  1.0000
  H   H26       1.0  0.97480  0.84810  0.67420  1.0000
  H   H27       1.0  0.52520  0.34810  0.82580  1.0000
  H   H28       1.0  0.47480  0.34810  0.67420  1.0000
  H   H29       1.0  0.97480  0.15190  0.17420  1.0000
  H   H30       1.0  0.02520  0.15190  0.32580  1.0000
  H   H31       1.0  0.47480  0.65190  0.17420  1.0000
  H   H32       1.0  0.52520  0.65190  0.32580  1.0000
  C   C41       1.0  0.09140  0.78570  0.91250  1.0000
  C   C42       1.0  0.90860  0.78570  0.58750  1.0000
  C   C43       1.0  0.59140  0.28570  0.91250  1.0000
  C   C44       1.0  0.40860  0.28570  0.58750  1.0000
  C   C45       1.0  0.90860  0.21430  0.08750  1.0000
  C   C46       1.0  0.09140  0.21430  0.41250  1.0000
  C   C47       1.0  0.40860  0.71430  0.08750  1.0000
  C   C48       1.0  0.59140  0.71430  0.41250  1.0000
  C   C49       1.0  0.14640  0.83580  0.87100  1.0000
  C   C50       1.0  0.85360  0.83580  0.62900  1.0000
  C   C51       1.0  0.64640  0.33580  0.87100  1.0000
  C   C52       1.0  0.35360  0.33580  0.62900  1.0000
  C   C53       1.0  0.85360  0.16420  0.12900  1.0000
  C   C54       1.0  0.14640  0.16420  0.37100  1.0000
  C   C55       1.0  0.35360  0.66420  0.12900  1.0000
  C   C56       1.0  0.64640  0.66420  0.37100  1.0000
  C   C57       1.0  0.19860  0.92810  0.79010  1.0000
  C   C58       1.0  0.80140  0.92810  0.70990  1.0000
  C   C59       1.0  0.69860  0.42810  0.79010  1.0000
  C   C60       1.0  0.30140  0.42810  0.70990  1.0000
  C   C61       1.0  0.80140  0.07190  0.20990  1.0000
  C   C62       1.0  0.19860  0.07190  0.29010  1.0000
  C   C63       1.0  0.30140  0.57190  0.20990  1.0000
  C   C64       1.0  0.69860  0.57190  0.29010  1.0000
  C   C65       1.0  0.21240  0.00110  0.72530  1.0000
  C   C66       1.0  0.78760  0.00110  0.77470  1.0000
  C   C67       1.0  0.71240  0.50110  0.72530  1.0000
  C   C68       1.0  0.28760  0.50110  0.77470  1.0000
  C   C69       1.0  0.78760  0.99890  0.27470  1.0000
  C   C70       1.0  0.21240  0.99890  0.22530  1.0000
  C   C71       1.0  0.28760  0.49890  0.27470  1.0000
  C   C72       1.0  0.71240  0.49890  0.22530  1.0000
  C   C73       1.0  0.16260  0.04980  0.69030  1.0000
  C   C74       1.0  0.83740  0.04980  0.80970  1.0000
  C   C75       1.0  0.66260  0.54980  0.69030  1.0000
  C   C76       1.0  0.33740  0.54980  0.80970  1.0000
  C   C77       1.0  0.83740  0.95020  0.30970  1.0000
  C   C78       1.0  0.16260  0.95020  0.19030  1.0000
  C   C79       1.0  0.33740  0.45020  0.30970  1.0000
  C   C80       1.0  0.66260  0.45020  0.19030  1.0000
  H   H33       1.0  0.11900  0.03580  0.70750  1.0000
  H   H34       1.0  0.88100  0.03580  0.79250  1.0000
  H   H35       1.0  0.61900  0.53580  0.70750  1.0000
  H   H36       1.0  0.38100  0.53580  0.79250  1.0000
  H   H37       1.0  0.88100  0.96420  0.29250  1.0000
  H   H38       1.0  0.11900  0.96420  0.20750  1.0000
  H   H39       1.0  0.38100  0.46420  0.29250  1.0000
  H   H40       1.0  0.61900  0.46420  0.20750  1.0000
  C   C81       1.0  0.17410  0.11950  0.63010  1.0000
  C   C82       1.0  0.82590  0.11950  0.86990  1.0000
  C   C83       1.0  0.67410  0.61950  0.63010  1.0000
  C   C84       1.0  0.32590  0.61950  0.86990  1.0000
  C   C85       1.0  0.82590  0.88050  0.36990  1.0000
  C   C86       1.0  0.17410  0.88050  0.13010  1.0000
  C   C87       1.0  0.32590  0.38050  0.36990  1.0000
  C   C88       1.0  0.67410  0.38050  0.13010  1.0000
  H   H41       1.0  0.13790  0.15270  0.60790  1.0000
  H   H42       1.0  0.86210  0.15270  0.89210  1.0000
  H   H43       1.0  0.63790  0.65270  0.60790  1.0000
  H   H44       1.0  0.36210  0.65270  0.89210  1.0000
  H   H45       1.0  0.86210  0.84730  0.39210  1.0000
  H   H46       1.0  0.13790  0.84730  0.10790  1.0000
  H   H47       1.0  0.36210  0.34730  0.39210  1.0000
  H   H48       1.0  0.63790  0.34730  0.10790  1.0000
  C   C89       1.0  0.28210  0.09360  0.63340  1.0000
  C   C90       1.0  0.71790  0.09360  0.86660  1.0000
  C   C91       1.0  0.78210  0.59360  0.63340  1.0000
  C   C92       1.0  0.21790  0.59360  0.86660  1.0000
  C   C93       1.0  0.71790  0.90640  0.36660  1.0000
  C   C94       1.0  0.28210  0.90640  0.13340  1.0000
  C   C95       1.0  0.21790  0.40640  0.36660  1.0000
  C   C96       1.0  0.78210  0.40640  0.13340  1.0000
  H   H49       1.0  0.32510  0.10780  0.61340  1.0000
  H   H50       1.0  0.67490  0.10780  0.88660  1.0000
  H   H51       1.0  0.82510  0.60780  0.61340  1.0000
  H   H52       1.0  0.17490  0.60780  0.88660  1.0000
  H   H53       1.0  0.67490  0.89220  0.38660  1.0000
  H   H54       1.0  0.32510  0.89220  0.11340  1.0000
  H   H55       1.0  0.17490  0.39220  0.38660  1.0000
  H   H56       1.0  0.82510  0.39220  0.11340  1.0000
  C   C97       1.0  0.27380  0.02240  0.69460  1.0000
  C   C98       1.0  0.72620  0.02240  0.80540  1.0000
  C   C99       1.0  0.77380  0.52240  0.69460  1.0000
  C   C100      1.0  0.22620  0.52240  0.80540  1.0000
  C   C101      1.0  0.72620  0.97760  0.30540  1.0000
  C   C102      1.0  0.27380  0.97760  0.19460  1.0000
  C   C103      1.0  0.22620  0.47760  0.30540  1.0000
  C   C104      1.0  0.77380  0.47760  0.19460  1.0000
  H   H57       1.0  0.31040  0.98900  0.71480  1.0000
  H   H58       1.0  0.68960  0.98900  0.78520  1.0000
  H   H59       1.0  0.81040  0.48900  0.71480  1.0000
  H   H60       1.0  0.18960  0.48900  0.78520  1.0000
  H   H61       1.0  0.68960  0.01100  0.28520  1.0000
  H   H62       1.0  0.31040  0.01100  0.21480  1.0000
  H   H63       1.0  0.18960  0.51100  0.28520  1.0000
  H   H64       1.0  0.81040  0.51100  0.21480  1.0000
