data_image0
_chemical_formula_structural       Cd4O24C8H2C4H2C6H2C2H2C2H2C2H2C8H2C2H2C10H2C2
_chemical_formula_sum              "Cd4 O24 C46 H18"
_cell_length_a       10.0936
_cell_length_b       13.0139
_cell_length_c       13.2232
_cell_angle_alpha    74.658
_cell_angle_beta     89.591
_cell_angle_gamma    74.271

_space_group_name_H-M_alt    "P 1"
_space_group_IT_number       1

loop_
  _space_group_symop_operation_xyz
  'x, y, z'

loop_
  _atom_site_type_symbol
  _atom_site_label
  _atom_site_symmetry_multiplicity
  _atom_site_fract_x
  _atom_site_fract_y
  _atom_site_fract_z
  _atom_site_occupancy
  Cd  Cd1       1.0  0.23876  0.00119  0.84021  1.0000
  Cd  Cd2       1.0  0.76124  0.99881  0.15979  1.0000
  Cd  Cd3       1.0  0.43487  0.14490  0.00480  1.0000
  Cd  Cd4       1.0  0.56513  0.85510  0.99520  1.0000
  O   O1        1.0  0.50660  0.03440  0.88750  1.0000
  O   O2        1.0  0.49340  0.96560  0.11250  1.0000
  O   O3        1.0  0.62300  0.34660  0.50270  1.0000
  O   O4        1.0  0.37700  0.65340  0.49730  1.0000
  O   O5        1.0  0.78560  0.88500  0.04490  1.0000
  O   O6        1.0  0.21440  0.11500  0.95510  1.0000
  O   O7        1.0  0.17940  0.49240  0.31330  1.0000
  O   O8        1.0  0.82060  0.50760  0.68670  1.0000
  O   O9        1.0  0.01430  0.98880  0.83260  1.0000
  O   O10       1.0  0.98570  0.01120  0.16740  1.0000
  O   O11       1.0  0.30650  0.87190  0.99620  1.0000
  O   O12       1.0  0.69350  0.12810  0.00380  1.0000
  O   O13       1.0  0.43630  0.19680  0.15240  1.0000
  O   O14       1.0  0.56370  0.80320  0.84760  1.0000
  O   O15       1.0  0.45940  0.72910  0.09760  1.0000
  O   O16       1.0  0.54060  0.27090  0.90240  1.0000
  O   O17       1.0  0.06990  0.11780  0.70650  1.0000
  O   O18       1.0  0.93010  0.88220  0.29350  1.0000
  O   O19       1.0  0.76940  0.71930  0.05850  1.0000
  O   O20       1.0  0.23060  0.28070  0.94150  1.0000
  O   O21       1.0  0.64960  0.13800  0.23100  1.0000
  O   O22       1.0  0.35040  0.86200  0.76900  1.0000
  O   O23       1.0  0.37320  0.09760  0.74260  1.0000
  O   O24       1.0  0.62680  0.90240  0.25740  1.0000
  C   C1        1.0  0.83660  0.78270  0.06890  1.0000
  C   C2        1.0  0.16340  0.21730  0.93110  1.0000
  C   C3        1.0  0.59430  0.12360  0.73130  1.0000
  C   C4        1.0  0.40570  0.87640  0.26870  1.0000
  C   C5        1.0  0.53160  0.34270  0.42330  1.0000
  C   C6        1.0  0.46840  0.65730  0.57670  1.0000
  C   C7        1.0  0.73210  0.07560  0.76860  1.0000
  C   C8        1.0  0.26790  0.92440  0.23140  1.0000
  H   H1        1.0  0.75733  0.01536  0.82918  1.0000
  H   H2        1.0  0.24267  0.98464  0.17082  1.0000
  C   C9        1.0  0.33760  0.78240  0.06220  1.0000
  C   C10       1.0  0.66240  0.21760  0.93780  1.0000
  C   C11       1.0  0.55920  0.20840  0.64060  1.0000
  C   C12       1.0  0.44080  0.79160  0.35940  1.0000
  H   H3        1.0  0.46654  0.23680  0.61398  1.0000
  H   H4        1.0  0.53346  0.76320  0.38602  1.0000
  C   C13       1.0  0.22400  0.73260  0.10840  1.0000
  C   C14       1.0  0.77600  0.26740  0.89160  1.0000
  C   C15       1.0  0.48260  0.27150  0.28660  1.0000
  C   C16       1.0  0.51740  0.72850  0.71340  1.0000
  C   C17       1.0  0.57120  0.26750  0.36680  1.0000
  C   C18       1.0  0.42880  0.73250  0.63320  1.0000
  H   H5        1.0  0.65750  0.21398  0.38221  1.0000
  H   H6        1.0  0.34250  0.78602  0.61779  1.0000
  C   C19       1.0  0.02110  0.63470  0.18850  1.0000
  C   C20       1.0  0.97890  0.36530  0.81150  1.0000
  H   H7        1.0  0.95264  0.59979  0.21397  1.0000
  H   H8        1.0  0.04736  0.40021  0.78603  1.0000
  C   C21       1.0  0.25870  0.63570  0.19060  1.0000
  C   C22       1.0  0.74130  0.36430  0.80940  1.0000
  H   H9        1.0  0.35038  0.60437  0.21912  1.0000
  H   H10       1.0  0.64962  0.39563  0.78088  1.0000
  C   C23       1.0  0.08700  0.78370  0.07280  1.0000
  C   C24       1.0  0.91300  0.21630  0.92720  1.0000
  H   H11       1.0  0.06253  0.85317  0.02252  1.0000
  H   H12       1.0  0.93747  0.14683  0.97748  1.0000
  C   C25       1.0  0.48290  0.08220  0.79000  1.0000
  C   C26       1.0  0.51710  0.91780  0.21000  1.0000
  C   C27       1.0  0.65820  0.25300  0.58750  1.0000
  C   C28       1.0  0.34180  0.74700  0.41250  1.0000
  C   C29       1.0  0.98590  0.73260  0.11140  1.0000
  C   C30       1.0  0.01410  0.26740  0.88860  1.0000
  C   C31       1.0  0.40310  0.41920  0.40760  1.0000
  C   C32       1.0  0.59690  0.58080  0.59240  1.0000
  H   H13       1.0  0.37648  0.46953  0.44852  1.0000
  H   H14       1.0  0.62352  0.53047  0.55148  1.0000
  C   C33       1.0  0.79500  0.20670  0.62240  1.0000
  C   C34       1.0  0.20500  0.79330  0.37760  1.0000
  H   H15       1.0  0.86308  0.23406  0.58450  1.0000
  H   H16       1.0  0.13692  0.76594  0.41550  1.0000
  C   C35       1.0  0.31420  0.41750  0.32660  1.0000
  C   C36       1.0  0.68580  0.58250  0.67340  1.0000
  C   C37       1.0  0.15730  0.58560  0.23010  1.0000
  C   C38       1.0  0.84270  0.41440  0.76990  1.0000
  C   C39       1.0  0.83280  0.12020  0.71290  1.0000
  C   C40       1.0  0.16720  0.87980  0.28710  1.0000
  C   C41       1.0  0.52980  0.19240  0.21560  1.0000
  C   C42       1.0  0.47020  0.80760  0.78440  1.0000
  C   C43       1.0  0.35010  0.34570  0.26910  1.0000
  C   C44       1.0  0.64990  0.65430  0.73090  1.0000
  H   H17       1.0  0.28740  0.34488  0.21735  1.0000
  H   H18       1.0  0.71260  0.65512  0.78265  1.0000
  C   C45       1.0  0.98120  0.07220  0.75010  1.0000
  C   C46       1.0  0.01880  0.92780  0.24990  1.0000
