data_image0
_chemical_formula_structural       In8O88C32H16C56H8C16H8C8H8C24H8C8H8C24H8C8H16C8H16C8H8C16H8C24H8C8H8C8H8C24H8C8H8C8H24F8C8H24C8H8C8H24C8H8F8
_chemical_formula_sum              "In8 O88 C320 H240 F16"
_cell_length_a       12.9184
_cell_length_b       35.3319
_cell_length_c       30.2209
_cell_angle_alpha    90
_cell_angle_beta     90.418
_cell_angle_gamma    90

_space_group_name_H-M_alt    "P 1"
_space_group_IT_number       1

loop_
  _space_group_symop_operation_xyz
  'x, y, z'

loop_
  _atom_site_type_symbol
  _atom_site_label
  _atom_site_symmetry_multiplicity
  _atom_site_fract_x
  _atom_site_fract_y
  _atom_site_fract_z
  _atom_site_occupancy
  In  In1       1.0  0.89483  0.43946  0.62729  1.0000
  In  In2       1.0  0.10517  0.43946  0.87271  1.0000
  In  In3       1.0  0.39483  0.93946  0.62729  1.0000
  In  In4       1.0  0.60517  0.93946  0.87271  1.0000
  In  In5       1.0  0.10517  0.56054  0.37271  1.0000
  In  In6       1.0  0.89483  0.56054  0.12729  1.0000
  In  In7       1.0  0.60517  0.06054  0.37271  1.0000
  In  In8       1.0  0.39483  0.06054  0.12729  1.0000
  O   O1        1.0  0.37610  0.56381  0.52439  1.0000
  O   O2        1.0  0.62390  0.56381  0.97561  1.0000
  O   O3        1.0  0.87610  0.06381  0.52439  1.0000
  O   O4        1.0  0.12390  0.06381  0.97561  1.0000
  O   O5        1.0  0.62390  0.43619  0.47561  1.0000
  O   O6        1.0  0.37610  0.43619  0.02439  1.0000
  O   O7        1.0  0.12390  0.93619  0.47561  1.0000
  O   O8        1.0  0.87610  0.93619  0.02439  1.0000
  O   O9        1.0  0.91193  0.56902  0.20276  1.0000
  O   O10       1.0  0.08807  0.56902  0.29724  1.0000
  O   O11       1.0  0.41193  0.06902  0.20276  1.0000
  O   O12       1.0  0.58807  0.06902  0.29724  1.0000
  O   O13       1.0  0.08807  0.43098  0.79724  1.0000
  O   O14       1.0  0.91193  0.43098  0.70276  1.0000
  O   O15       1.0  0.58807  0.93098  0.79724  1.0000
  O   O16       1.0  0.41193  0.93098  0.70276  1.0000
  O   O17       1.0  0.05873  0.46471  0.63420  1.0000
  O   O18       1.0  0.94127  0.46471  0.86580  1.0000
  O   O19       1.0  0.55873  0.96471  0.63420  1.0000
  O   O20       1.0  0.44127  0.96471  0.86580  1.0000
  O   O21       1.0  0.94127  0.53529  0.36580  1.0000
  O   O22       1.0  0.05873  0.53529  0.13420  1.0000
  O   O23       1.0  0.44127  0.03529  0.36580  1.0000
  O   O24       1.0  0.55873  0.03529  0.13420  1.0000
  O   O25       1.0  0.34950  0.89538  0.57509  1.0000
  O   O26       1.0  0.65050  0.89538  0.92491  1.0000
  O   O27       1.0  0.84950  0.39538  0.57509  1.0000
  O   O28       1.0  0.15050  0.39538  0.92491  1.0000
  O   O29       1.0  0.65050  0.10462  0.42491  1.0000
  O   O30       1.0  0.34950  0.10462  0.07509  1.0000
  O   O31       1.0  0.15050  0.60462  0.42491  1.0000
  O   O32       1.0  0.84950  0.60462  0.07509  1.0000
  O   O33       1.0  0.97739  0.46784  0.57062  1.0000
  O   O34       1.0  0.02261  0.46784  0.92938  1.0000
  O   O35       1.0  0.47739  0.96784  0.57062  1.0000
  O   O36       1.0  0.52261  0.96784  0.92938  1.0000
  O   O37       1.0  0.02261  0.53216  0.42938  1.0000
  O   O38       1.0  0.97739  0.53216  0.07062  1.0000
  O   O39       1.0  0.52261  0.03216  0.42938  1.0000
  O   O40       1.0  0.47739  0.03216  0.07062  1.0000
  O   O41       1.0  0.47901  0.88388  0.62033  1.0000
  O   O42       1.0  0.52099  0.88388  0.87967  1.0000
  O   O43       1.0  0.97901  0.38388  0.62033  1.0000
  O   O44       1.0  0.02099  0.38388  0.87967  1.0000
  O   O45       1.0  0.52099  0.11612  0.37967  1.0000
  O   O46       1.0  0.47901  0.11612  0.12033  1.0000
  O   O47       1.0  0.02099  0.61612  0.37967  1.0000
  O   O48       1.0  0.97901  0.61612  0.12033  1.0000
  O   O49       1.0  0.75780  0.47345  0.59981  1.0000
  O   O50       1.0  0.24220  0.47345  0.90019  1.0000
  O   O51       1.0  0.25780  0.97345  0.59981  1.0000
  O   O52       1.0  0.74220  0.97345  0.90019  1.0000
  O   O53       1.0  0.24220  0.52655  0.40019  1.0000
  O   O54       1.0  0.75780  0.52655  0.09981  1.0000
  O   O55       1.0  0.74220  0.02655  0.40019  1.0000
  O   O56       1.0  0.25780  0.02655  0.09981  1.0000
  O   O57       1.0  0.77260  0.58784  0.16877  1.0000
  O   O58       1.0  0.22740  0.58784  0.33123  1.0000
  O   O59       1.0  0.27260  0.08784  0.16877  1.0000
  O   O60       1.0  0.72740  0.08784  0.33123  1.0000
  O   O61       1.0  0.22740  0.41216  0.83123  1.0000
  O   O62       1.0  0.77260  0.41216  0.66877  1.0000
  O   O63       1.0  0.72740  0.91216  0.83123  1.0000
  O   O64       1.0  0.27260  0.91216  0.66877  1.0000
  O   O65       1.0  0.63870  0.62852  0.36368  1.0000
  O   O66       1.0  0.36130  0.62852  0.13632  1.0000
  O   O67       1.0  0.13870  0.12852  0.36368  1.0000
  O   O68       1.0  0.86130  0.12852  0.13632  1.0000
  O   O69       1.0  0.36130  0.37148  0.63632  1.0000
  O   O70       1.0  0.63870  0.37148  0.86368  1.0000
  O   O71       1.0  0.86130  0.87148  0.63632  1.0000
  O   O72       1.0  0.13870  0.87148  0.86368  1.0000
  O   O73       1.0  0.84930  0.49927  0.65187  1.0000
  O   O74       1.0  0.15070  0.49927  0.84813  1.0000
  O   O75       1.0  0.34930  0.99927  0.65187  1.0000
  O   O76       1.0  0.65070  0.99927  0.84813  1.0000
  O   O77       1.0  0.15070  0.50073  0.34813  1.0000
  O   O78       1.0  0.84930  0.50073  0.15187  1.0000
  O   O79       1.0  0.65070  0.00073  0.34813  1.0000
  O   O80       1.0  0.34930  0.00073  0.15187  1.0000
  O   O81       1.0  0.47470  0.73158  0.50729  1.0000
  O   O82       1.0  0.52530  0.73158  0.99271  1.0000
  O   O83       1.0  0.97470  0.23158  0.50729  1.0000
  O   O84       1.0  0.02530  0.23158  0.99271  1.0000
  O   O85       1.0  0.52530  0.26842  0.49271  1.0000
  O   O86       1.0  0.47470  0.26842  0.00729  1.0000
  O   O87       1.0  0.02530  0.76842  0.49271  1.0000
  O   O88       1.0  0.97470  0.76842  0.00729  1.0000
  C   C1        1.0  0.14210  0.49727  0.57532  1.0000
  C   C2        1.0  0.85790  0.49727  0.92468  1.0000
  C   C3        1.0  0.64210  0.99727  0.57532  1.0000
  C   C4        1.0  0.35790  0.99727  0.92468  1.0000
  C   C5        1.0  0.85790  0.50273  0.42468  1.0000
  C   C6        1.0  0.14210  0.50273  0.07532  1.0000
  C   C7        1.0  0.35790  0.00273  0.42468  1.0000
  C   C8        1.0  0.64210  0.00273  0.07532  1.0000
  C   C9        1.0  0.29770  0.54173  0.53874  1.0000
  C   C10       1.0  0.70230  0.54173  0.96126  1.0000
  C   C11       1.0  0.79770  0.04173  0.53874  1.0000
  C   C12       1.0  0.20230  0.04173  0.96126  1.0000
  C   C13       1.0  0.70230  0.45827  0.46126  1.0000
  C   C14       1.0  0.29770  0.45827  0.03874  1.0000
  C   C15       1.0  0.20230  0.95827  0.46126  1.0000
  C   C16       1.0  0.79770  0.95827  0.03874  1.0000
  C   C17       1.0  0.05620  0.47555  0.59492  1.0000
  C   C18       1.0  0.94380  0.47555  0.90508  1.0000
  C   C19       1.0  0.55620  0.97555  0.59492  1.0000
  C   C20       1.0  0.44380  0.97555  0.90508  1.0000
  C   C21       1.0  0.94380  0.52445  0.40508  1.0000
  C   C22       1.0  0.05620  0.52445  0.09492  1.0000
  C   C23       1.0  0.44380  0.02445  0.40508  1.0000
  C   C24       1.0  0.55620  0.02445  0.09492  1.0000
  C   C25       1.0  0.35750  0.58554  0.48511  1.0000
  C   C26       1.0  0.64250  0.58554  0.01489  1.0000
  C   C27       1.0  0.85750  0.08554  0.48511  1.0000
  C   C28       1.0  0.14250  0.08554  0.01489  1.0000
  C   C29       1.0  0.64250  0.41446  0.51489  1.0000
  C   C30       1.0  0.35750  0.41446  0.98511  1.0000
  C   C31       1.0  0.14250  0.91446  0.51489  1.0000
  C   C32       1.0  0.85750  0.91446  0.98511  1.0000
  H   H1        1.0  0.29468  0.60031  0.48810  1.0000
  H   H2        1.0  0.70532  0.60031  0.01190  1.0000
  H   H3        1.0  0.79468  0.10031  0.48810  1.0000
  H   H4        1.0  0.20532  0.10031  0.01190  1.0000
  H   H5        1.0  0.70532  0.39969  0.51190  1.0000
  H   H6        1.0  0.29468  0.39969  0.98810  1.0000
  H   H7        1.0  0.20532  0.89969  0.51190  1.0000
  H   H8        1.0  0.79468  0.89969  0.98810  1.0000
  H   H9        1.0  0.34988  0.56895  0.45973  1.0000
  H   H10       1.0  0.65012  0.56895  0.04027  1.0000
  H   H11       1.0  0.84988  0.06895  0.45973  1.0000
  H   H12       1.0  0.15012  0.06895  0.04027  1.0000
  H   H13       1.0  0.65012  0.43105  0.54027  1.0000
  H   H14       1.0  0.34988  0.43105  0.95973  1.0000
  H   H15       1.0  0.15012  0.93105  0.54027  1.0000
  H   H16       1.0  0.84988  0.93105  0.95973  1.0000
  C   C33       1.0  0.45022  0.61152  0.47913  1.0000
  C   C34       1.0  0.54978  0.61152  0.02087  1.0000
  C   C35       1.0  0.95022  0.11152  0.47913  1.0000
  C   C36       1.0  0.04978  0.11152  0.02087  1.0000
  C   C37       1.0  0.54978  0.38848  0.52087  1.0000
  C   C38       1.0  0.45022  0.38848  0.97913  1.0000
  C   C39       1.0  0.04978  0.88848  0.52087  1.0000
  C   C40       1.0  0.95022  0.88848  0.97913  1.0000
  C   C41       1.0  0.52405  0.60358  0.44721  1.0000
  C   C42       1.0  0.47595  0.60358  0.05279  1.0000
  C   C43       1.0  0.02405  0.10358  0.44721  1.0000
  C   C44       1.0  0.97595  0.10358  0.05279  1.0000
  C   C45       1.0  0.47595  0.39642  0.55279  1.0000
  C   C46       1.0  0.52405  0.39642  0.94721  1.0000
  C   C47       1.0  0.97595  0.89642  0.55279  1.0000
  C   C48       1.0  0.02405  0.89642  0.94721  1.0000
  C   C49       1.0  0.60477  0.62878  0.43993  1.0000
  C   C50       1.0  0.39523  0.62878  0.06007  1.0000
  C   C51       1.0  0.10477  0.12878  0.43993  1.0000
  C   C52       1.0  0.89523  0.12878  0.06007  1.0000
  C   C53       1.0  0.39523  0.37122  0.56007  1.0000
  C   C54       1.0  0.60477  0.37122  0.93993  1.0000
  C   C55       1.0  0.89523  0.87122  0.56007  1.0000
  C   C56       1.0  0.10477  0.87122  0.93993  1.0000
  C   C57       1.0  0.61168  0.66192  0.46457  1.0000
  C   C58       1.0  0.38832  0.66192  0.03543  1.0000
  C   C59       1.0  0.11168  0.16192  0.46457  1.0000
  C   C60       1.0  0.88832  0.16192  0.03543  1.0000
  C   C61       1.0  0.38832  0.33808  0.53543  1.0000
  C   C62       1.0  0.61168  0.33808  0.96457  1.0000
  C   C63       1.0  0.88832  0.83808  0.53543  1.0000
  C   C64       1.0  0.11168  0.83808  0.96457  1.0000
  C   C65       1.0  0.53785  0.66986  0.49648  1.0000
  C   C66       1.0  0.46215  0.66986  0.00352  1.0000
  C   C67       1.0  0.03785  0.16986  0.49648  1.0000
  C   C68       1.0  0.96215  0.16986  0.00352  1.0000
  C   C69       1.0  0.46215  0.33014  0.50352  1.0000
  C   C70       1.0  0.53785  0.33014  0.99648  1.0000
  C   C71       1.0  0.96215  0.83014  0.50352  1.0000
  C   C72       1.0  0.03785  0.83014  0.99648  1.0000
  C   C73       1.0  0.45712  0.64466  0.50377  1.0000
  C   C74       1.0  0.54288  0.64466  0.99623  1.0000
  C   C75       1.0  0.95712  0.14466  0.50377  1.0000
  C   C76       1.0  0.04288  0.14466  0.99623  1.0000
  C   C77       1.0  0.54288  0.35534  0.49623  1.0000
  C   C78       1.0  0.45712  0.35534  0.00377  1.0000
  C   C79       1.0  0.04288  0.85534  0.49623  1.0000
  C   C80       1.0  0.95712  0.85534  0.00377  1.0000
  C   C81       1.0  0.78880  0.60330  0.32559  1.0000
  C   C82       1.0  0.21120  0.60330  0.17441  1.0000
  C   C83       1.0  0.28880  0.10330  0.32559  1.0000
  C   C84       1.0  0.71120  0.10330  0.17441  1.0000
  C   C85       1.0  0.21120  0.39670  0.67441  1.0000
  C   C86       1.0  0.78880  0.39670  0.82559  1.0000
  C   C87       1.0  0.71120  0.89670  0.67441  1.0000
  C   C88       1.0  0.28880  0.89670  0.82559  1.0000
  H   H17       1.0  0.82607  0.60084  0.35187  1.0000
  H   H18       1.0  0.17393  0.60084  0.14813  1.0000
  H   H19       1.0  0.32607  0.10084  0.35187  1.0000
  H   H20       1.0  0.67393  0.10084  0.14813  1.0000
  H   H21       1.0  0.17393  0.39916  0.64813  1.0000
  H   H22       1.0  0.82607  0.39916  0.85187  1.0000
  H   H23       1.0  0.67393  0.89916  0.64813  1.0000
  H   H24       1.0  0.32607  0.89916  0.85187  1.0000
  C   C89       1.0  0.68920  0.61738  0.32606  1.0000
  C   C90       1.0  0.31080  0.61738  0.17394  1.0000
  C   C91       1.0  0.18920  0.11738  0.32606  1.0000
  C   C92       1.0  0.81080  0.11738  0.17394  1.0000
  C   C93       1.0  0.31080  0.38262  0.67394  1.0000
  C   C94       1.0  0.68920  0.38262  0.82606  1.0000
  C   C95       1.0  0.81080  0.88262  0.67394  1.0000
  C   C96       1.0  0.18920  0.88262  0.82606  1.0000
  C   C97       1.0  0.67760  0.61099  0.24768  1.0000
  C   C98       1.0  0.32240  0.61099  0.25232  1.0000
  C   C99       1.0  0.17760  0.11099  0.24768  1.0000
  C   C100      1.0  0.82240  0.11099  0.25232  1.0000
  C   C101      1.0  0.32240  0.38901  0.75232  1.0000
  C   C102      1.0  0.67760  0.38901  0.74768  1.0000
  C   C103      1.0  0.82240  0.88901  0.75232  1.0000
  C   C104      1.0  0.17760  0.88901  0.74768  1.0000
  H   H25       1.0  0.64028  0.61394  0.22148  1.0000
  H   H26       1.0  0.35972  0.61394  0.27852  1.0000
  H   H27       1.0  0.14028  0.11394  0.22148  1.0000
  H   H28       1.0  0.85972  0.11394  0.27852  1.0000
  H   H29       1.0  0.35972  0.38606  0.77852  1.0000
  H   H30       1.0  0.64028  0.38606  0.72148  1.0000
  H   H31       1.0  0.85972  0.88606  0.77852  1.0000
  H   H32       1.0  0.14028  0.88606  0.72148  1.0000
  C   C105      1.0  0.23210  0.50415  0.59877  1.0000
  C   C106      1.0  0.76790  0.50415  0.90123  1.0000
  C   C107      1.0  0.73210  0.00415  0.59877  1.0000
  C   C108      1.0  0.26790  0.00415  0.90123  1.0000
  C   C109      1.0  0.76790  0.49585  0.40123  1.0000
  C   C110      1.0  0.23210  0.49585  0.09877  1.0000
  C   C111      1.0  0.26790  0.99585  0.40123  1.0000
  C   C112      1.0  0.73210  0.99585  0.09877  1.0000
  H   H33       1.0  0.24043  0.49402  0.62697  1.0000
  H   H34       1.0  0.75957  0.49402  0.87303  1.0000
  H   H35       1.0  0.74043  0.99402  0.62697  1.0000
  H   H36       1.0  0.25957  0.99402  0.87303  1.0000
  H   H37       1.0  0.75957  0.50598  0.37303  1.0000
  H   H38       1.0  0.24043  0.50598  0.12697  1.0000
  H   H39       1.0  0.25957  0.00598  0.37303  1.0000
  H   H40       1.0  0.74043  0.00598  0.12697  1.0000
  C   C113      1.0  0.77760  0.59624  0.24670  1.0000
  C   C114      1.0  0.22240  0.59624  0.25330  1.0000
  C   C115      1.0  0.27760  0.09624  0.24670  1.0000
  C   C116      1.0  0.72240  0.09624  0.25330  1.0000
  C   C117      1.0  0.22240  0.40376  0.75330  1.0000
  C   C118      1.0  0.77760  0.40376  0.74670  1.0000
  C   C119      1.0  0.72240  0.90376  0.75330  1.0000
  C   C120      1.0  0.27760  0.90376  0.74670  1.0000
  C   C121      1.0  0.42040  0.87397  0.58897  1.0000
  C   C122      1.0  0.57960  0.87397  0.91103  1.0000
  C   C123      1.0  0.92040  0.37397  0.58897  1.0000
  C   C124      1.0  0.07960  0.37397  0.91103  1.0000
  C   C125      1.0  0.57960  0.12603  0.41103  1.0000
  C   C126      1.0  0.42040  0.12603  0.08897  1.0000
  C   C127      1.0  0.07960  0.62603  0.41103  1.0000
  C   C128      1.0  0.92040  0.62603  0.08897  1.0000
  C   C129      1.0  0.13230  0.51282  0.53316  1.0000
  C   C130      1.0  0.86770  0.51282  0.96684  1.0000
  C   C131      1.0  0.63230  0.01282  0.53316  1.0000
  C   C132      1.0  0.36770  0.01282  0.96684  1.0000
  C   C133      1.0  0.86770  0.48718  0.46684  1.0000
  C   C134      1.0  0.13230  0.48718  0.03316  1.0000
  C   C135      1.0  0.36770  0.98718  0.46684  1.0000
  C   C136      1.0  0.63230  0.98718  0.03316  1.0000
  H   H41       1.0  0.07240  0.50798  0.51685  1.0000
  H   H42       1.0  0.92760  0.50798  0.98315  1.0000
  H   H43       1.0  0.57240  0.00798  0.51685  1.0000
  H   H44       1.0  0.42760  0.00798  0.98315  1.0000
  H   H45       1.0  0.92760  0.49202  0.48315  1.0000
  H   H46       1.0  0.07240  0.49202  0.01685  1.0000
  H   H47       1.0  0.42760  0.99202  0.48315  1.0000
  H   H48       1.0  0.57240  0.99202  0.01685  1.0000
  C   C137      1.0  0.83290  0.59283  0.28582  1.0000
  C   C138      1.0  0.16710  0.59283  0.21418  1.0000
  C   C139      1.0  0.33290  0.09283  0.28582  1.0000
  C   C140      1.0  0.66710  0.09283  0.21418  1.0000
  C   C141      1.0  0.16710  0.40717  0.71418  1.0000
  C   C142      1.0  0.83290  0.40717  0.78582  1.0000
  C   C143      1.0  0.66710  0.90717  0.71418  1.0000
  C   C144      1.0  0.33290  0.90717  0.78582  1.0000
  H   H49       1.0  0.90019  0.58345  0.28542  1.0000
  H   H50       1.0  0.09981  0.58345  0.21458  1.0000
  H   H51       1.0  0.40019  0.08345  0.28542  1.0000
  H   H52       1.0  0.59981  0.08345  0.21458  1.0000
  H   H53       1.0  0.09981  0.41655  0.71458  1.0000
  H   H54       1.0  0.90019  0.41655  0.78542  1.0000
  H   H55       1.0  0.59981  0.91655  0.71458  1.0000
  H   H56       1.0  0.40019  0.91655  0.78542  1.0000
  C   C145      1.0  0.77790  0.50127  0.62458  1.0000
  C   C146      1.0  0.22210  0.50127  0.87542  1.0000
  C   C147      1.0  0.27790  0.00127  0.62458  1.0000
  C   C148      1.0  0.72210  0.00127  0.87542  1.0000
  C   C149      1.0  0.22210  0.49873  0.37542  1.0000
  C   C150      1.0  0.77790  0.49873  0.12458  1.0000
  C   C151      1.0  0.72210  0.99873  0.37542  1.0000
  C   C152      1.0  0.27790  0.99873  0.12458  1.0000
  C   C153      1.0  0.82290  0.58383  0.20391  1.0000
  C   C154      1.0  0.17710  0.58383  0.29609  1.0000
  C   C155      1.0  0.32290  0.08383  0.20391  1.0000
  C   C156      1.0  0.67710  0.08383  0.29609  1.0000
  C   C157      1.0  0.17710  0.41617  0.79609  1.0000
  C   C158      1.0  0.82290  0.41617  0.70391  1.0000
  C   C159      1.0  0.67710  0.91617  0.79609  1.0000
  C   C160      1.0  0.32290  0.91617  0.70391  1.0000
  C   C161      1.0  0.31040  0.52604  0.58073  1.0000
  C   C162      1.0  0.68960  0.52604  0.91927  1.0000
  C   C163      1.0  0.81040  0.02604  0.58073  1.0000
  C   C164      1.0  0.18960  0.02604  0.91927  1.0000
  C   C165      1.0  0.68960  0.47396  0.41927  1.0000
  C   C166      1.0  0.31040  0.47396  0.08073  1.0000
  C   C167      1.0  0.18960  0.97396  0.41927  1.0000
  C   C168      1.0  0.81040  0.97396  0.08073  1.0000
  H   H57       1.0  0.37126  0.53021  0.59663  1.0000
  H   H58       1.0  0.62874  0.53021  0.90337  1.0000
  H   H59       1.0  0.87126  0.03021  0.59663  1.0000
  H   H60       1.0  0.12874  0.03021  0.90337  1.0000
  H   H61       1.0  0.62874  0.46979  0.40337  1.0000
  H   H62       1.0  0.37126  0.46979  0.09663  1.0000
  H   H63       1.0  0.12874  0.96979  0.40337  1.0000
  H   H64       1.0  0.87126  0.96979  0.09663  1.0000
  C   C169      1.0  0.54700  0.70468  0.52461  1.0000
  C   C170      1.0  0.45300  0.70468  0.97539  1.0000
  C   C171      1.0  0.04700  0.20468  0.52461  1.0000
  C   C172      1.0  0.95300  0.20468  0.97539  1.0000
  C   C173      1.0  0.45300  0.29532  0.47539  1.0000
  C   C174      1.0  0.54700  0.29532  0.02461  1.0000
  C   C175      1.0  0.95300  0.79532  0.47539  1.0000
  C   C176      1.0  0.04700  0.79532  0.02461  1.0000
  H   H65       1.0  0.53111  0.69881  0.55517  1.0000
  H   H66       1.0  0.46889  0.69881  0.94483  1.0000
  H   H67       1.0  0.03111  0.19881  0.55517  1.0000
  H   H68       1.0  0.96889  0.19881  0.94483  1.0000
  H   H69       1.0  0.46889  0.30119  0.44483  1.0000
  H   H70       1.0  0.53111  0.30119  0.05517  1.0000
  H   H71       1.0  0.96889  0.80119  0.44483  1.0000
  H   H72       1.0  0.03111  0.80119  0.05517  1.0000
  H   H73       1.0  0.61683  0.71472  0.52336  1.0000
  H   H74       1.0  0.38317  0.71472  0.97664  1.0000
  H   H75       1.0  0.11683  0.21472  0.52336  1.0000
  H   H76       1.0  0.88317  0.21472  0.97664  1.0000
  H   H77       1.0  0.38317  0.28528  0.47664  1.0000
  H   H78       1.0  0.61683  0.28528  0.02336  1.0000
  H   H79       1.0  0.88317  0.78528  0.47664  1.0000
  H   H80       1.0  0.11683  0.78528  0.02336  1.0000
  C   C177      1.0  0.68520  0.61944  0.40527  1.0000
  C   C178      1.0  0.31480  0.61944  0.09473  1.0000
  C   C179      1.0  0.18520  0.11944  0.40527  1.0000
  C   C180      1.0  0.81480  0.11944  0.09473  1.0000
  C   C181      1.0  0.31480  0.38056  0.59473  1.0000
  C   C182      1.0  0.68520  0.38056  0.90527  1.0000
  C   C183      1.0  0.81480  0.88056  0.59473  1.0000
  C   C184      1.0  0.18520  0.88056  0.90527  1.0000
  H   H81       1.0  0.74740  0.63431  0.41000  1.0000
  H   H82       1.0  0.25260  0.63431  0.09000  1.0000
  H   H83       1.0  0.24740  0.13431  0.41000  1.0000
  H   H84       1.0  0.75260  0.13431  0.09000  1.0000
  H   H85       1.0  0.25260  0.36569  0.59000  1.0000
  H   H86       1.0  0.74740  0.36569  0.91000  1.0000
  H   H87       1.0  0.75260  0.86569  0.59000  1.0000
  H   H88       1.0  0.24740  0.86569  0.91000  1.0000
  H   H89       1.0  0.70328  0.59281  0.40647  1.0000
  H   H90       1.0  0.29672  0.59281  0.09353  1.0000
  H   H91       1.0  0.20328  0.09281  0.40647  1.0000
  H   H92       1.0  0.79672  0.09281  0.09353  1.0000
  H   H93       1.0  0.29672  0.40719  0.59353  1.0000
  H   H94       1.0  0.70328  0.40719  0.90647  1.0000
  H   H95       1.0  0.79672  0.90719  0.59353  1.0000
  H   H96       1.0  0.20328  0.90719  0.90647  1.0000
  C   C185      1.0  0.63440  0.62111  0.28699  1.0000
  C   C186      1.0  0.36560  0.62111  0.21301  1.0000
  C   C187      1.0  0.13440  0.12111  0.28699  1.0000
  C   C188      1.0  0.86560  0.12111  0.21301  1.0000
  C   C189      1.0  0.36560  0.37889  0.71301  1.0000
  C   C190      1.0  0.63440  0.37889  0.78699  1.0000
  C   C191      1.0  0.86560  0.87889  0.71301  1.0000
  C   C192      1.0  0.13440  0.87889  0.78699  1.0000
  H   H97       1.0  0.56731  0.63062  0.28745  1.0000
  H   H98       1.0  0.43269  0.63062  0.21255  1.0000
  H   H99       1.0  0.06731  0.13062  0.28745  1.0000
  H   H100      1.0  0.93269  0.13062  0.21255  1.0000
  H   H101      1.0  0.43269  0.36938  0.71255  1.0000
  H   H102      1.0  0.56731  0.36938  0.78745  1.0000
  H   H103      1.0  0.93269  0.86938  0.71255  1.0000
  H   H104      1.0  0.06731  0.86938  0.78745  1.0000
  C   C193      1.0  0.46580  0.76579  0.52917  1.0000
  C   C194      1.0  0.53420  0.76579  0.97083  1.0000
  C   C195      1.0  0.96580  0.26579  0.52917  1.0000
  C   C196      1.0  0.03420  0.26579  0.97083  1.0000
  C   C197      1.0  0.53420  0.23421  0.47083  1.0000
  C   C198      1.0  0.46580  0.23421  0.02917  1.0000
  C   C199      1.0  0.03420  0.73421  0.47083  1.0000
  C   C200      1.0  0.96580  0.73421  0.02917  1.0000
  C   C201      1.0  0.20730  0.53488  0.51494  1.0000
  C   C202      1.0  0.79270  0.53488  0.98506  1.0000
  C   C203      1.0  0.70730  0.03488  0.51494  1.0000
  C   C204      1.0  0.29270  0.03488  0.98506  1.0000
  C   C205      1.0  0.79270  0.46512  0.48506  1.0000
  C   C206      1.0  0.20730  0.46512  0.01494  1.0000
  C   C207      1.0  0.29270  0.96512  0.48506  1.0000
  C   C208      1.0  0.70730  0.96512  0.01494  1.0000
  H   H105      1.0  0.19811  0.54521  0.48688  1.0000
  H   H106      1.0  0.80189  0.54521  0.01312  1.0000
  H   H107      1.0  0.69811  0.04521  0.48688  1.0000
  H   H108      1.0  0.30189  0.04521  0.01312  1.0000
  H   H109      1.0  0.80189  0.45479  0.51312  1.0000
  H   H110      1.0  0.19811  0.45479  0.98688  1.0000
  H   H111      1.0  0.30189  0.95479  0.51312  1.0000
  H   H112      1.0  0.69811  0.95479  0.98688  1.0000
  C   C209      1.0  0.43700  0.83620  0.56845  1.0000
  C   C210      1.0  0.56300  0.83620  0.93155  1.0000
  C   C211      1.0  0.93700  0.33620  0.56845  1.0000
  C   C212      1.0  0.06300  0.33620  0.93155  1.0000
  C   C213      1.0  0.56300  0.16380  0.43155  1.0000
  C   C214      1.0  0.43700  0.16380  0.06845  1.0000
  C   C215      1.0  0.06300  0.66380  0.43155  1.0000
  C   C216      1.0  0.93700  0.66380  0.06845  1.0000
  C   C217      1.0  0.71650  0.53611  0.61928  1.0000
  C   C218      1.0  0.28350  0.53611  0.88072  1.0000
  C   C219      1.0  0.21650  0.03611  0.61928  1.0000
  C   C220      1.0  0.78350  0.03611  0.88072  1.0000
  C   C221      1.0  0.28350  0.46389  0.38072  1.0000
  C   C222      1.0  0.71650  0.46389  0.11928  1.0000
  C   C223      1.0  0.78350  0.96389  0.38072  1.0000
  C   C224      1.0  0.21650  0.96389  0.11928  1.0000
  C   C225      1.0  0.65380  0.53894  0.58186  1.0000
  C   C226      1.0  0.34620  0.53894  0.91814  1.0000
  C   C227      1.0  0.15380  0.03894  0.58186  1.0000
  C   C228      1.0  0.84620  0.03894  0.91814  1.0000
  C   C229      1.0  0.34620  0.46106  0.41814  1.0000
  C   C230      1.0  0.65380  0.46106  0.08186  1.0000
  C   C231      1.0  0.84620  0.96106  0.41814  1.0000
  C   C232      1.0  0.15380  0.96106  0.08186  1.0000
  H   H113      1.0  0.64983  0.51889  0.56197  1.0000
  H   H114      1.0  0.35017  0.51889  0.93803  1.0000
  H   H115      1.0  0.14983  0.01889  0.56197  1.0000
  H   H116      1.0  0.85017  0.01889  0.93803  1.0000
  H   H117      1.0  0.35017  0.48111  0.43803  1.0000
  H   H118      1.0  0.64983  0.48111  0.06197  1.0000
  H   H119      1.0  0.85017  0.98111  0.43803  1.0000
  H   H120      1.0  0.14983  0.98111  0.06197  1.0000
  C   C233      1.0  0.59700  0.57173  0.57410  1.0000
  C   C234      1.0  0.40300  0.57173  0.92590  1.0000
  C   C235      1.0  0.09700  0.07173  0.57410  1.0000
  C   C236      1.0  0.90300  0.07173  0.92590  1.0000
  C   C237      1.0  0.40300  0.42827  0.42590  1.0000
  C   C238      1.0  0.59700  0.42827  0.07410  1.0000
  C   C239      1.0  0.90300  0.92827  0.42590  1.0000
  C   C240      1.0  0.09700  0.92827  0.07410  1.0000
  H   H121      1.0  0.55509  0.57363  0.54910  1.0000
  H   H122      1.0  0.44491  0.57363  0.95090  1.0000
  H   H123      1.0  0.05509  0.07363  0.54910  1.0000
  H   H124      1.0  0.94491  0.07363  0.95090  1.0000
  H   H125      1.0  0.44491  0.42637  0.45090  1.0000
  H   H126      1.0  0.55509  0.42637  0.04910  1.0000
  H   H127      1.0  0.94491  0.92637  0.45090  1.0000
  H   H128      1.0  0.05509  0.92637  0.04910  1.0000
  C   C241      1.0  0.60300  0.60170  0.60390  1.0000
  C   C242      1.0  0.39700  0.60170  0.89610  1.0000
  C   C243      1.0  0.10300  0.10170  0.60390  1.0000
  C   C244      1.0  0.89700  0.10170  0.89610  1.0000
  C   C245      1.0  0.39700  0.39830  0.39610  1.0000
  C   C246      1.0  0.60300  0.39830  0.10390  1.0000
  C   C247      1.0  0.89700  0.89830  0.39610  1.0000
  C   C248      1.0  0.10300  0.89830  0.10390  1.0000
  H   H129      1.0  0.56500  0.62364  0.59870  1.0000
  H   H130      1.0  0.43500  0.62364  0.90130  1.0000
  H   H131      1.0  0.06500  0.12364  0.59870  1.0000
  H   H132      1.0  0.93500  0.12364  0.90130  1.0000
  H   H133      1.0  0.43500  0.37636  0.40130  1.0000
  H   H134      1.0  0.56500  0.37636  0.09870  1.0000
  H   H135      1.0  0.93500  0.87636  0.40130  1.0000
  H   H136      1.0  0.06500  0.87636  0.09870  1.0000
  C   C249      1.0  0.66570  0.59887  0.64130  1.0000
  C   C250      1.0  0.33430  0.59887  0.85870  1.0000
  C   C251      1.0  0.16570  0.09887  0.64130  1.0000
  C   C252      1.0  0.83430  0.09887  0.85870  1.0000
  C   C253      1.0  0.33430  0.40113  0.35870  1.0000
  C   C254      1.0  0.66570  0.40113  0.14130  1.0000
  C   C255      1.0  0.83430  0.90113  0.35870  1.0000
  C   C256      1.0  0.16570  0.90113  0.14130  1.0000
  C   C257      1.0  0.72240  0.56607  0.64900  1.0000
  C   C258      1.0  0.27760  0.56607  0.85100  1.0000
  C   C259      1.0  0.22240  0.06607  0.64900  1.0000
  C   C260      1.0  0.77760  0.06607  0.85100  1.0000
  C   C261      1.0  0.27760  0.43393  0.35100  1.0000
  C   C262      1.0  0.72240  0.43393  0.14900  1.0000
  C   C263      1.0  0.77760  0.93393  0.35100  1.0000
  C   C264      1.0  0.22240  0.93393  0.14900  1.0000
  C   C265      1.0  0.53020  0.77685  0.56330  1.0000
  C   C266      1.0  0.46980  0.77685  0.93670  1.0000
  C   C267      1.0  0.03020  0.27685  0.56330  1.0000
  C   C268      1.0  0.96980  0.27685  0.93670  1.0000
  C   C269      1.0  0.46980  0.22315  0.43670  1.0000
  C   C270      1.0  0.53020  0.22315  0.06330  1.0000
  C   C271      1.0  0.96980  0.72315  0.43670  1.0000
  C   C272      1.0  0.03020  0.72315  0.06330  1.0000
  H   H137      1.0  0.58298  0.76112  0.57343  1.0000
  H   H138      1.0  0.41702  0.76112  0.92657  1.0000
  H   H139      1.0  0.08298  0.26112  0.57343  1.0000
  H   H140      1.0  0.91702  0.26112  0.92657  1.0000
  H   H141      1.0  0.41702  0.23888  0.42657  1.0000
  H   H142      1.0  0.58298  0.23888  0.07343  1.0000
  H   H143      1.0  0.91702  0.73888  0.42657  1.0000
  H   H144      1.0  0.08298  0.73888  0.07343  1.0000
  C   C273      1.0  0.51370  0.81309  0.58263  1.0000
  C   C274      1.0  0.48630  0.81309  0.91737  1.0000
  C   C275      1.0  0.01370  0.31309  0.58263  1.0000
  C   C276      1.0  0.98630  0.31309  0.91737  1.0000
  C   C277      1.0  0.48630  0.18691  0.41737  1.0000
  C   C278      1.0  0.51370  0.18691  0.08263  1.0000
  C   C279      1.0  0.98630  0.68691  0.41737  1.0000
  C   C280      1.0  0.01370  0.68691  0.08263  1.0000
  H   H145      1.0  0.55671  0.82104  0.60561  1.0000
  H   H146      1.0  0.44329  0.82104  0.89439  1.0000
  H   H147      1.0  0.05671  0.32104  0.60561  1.0000
  H   H148      1.0  0.94329  0.32104  0.89439  1.0000
  H   H149      1.0  0.44329  0.17896  0.39439  1.0000
  H   H150      1.0  0.55671  0.17896  0.10561  1.0000
  H   H151      1.0  0.94329  0.67896  0.39439  1.0000
  H   H152      1.0  0.05671  0.67896  0.10561  1.0000
  C   C281      1.0  0.37720  0.65330  0.53905  1.0000
  C   C282      1.0  0.62280  0.65330  0.96095  1.0000
  C   C283      1.0  0.87720  0.15330  0.53905  1.0000
  C   C284      1.0  0.12280  0.15330  0.96095  1.0000
  C   C285      1.0  0.62280  0.34670  0.46095  1.0000
  C   C286      1.0  0.37720  0.34670  0.03905  1.0000
  C   C287      1.0  0.12280  0.84670  0.46095  1.0000
  C   C288      1.0  0.87720  0.84670  0.03905  1.0000
  H   H153      1.0  0.34112  0.67619  0.53150  1.0000
  H   H154      1.0  0.65888  0.67619  0.96850  1.0000
  H   H155      1.0  0.84112  0.17619  0.53150  1.0000
  H   H156      1.0  0.15888  0.17619  0.96850  1.0000
  H   H157      1.0  0.65888  0.32381  0.46850  1.0000
  H   H158      1.0  0.34112  0.32381  0.03150  1.0000
  H   H159      1.0  0.15888  0.82381  0.46850  1.0000
  H   H160      1.0  0.84112  0.82381  0.03150  1.0000
  H   H161      1.0  0.41128  0.65638  0.56715  1.0000
  H   H162      1.0  0.58872  0.65638  0.93285  1.0000
  H   H163      1.0  0.91128  0.15638  0.56715  1.0000
  H   H164      1.0  0.08872  0.15638  0.93285  1.0000
  H   H165      1.0  0.58872  0.34362  0.43285  1.0000
  H   H166      1.0  0.41128  0.34362  0.06715  1.0000
  H   H167      1.0  0.08872  0.84362  0.43285  1.0000
  H   H168      1.0  0.91128  0.84362  0.06715  1.0000
  H   H169      1.0  0.32866  0.63278  0.54077  1.0000
  H   H170      1.0  0.67134  0.63278  0.95923  1.0000
  H   H171      1.0  0.82866  0.13278  0.54077  1.0000
  H   H172      1.0  0.17134  0.13278  0.95923  1.0000
  H   H173      1.0  0.67134  0.36722  0.45923  1.0000
  H   H174      1.0  0.32866  0.36722  0.04077  1.0000
  H   H175      1.0  0.17134  0.86722  0.45923  1.0000
  H   H176      1.0  0.82866  0.86722  0.04077  1.0000
  F   F1        1.0  0.77650  0.56440  0.68447  1.0000
  F   F2        1.0  0.22350  0.56440  0.81553  1.0000
  F   F3        1.0  0.27650  0.06440  0.68447  1.0000
  F   F4        1.0  0.72350  0.06440  0.81553  1.0000
  F   F5        1.0  0.22350  0.43560  0.31553  1.0000
  F   F6        1.0  0.77650  0.43560  0.18447  1.0000
  F   F7        1.0  0.72350  0.93560  0.31553  1.0000
  F   F8        1.0  0.27650  0.93560  0.18447  1.0000
  C   C289      1.0  0.69240  0.69141  0.45250  1.0000
  C   C290      1.0  0.30760  0.69141  0.04750  1.0000
  C   C291      1.0  0.19240  0.19141  0.45250  1.0000
  C   C292      1.0  0.80760  0.19141  0.04750  1.0000
  C   C293      1.0  0.30760  0.30859  0.54750  1.0000
  C   C294      1.0  0.69240  0.30859  0.95250  1.0000
  C   C295      1.0  0.80760  0.80859  0.54750  1.0000
  C   C296      1.0  0.19240  0.80859  0.95250  1.0000
  H   H177      1.0  0.76022  0.68179  0.45925  1.0000
  H   H178      1.0  0.23978  0.68179  0.04075  1.0000
  H   H179      1.0  0.26022  0.18179  0.45925  1.0000
  H   H180      1.0  0.73978  0.18179  0.04075  1.0000
  H   H181      1.0  0.23978  0.31821  0.54075  1.0000
  H   H182      1.0  0.76022  0.31821  0.95925  1.0000
  H   H183      1.0  0.73978  0.81821  0.54075  1.0000
  H   H184      1.0  0.26022  0.81821  0.95925  1.0000
  H   H185      1.0  0.68051  0.71408  0.46924  1.0000
  H   H186      1.0  0.31949  0.71408  0.03076  1.0000
  H   H187      1.0  0.18051  0.21408  0.46924  1.0000
  H   H188      1.0  0.81949  0.21408  0.03076  1.0000
  H   H189      1.0  0.31949  0.28592  0.53076  1.0000
  H   H190      1.0  0.68051  0.28592  0.96924  1.0000
  H   H191      1.0  0.81949  0.78592  0.53076  1.0000
  H   H192      1.0  0.18051  0.78592  0.96924  1.0000
  H   H193      1.0  0.68748  0.69697  0.42149  1.0000
  H   H194      1.0  0.31252  0.69697  0.07851  1.0000
  H   H195      1.0  0.18748  0.19697  0.42149  1.0000
  H   H196      1.0  0.81252  0.19697  0.07851  1.0000
  H   H197      1.0  0.31252  0.30303  0.57851  1.0000
  H   H198      1.0  0.68748  0.30303  0.92149  1.0000
  H   H199      1.0  0.81252  0.80303  0.57851  1.0000
  H   H200      1.0  0.18748  0.80303  0.92149  1.0000
  C   C297      1.0  0.37240  0.82366  0.53384  1.0000
  C   C298      1.0  0.62760  0.82366  0.96616  1.0000
  C   C299      1.0  0.87240  0.32366  0.53384  1.0000
  C   C300      1.0  0.12760  0.32366  0.96616  1.0000
  C   C301      1.0  0.62760  0.17634  0.46616  1.0000
  C   C302      1.0  0.37240  0.17634  0.03384  1.0000
  C   C303      1.0  0.12760  0.67634  0.46616  1.0000
  C   C304      1.0  0.87240  0.67634  0.03384  1.0000
  H   H201      1.0  0.31948  0.83922  0.52343  1.0000
  H   H202      1.0  0.68052  0.83922  0.97657  1.0000
  H   H203      1.0  0.81948  0.33922  0.52343  1.0000
  H   H204      1.0  0.18052  0.33922  0.97657  1.0000
  H   H205      1.0  0.68052  0.16078  0.47657  1.0000
  H   H206      1.0  0.31948  0.16078  0.02343  1.0000
  H   H207      1.0  0.18052  0.66078  0.47657  1.0000
  H   H208      1.0  0.81948  0.66078  0.02343  1.0000
  C   C305      1.0  0.51750  0.56605  0.42090  1.0000
  C   C306      1.0  0.48250  0.56605  0.07910  1.0000
  C   C307      1.0  0.01750  0.06605  0.42090  1.0000
  C   C308      1.0  0.98250  0.06605  0.07910  1.0000
  C   C309      1.0  0.48250  0.43395  0.57910  1.0000
  C   C310      1.0  0.51750  0.43395  0.92090  1.0000
  C   C311      1.0  0.98250  0.93395  0.57910  1.0000
  C   C312      1.0  0.01750  0.93395  0.92090  1.0000
  H   H209      1.0  0.53486  0.54527  0.43999  1.0000
  H   H210      1.0  0.46514  0.54527  0.06001  1.0000
  H   H211      1.0  0.03486  0.04527  0.43999  1.0000
  H   H212      1.0  0.96514  0.04527  0.06001  1.0000
  H   H213      1.0  0.46514  0.45473  0.56001  1.0000
  H   H214      1.0  0.53486  0.45473  0.93999  1.0000
  H   H215      1.0  0.96514  0.95473  0.56001  1.0000
  H   H216      1.0  0.03486  0.95473  0.93999  1.0000
  H   H217      1.0  0.56512  0.56686  0.39665  1.0000
  H   H218      1.0  0.43488  0.56686  0.10335  1.0000
  H   H219      1.0  0.06512  0.06686  0.39665  1.0000
  H   H220      1.0  0.93488  0.06686  0.10335  1.0000
  H   H221      1.0  0.43488  0.43314  0.60335  1.0000
  H   H222      1.0  0.56512  0.43314  0.89665  1.0000
  H   H223      1.0  0.93488  0.93314  0.60335  1.0000
  H   H224      1.0  0.06512  0.93314  0.89665  1.0000
  H   H225      1.0  0.44837  0.56275  0.40961  1.0000
  H   H226      1.0  0.55163  0.56275  0.09039  1.0000
  H   H227      1.0  0.94837  0.06275  0.40961  1.0000
  H   H228      1.0  0.05163  0.06275  0.09039  1.0000
  H   H229      1.0  0.55163  0.43725  0.59039  1.0000
  H   H230      1.0  0.44837  0.43725  0.90961  1.0000
  H   H231      1.0  0.05163  0.93725  0.59039  1.0000
  H   H232      1.0  0.94837  0.93725  0.90961  1.0000
  C   C313      1.0  0.38700  0.78814  0.51503  1.0000
  C   C314      1.0  0.61300  0.78814  0.98497  1.0000
  C   C315      1.0  0.88700  0.28814  0.51503  1.0000
  C   C316      1.0  0.11300  0.28814  0.98497  1.0000
  C   C317      1.0  0.61300  0.21186  0.48497  1.0000
  C   C318      1.0  0.38700  0.21186  0.01503  1.0000
  C   C319      1.0  0.11300  0.71186  0.48497  1.0000
  C   C320      1.0  0.88700  0.71186  0.01503  1.0000
  H   H233      1.0  0.34265  0.77973  0.49274  1.0000
  H   H234      1.0  0.65735  0.77973  0.00726  1.0000
  H   H235      1.0  0.84265  0.27973  0.49274  1.0000
  H   H236      1.0  0.15735  0.27973  0.00726  1.0000
  H   H237      1.0  0.65735  0.22027  0.50726  1.0000
  H   H238      1.0  0.34265  0.22027  0.99274  1.0000
  H   H239      1.0  0.15735  0.72027  0.50726  1.0000
  H   H240      1.0  0.84265  0.72027  0.99274  1.0000
  F   F9        1.0  0.66550  0.62540  0.66860  1.0000
  F   F10       1.0  0.33450  0.62540  0.83140  1.0000
  F   F11       1.0  0.16550  0.12540  0.66860  1.0000
  F   F12       1.0  0.83450  0.12540  0.83140  1.0000
  F   F13       1.0  0.33450  0.37460  0.33140  1.0000
  F   F14       1.0  0.66550  0.37460  0.16860  1.0000
  F   F15       1.0  0.83450  0.87460  0.33140  1.0000
  F   F16       1.0  0.16550  0.87460  0.16860  1.0000
