data_image0
_chemical_formula_structural       Co2O16N4C28H12
_chemical_formula_sum              "Co2 O16 N4 C28 H12"
_cell_length_a       9.7424
_cell_length_b       8.9653
_cell_length_c       18.229
_cell_angle_alpha    90
_cell_angle_beta     99.41
_cell_angle_gamma    90

_space_group_name_H-M_alt    "P 1"
_space_group_IT_number       1

loop_
  _space_group_symop_operation_xyz
  'x, y, z'

loop_
  _atom_site_type_symbol
  _atom_site_label
  _atom_site_symmetry_multiplicity
  _atom_site_fract_x
  _atom_site_fract_y
  _atom_site_fract_z
  _atom_site_occupancy
  Co  Co1       1.0  0.11438  0.12233  0.03288  1.0000
  Co  Co2       1.0  0.11438  0.87767  0.53288  1.0000
  O   O1        1.0  0.21300  0.28120  0.97048  1.0000
  O   O2        1.0  0.21300  0.71880  0.47048  1.0000
  O   O3        1.0  0.23890  0.92790  0.24100  1.0000
  O   O4        1.0  0.23890  0.07210  0.74100  1.0000
  O   O5        1.0  0.81810  0.40740  0.09504  1.0000
  O   O6        1.0  0.81810  0.59260  0.59504  1.0000
  O   O7        1.0  0.41090  0.40620  0.96846  1.0000
  O   O8        1.0  0.41090  0.59380  0.46846  1.0000
  O   O9        1.0  0.99290  0.92460  0.82616  1.0000
  O   O10       1.0  0.99290  0.07540  0.32616  1.0000
  O   O11       1.0  0.01360  0.27870  0.09589  1.0000
  O   O12       1.0  0.01360  0.72130  0.59589  1.0000
  O   O13       1.0  0.11140  0.96930  0.94015  1.0000
  O   O14       1.0  0.11140  0.03070  0.44015  1.0000
  O   O15       1.0  0.11930  0.96830  0.12586  1.0000
  O   O16       1.0  0.11930  0.03170  0.62586  1.0000
  N   N1        1.0  0.92510  0.14920  0.97113  1.0000
  N   N2        1.0  0.92510  0.85080  0.47113  1.0000
  N   N3        1.0  0.30910  0.15160  0.09398  1.0000
  N   N4        1.0  0.30910  0.84840  0.59398  1.0000
  C   C1        1.0  0.89350  0.32010  0.06920  1.0000
  C   C2        1.0  0.89350  0.67990  0.56920  1.0000
  C   C3        1.0  0.33930  0.31670  0.99870  1.0000
  C   C4        1.0  0.33930  0.68330  0.49870  1.0000
  C   C5        1.0  0.22600  0.98380  0.17810  1.0000
  C   C6        1.0  0.22600  0.01620  0.67810  1.0000
  C   C7        1.0  0.88940  0.08280  0.90750  1.0000
  C   C8        1.0  0.88940  0.91720  0.40750  1.0000
  C   C9        1.0  0.33680  0.07800  0.16021  1.0000
  C   C10       1.0  0.33680  0.92200  0.66021  1.0000
  C   C11       1.0  0.01040  0.98070  0.88930  1.0000
  C   C12       1.0  0.01040  0.01930  0.38930  1.0000
  C   C13       1.0  0.83110  0.24990  0.99360  1.0000
  C   C14       1.0  0.83110  0.75010  0.49360  1.0000
  C   C15       1.0  0.39090  0.24440  0.07110  1.0000
  C   C16       1.0  0.39090  0.75560  0.57110  1.0000
  C   C17       1.0  0.56010  0.20170  0.17810  1.0000
  C   C18       1.0  0.56010  0.79830  0.67810  1.0000
  C   C19       1.0  0.76470  0.10070  0.86440  1.0000
  C   C20       1.0  0.76470  0.89930  0.36440  1.0000
  C   C21       1.0  0.70720  0.27800  0.95340  1.0000
  C   C22       1.0  0.70720  0.72200  0.45340  1.0000
  C   C23       1.0  0.52450  0.27310  0.11410  1.0000
  C   C24       1.0  0.52450  0.72690  0.61410  1.0000
  C   C25       1.0  0.67040  0.19710  0.88440  1.0000
  C   C26       1.0  0.67040  0.80290  0.38440  1.0000
  C   C27       1.0  0.46680  0.10300  0.20650  1.0000
  C   C28       1.0  0.46680  0.89700  0.70650  1.0000
  H   H1        1.0  0.65800  0.37500  0.96320  1.0000
  H   H2        1.0  0.65800  0.62500  0.46320  1.0000
  H   H3        1.0  0.59200  0.32900  0.09370  1.0000
  H   H4        1.0  0.59200  0.67100  0.59370  1.0000
  H   H5        1.0  0.65400  0.20200  0.20670  1.0000
  H   H6        1.0  0.65400  0.79800  0.70670  1.0000
  H   H7        1.0  0.47700  0.07400  0.25300  1.0000
  H   H8        1.0  0.47700  0.92600  0.75300  1.0000
  H   H9        1.0  0.58900  0.24700  0.84200  1.0000
  H   H10       1.0  0.58900  0.75300  0.34200  1.0000
  H   H11       1.0  0.74200  0.03400  0.81990  1.0000
  H   H12       1.0  0.74200  0.96600  0.31990  1.0000
