data_image0
_chemical_formula_structural       Fe12C8H8C8H8C4H4C4H4C4H4C4H4O68
_chemical_formula_sum              "Fe12 C32 H32 O68"
_cell_length_a       9.0422
_cell_length_b       20.8672
_cell_length_c       13.5037
_cell_angle_alpha    90
_cell_angle_beta     90
_cell_angle_gamma    90

_space_group_name_H-M_alt    "P 1"
_space_group_IT_number       1

loop_
  _space_group_symop_operation_xyz
  'x, y, z'

loop_
  _atom_site_type_symbol
  _atom_site_label
  _atom_site_symmetry_multiplicity
  _atom_site_fract_x
  _atom_site_fract_y
  _atom_site_fract_z
  _atom_site_occupancy
  Fe  Fe1       1.0  0.68255  0.47465  0.35537  1.0000
  Fe  Fe2       1.0  0.31745  0.52535  0.85537  1.0000
  Fe  Fe3       1.0  0.68255  0.52535  0.85537  1.0000
  Fe  Fe4       1.0  0.31745  0.47465  0.35537  1.0000
  Fe  Fe5       1.0  0.18255  0.97465  0.35537  1.0000
  Fe  Fe6       1.0  0.81745  0.02535  0.85537  1.0000
  Fe  Fe7       1.0  0.18255  0.02535  0.85537  1.0000
  Fe  Fe8       1.0  0.81745  0.97465  0.35537  1.0000
  Fe  Fe9       1.0  0.50000  0.36484  0.48583  1.0000
  Fe  Fe10      1.0  0.50000  0.63516  0.98583  1.0000
  Fe  Fe11      1.0  0.00000  0.86484  0.48583  1.0000
  Fe  Fe12      1.0  0.00000  0.13516  0.98583  1.0000
  C   C1        1.0  0.75590  0.33320  0.35360  1.0000
  C   C2        1.0  0.24410  0.66680  0.85360  1.0000
  C   C3        1.0  0.75590  0.66680  0.85360  1.0000
  C   C4        1.0  0.24410  0.33320  0.35360  1.0000
  C   C5        1.0  0.25590  0.83320  0.35360  1.0000
  C   C6        1.0  0.74410  0.16680  0.85360  1.0000
  C   C7        1.0  0.25590  0.16680  0.85360  1.0000
  C   C8        1.0  0.74410  0.83320  0.35360  1.0000
  H   H1        1.0  0.81840  0.30100  0.32660  1.0000
  H   H2        1.0  0.18160  0.69900  0.82660  1.0000
  H   H3        1.0  0.81840  0.69900  0.82660  1.0000
  H   H4        1.0  0.18160  0.30100  0.32660  1.0000
  H   H5        1.0  0.31840  0.80100  0.32660  1.0000
  H   H6        1.0  0.68160  0.19900  0.82660  1.0000
  H   H7        1.0  0.31840  0.19900  0.82660  1.0000
  H   H8        1.0  0.68160  0.80100  0.32660  1.0000
  C   C9        1.0  0.75350  0.44410  0.56720  1.0000
  C   C10       1.0  0.24650  0.55590  0.06720  1.0000
  C   C11       1.0  0.75350  0.55590  0.06720  1.0000
  C   C12       1.0  0.24650  0.44410  0.56720  1.0000
  C   C13       1.0  0.25350  0.94410  0.56720  1.0000
  C   C14       1.0  0.74650  0.05590  0.06720  1.0000
  C   C15       1.0  0.25350  0.05590  0.06720  1.0000
  C   C16       1.0  0.74650  0.94410  0.56720  1.0000
  H   H9        1.0  0.81430  0.45240  0.62320  1.0000
  H   H10       1.0  0.18570  0.54760  0.12320  1.0000
  H   H11       1.0  0.81430  0.54760  0.12320  1.0000
  H   H12       1.0  0.18570  0.45240  0.62320  1.0000
  H   H13       1.0  0.31430  0.95240  0.62320  1.0000
  H   H14       1.0  0.68570  0.04760  0.12320  1.0000
  H   H15       1.0  0.31430  0.04760  0.12320  1.0000
  H   H16       1.0  0.68570  0.95240  0.62320  1.0000
  C   C17       1.0  0.00000  0.49400  0.33620  1.0000
  C   C18       1.0  0.00000  0.50600  0.83620  1.0000
  C   C19       1.0  0.50000  0.99400  0.33620  1.0000
  C   C20       1.0  0.50000  0.00600  0.83620  1.0000
  H   H17       1.0  0.00000  0.46220  0.38650  1.0000
  H   H18       1.0  0.00000  0.53780  0.88650  1.0000
  H   H19       1.0  0.50000  0.96220  0.38650  1.0000
  H   H20       1.0  0.50000  0.03780  0.88650  1.0000
  C   C21       1.0  0.50000  0.46840  0.17160  1.0000
  C   C22       1.0  0.50000  0.53160  0.67160  1.0000
  C   C23       1.0  0.00000  0.96840  0.17160  1.0000
  C   C24       1.0  0.00000  0.03160  0.67160  1.0000
  H   H21       1.0  0.50000  0.46430  0.10160  1.0000
  H   H22       1.0  0.50000  0.53570  0.60160  1.0000
  H   H23       1.0  0.00000  0.96430  0.10160  1.0000
  H   H24       1.0  0.00000  0.03570  0.60160  1.0000
  C   C25       1.0  0.50000  0.59240  0.38040  1.0000
  C   C26       1.0  0.50000  0.40760  0.88040  1.0000
  C   C27       1.0  0.00000  0.09240  0.38040  1.0000
  C   C28       1.0  0.00000  0.90760  0.88040  1.0000
  H   H25       1.0  0.50000  0.63690  0.39550  1.0000
  H   H26       1.0  0.50000  0.36310  0.89550  1.0000
  H   H27       1.0  0.00000  0.13690  0.39550  1.0000
  H   H28       1.0  0.00000  0.86310  0.89550  1.0000
  C   C29       1.0  0.50000  0.28800  0.66910  1.0000
  C   C30       1.0  0.50000  0.71200  0.16910  1.0000
  C   C31       1.0  0.00000  0.78800  0.66910  1.0000
  C   C32       1.0  0.00000  0.21200  0.16910  1.0000
  H   H29       1.0  0.50000  0.32790  0.70280  1.0000
  H   H30       1.0  0.50000  0.67210  0.20280  1.0000
  H   H31       1.0  0.00000  0.82790  0.70280  1.0000
  H   H32       1.0  0.00000  0.17210  0.20280  1.0000
  O   O1        1.0  0.78650  0.38990  0.33200  1.0000
  O   O2        1.0  0.21350  0.61010  0.83200  1.0000
  O   O3        1.0  0.78650  0.61010  0.83200  1.0000
  O   O4        1.0  0.21350  0.38990  0.33200  1.0000
  O   O5        1.0  0.28650  0.88990  0.33200  1.0000
  O   O6        1.0  0.71350  0.11010  0.83200  1.0000
  O   O7        1.0  0.28650  0.11010  0.83200  1.0000
  O   O8        1.0  0.71350  0.88990  0.33200  1.0000
  O   O9        1.0  0.65100  0.31425  0.40720  1.0000
  O   O10       1.0  0.34900  0.68575  0.90720  1.0000
  O   O11       1.0  0.65100  0.68575  0.90720  1.0000
  O   O12       1.0  0.34900  0.31425  0.40720  1.0000
  O   O13       1.0  0.15100  0.81425  0.40720  1.0000
  O   O14       1.0  0.84900  0.18575  0.90720  1.0000
  O   O15       1.0  0.15100  0.18575  0.90720  1.0000
  O   O16       1.0  0.84900  0.81425  0.40720  1.0000
  O   O17       1.0  0.77450  0.47803  0.49250  1.0000
  O   O18       1.0  0.22550  0.52197  0.99250  1.0000
  O   O19       1.0  0.77450  0.52197  0.99250  1.0000
  O   O20       1.0  0.22550  0.47803  0.49250  1.0000
  O   O21       1.0  0.27450  0.97803  0.49250  1.0000
  O   O22       1.0  0.72550  0.02197  0.99250  1.0000
  O   O23       1.0  0.27450  0.02197  0.99250  1.0000
  O   O24       1.0  0.72550  0.97803  0.49250  1.0000
  O   O25       1.0  0.65940  0.39993  0.57570  1.0000
  O   O26       1.0  0.34060  0.60007  0.07570  1.0000
  O   O27       1.0  0.65940  0.60007  0.07570  1.0000
  O   O28       1.0  0.34060  0.39993  0.57570  1.0000
  O   O29       1.0  0.15940  0.89993  0.57570  1.0000
  O   O30       1.0  0.84060  0.10007  0.07570  1.0000
  O   O31       1.0  0.15940  0.10007  0.07570  1.0000
  O   O32       1.0  0.84060  0.89993  0.57570  1.0000
  O   O33       1.0  0.87640  0.51400  0.30470  1.0000
  O   O34       1.0  0.12360  0.48600  0.80470  1.0000
  O   O35       1.0  0.87640  0.48600  0.80470  1.0000
  O   O36       1.0  0.12360  0.51400  0.30470  1.0000
  O   O37       1.0  0.37640  0.01400  0.30470  1.0000
  O   O38       1.0  0.62360  0.98600  0.80470  1.0000
  O   O39       1.0  0.37640  0.98600  0.80470  1.0000
  O   O40       1.0  0.62360  0.01400  0.30470  1.0000
  O   O41       1.0  0.62400  0.47072  0.21200  1.0000
  O   O42       1.0  0.37600  0.52928  0.71200  1.0000
  O   O43       1.0  0.62400  0.52928  0.71200  1.0000
  O   O44       1.0  0.37600  0.47072  0.21200  1.0000
  O   O45       1.0  0.12400  0.97072  0.21200  1.0000
  O   O46       1.0  0.87600  0.02928  0.71200  1.0000
  O   O47       1.0  0.12400  0.02928  0.71200  1.0000
  O   O48       1.0  0.87600  0.97072  0.21200  1.0000
  O   O49       1.0  0.62360  0.56681  0.37170  1.0000
  O   O50       1.0  0.37640  0.43319  0.87170  1.0000
  O   O51       1.0  0.62360  0.43319  0.87170  1.0000
  O   O52       1.0  0.37640  0.56681  0.37170  1.0000
  O   O53       1.0  0.12360  0.06681  0.37170  1.0000
  O   O54       1.0  0.87640  0.93319  0.87170  1.0000
  O   O55       1.0  0.12360  0.93319  0.87170  1.0000
  O   O56       1.0  0.87640  0.06681  0.37170  1.0000
  O   O57       1.0  0.50000  0.28890  0.57640  1.0000
  O   O58       1.0  0.50000  0.71110  0.07640  1.0000
  O   O59       1.0  0.00000  0.78890  0.57640  1.0000
  O   O60       1.0  0.00000  0.21110  0.07640  1.0000
  O   O61       1.0  0.50000  0.23900  0.71930  1.0000
  O   O62       1.0  0.50000  0.76100  0.21930  1.0000
  O   O63       1.0  0.00000  0.73900  0.71930  1.0000
  O   O64       1.0  0.00000  0.26100  0.21930  1.0000
  O   O65       1.0  0.50000  0.43883  0.40090  1.0000
  O   O66       1.0  0.50000  0.56117  0.90090  1.0000
  O   O67       1.0  0.00000  0.93883  0.40090  1.0000
  O   O68       1.0  0.00000  0.06117  0.90090  1.0000
