data_image0
_chemical_formula_structural       Bi4O8C8H8N4C4H8C4O8C4H8C4H8N4C4H8C4O8C4H8C4O8
_chemical_formula_sum              "Bi4 O32 C40 H48 N8"
_cell_length_a       9.335
_cell_length_b       21.587
_cell_length_c       11.427
_cell_angle_alpha    90
_cell_angle_beta     106.39
_cell_angle_gamma    90

_space_group_name_H-M_alt    "P 1"
_space_group_IT_number       1

loop_
  _space_group_symop_operation_xyz
  'x, y, z'

loop_
  _atom_site_type_symbol
  _atom_site_label
  _atom_site_symmetry_multiplicity
  _atom_site_fract_x
  _atom_site_fract_y
  _atom_site_fract_z
  _atom_site_occupancy
  Bi  Bi1       1.0  0.11814  0.27761  0.83015  1.0000
  Bi  Bi2       1.0  0.11814  0.22239  0.33015  1.0000
  Bi  Bi3       1.0  0.88186  0.72239  0.16985  1.0000
  Bi  Bi4       1.0  0.88186  0.77761  0.66985  1.0000
  O   O1        1.0  0.39640  0.27020  0.88210  1.0000
  O   O2        1.0  0.39640  0.22980  0.38210  1.0000
  O   O3        1.0  0.60360  0.72980  0.11790  1.0000
  O   O4        1.0  0.60360  0.77020  0.61790  1.0000
  O   O5        1.0  0.58740  0.32560  0.98870  1.0000
  O   O6        1.0  0.58740  0.17440  0.48870  1.0000
  O   O7        1.0  0.41260  0.67440  0.01130  1.0000
  O   O8        1.0  0.41260  0.82560  0.51130  1.0000
  C   C1        1.0  0.45600  0.32120  0.91620  1.0000
  C   C2        1.0  0.45600  0.17880  0.41620  1.0000
  C   C3        1.0  0.54400  0.67880  0.08380  1.0000
  C   C4        1.0  0.54400  0.82120  0.58380  1.0000
  C   C5        1.0  0.38200  0.38000  0.86990  1.0000
  C   C6        1.0  0.38200  0.12000  0.36990  1.0000
  C   C7        1.0  0.61800  0.62000  0.13010  1.0000
  C   C8        1.0  0.61800  0.88000  0.63010  1.0000
  H   H1        1.0  0.44410  0.40430  0.83290  1.0000
  H   H2        1.0  0.44410  0.09570  0.33290  1.0000
  H   H3        1.0  0.55590  0.59570  0.16710  1.0000
  H   H4        1.0  0.55590  0.90430  0.66710  1.0000
  H   H5        1.0  0.36730  0.40320  0.93710  1.0000
  H   H6        1.0  0.36730  0.09680  0.43710  1.0000
  H   H7        1.0  0.63270  0.59680  0.06290  1.0000
  H   H8        1.0  0.63270  0.90320  0.56290  1.0000
  N   N1        1.0  0.23360  0.37040  0.77930  1.0000
  N   N2        1.0  0.23360  0.12960  0.27930  1.0000
  N   N3        1.0  0.76640  0.62960  0.22070  1.0000
  N   N4        1.0  0.76640  0.87040  0.72070  1.0000
  C   C9        1.0  0.26300  0.35930  0.65890  1.0000
  C   C10       1.0  0.26300  0.14070  0.15890  1.0000
  C   C11       1.0  0.73700  0.64070  0.34110  1.0000
  C   C12       1.0  0.73700  0.85930  0.84110  1.0000
  H   H9        1.0  0.34760  0.33270  0.66910  1.0000
  H   H10       1.0  0.34760  0.16730  0.16910  1.0000
  H   H11       1.0  0.65240  0.66730  0.33090  1.0000
  H   H12       1.0  0.65240  0.83270  0.83090  1.0000
  H   H13       1.0  0.28330  0.39780  0.62490  1.0000
  H   H14       1.0  0.28330  0.10220  0.12490  1.0000
  H   H15       1.0  0.71670  0.60220  0.37510  1.0000
  H   H16       1.0  0.71670  0.89780  0.87510  1.0000
  C   C13       1.0  0.12600  0.32980  0.57430  1.0000
  C   C14       1.0  0.12600  0.17020  0.07430  1.0000
  C   C15       1.0  0.87400  0.67020  0.42570  1.0000
  C   C16       1.0  0.87400  0.82980  0.92570  1.0000
  O   O9        1.0  0.02810  0.30380  0.62150  1.0000
  O   O10       1.0  0.02810  0.19620  0.12150  1.0000
  O   O11       1.0  0.97190  0.69620  0.37850  1.0000
  O   O12       1.0  0.97190  0.80380  0.87850  1.0000
  O   O13       1.0  0.11010  0.32760  0.46290  1.0000
  O   O14       1.0  0.11010  0.17240  0.96290  1.0000
  O   O15       1.0  0.88990  0.67240  0.53710  1.0000
  O   O16       1.0  0.88990  0.82760  0.03710  1.0000
  C   C17       1.0  0.14100  0.42660  0.77110  1.0000
  C   C18       1.0  0.14100  0.07340  0.27110  1.0000
  C   C19       1.0  0.85900  0.57340  0.22890  1.0000
  C   C20       1.0  0.85900  0.92660  0.72890  1.0000
  H   H17       1.0  0.06570  0.42730  0.69400  1.0000
  H   H18       1.0  0.06570  0.07270  0.19400  1.0000
  H   H19       1.0  0.93430  0.57270  0.30600  1.0000
  H   H20       1.0  0.93430  0.92730  0.80600  1.0000
  H   H21       1.0  0.20190  0.46290  0.77700  1.0000
  H   H22       1.0  0.20190  0.03710  0.27700  1.0000
  H   H23       1.0  0.79810  0.53710  0.22300  1.0000
  H   H24       1.0  0.79810  0.96290  0.72300  1.0000
  C   C21       1.0  0.06900  0.42570  0.87680  1.0000
  C   C22       1.0  0.06900  0.07430  0.37680  1.0000
  C   C23       1.0  0.93100  0.57430  0.12320  1.0000
  C   C24       1.0  0.93100  0.92570  0.62320  1.0000
  H   H25       1.0  0.00410  0.46090  0.86920  1.0000
  H   H26       1.0  0.00410  0.03910  0.36920  1.0000
  H   H27       1.0  0.99590  0.53910  0.13080  1.0000
  H   H28       1.0  0.99590  0.96090  0.63080  1.0000
  H   H29       1.0  0.14540  0.42950  0.95280  1.0000
  H   H30       1.0  0.14540  0.07050  0.45280  1.0000
  H   H31       1.0  0.85460  0.57050  0.04720  1.0000
  H   H32       1.0  0.85460  0.92950  0.54720  1.0000
  N   N5        1.0  0.98260  0.36950  0.88160  1.0000
  N   N6        1.0  0.98260  0.13050  0.38160  1.0000
  N   N7        1.0  0.01740  0.63050  0.11840  1.0000
  N   N8        1.0  0.01740  0.86950  0.61840  1.0000
  C   C25       1.0  0.97100  0.35490  0.00390  1.0000
  C   C26       1.0  0.97100  0.14510  0.50390  1.0000
  C   C27       1.0  0.02900  0.64510  0.99610  1.0000
  C   C28       1.0  0.02900  0.85490  0.49610  1.0000
  H   H33       1.0  0.89350  0.32490  0.99770  1.0000
  H   H34       1.0  0.89350  0.17510  0.49770  1.0000
  H   H35       1.0  0.10650  0.67510  0.00230  1.0000
  H   H36       1.0  0.10650  0.82490  0.50230  1.0000
  H   H37       1.0  0.94350  0.39200  0.03860  1.0000
  H   H38       1.0  0.94350  0.10800  0.53860  1.0000
  H   H39       1.0  0.05650  0.60800  0.96140  1.0000
  H   H40       1.0  0.05650  0.89200  0.46140  1.0000
  C   C29       1.0  0.11500  0.33040  0.08810  1.0000
  C   C30       1.0  0.11500  0.16960  0.58810  1.0000
  C   C31       1.0  0.88500  0.66960  0.91190  1.0000
  C   C32       1.0  0.88500  0.83040  0.41190  1.0000
  O   O17       1.0  0.13070  0.33030  0.19890  1.0000
  O   O18       1.0  0.13070  0.16970  0.69890  1.0000
  O   O19       1.0  0.86930  0.66970  0.80110  1.0000
  O   O20       1.0  0.86930  0.83030  0.30110  1.0000
  O   O21       1.0  0.21060  0.30700  0.03630  1.0000
  O   O22       1.0  0.21060  0.19300  0.53630  1.0000
  O   O23       1.0  0.78940  0.69300  0.96370  1.0000
  O   O24       1.0  0.78940  0.80700  0.46370  1.0000
  C   C33       1.0  0.83300  0.36930  0.79000  1.0000
  C   C34       1.0  0.83300  0.13070  0.29000  1.0000
  C   C35       1.0  0.16700  0.63070  0.21000  1.0000
  C   C36       1.0  0.16700  0.86930  0.71000  1.0000
  H   H41       1.0  0.84160  0.38880  0.71690  1.0000
  H   H42       1.0  0.84160  0.11120  0.21690  1.0000
  H   H43       1.0  0.15840  0.61120  0.28310  1.0000
  H   H44       1.0  0.15840  0.88880  0.78310  1.0000
  H   H45       1.0  0.76690  0.39450  0.82130  1.0000
  H   H46       1.0  0.76690  0.10550  0.32130  1.0000
  H   H47       1.0  0.23310  0.60550  0.17870  1.0000
  H   H48       1.0  0.23310  0.89450  0.67870  1.0000
  C   C37       1.0  0.76400  0.30970  0.75800  1.0000
  C   C38       1.0  0.76400  0.19030  0.25800  1.0000
  C   C39       1.0  0.23600  0.69030  0.24200  1.0000
  C   C40       1.0  0.23600  0.80970  0.74200  1.0000
  O   O25       1.0  0.85040  0.26260  0.77670  1.0000
  O   O26       1.0  0.85040  0.23740  0.27670  1.0000
  O   O27       1.0  0.14960  0.73740  0.22330  1.0000
  O   O28       1.0  0.14960  0.76260  0.72330  1.0000
  O   O29       1.0  0.62790  0.30550  0.70520  1.0000
  O   O30       1.0  0.62790  0.19450  0.20520  1.0000
  O   O31       1.0  0.37210  0.69450  0.29480  1.0000
  O   O32       1.0  0.37210  0.80550  0.79480  1.0000
