data_image0
_chemical_formula_structural       In80S128N32C8H8C16H8C24H8C16H24C8H24C8H8C16H8C24H8C16H24C8H24
_chemical_formula_sum              "In80 S128 N32 C144 H144"
_cell_length_a       22.522
_cell_length_b       22.4835
_cell_length_c       34.4841
_cell_angle_alpha    90
_cell_angle_beta     90
_cell_angle_gamma    90

_space_group_name_H-M_alt    "P 1"
_space_group_IT_number       1

loop_
  _space_group_symop_operation_xyz
  'x, y, z'

loop_
  _atom_site_type_symbol
  _atom_site_label
  _atom_site_symmetry_multiplicity
  _atom_site_fract_x
  _atom_site_fract_y
  _atom_site_fract_z
  _atom_site_occupancy
  In  In1       1.0  0.45382  0.47877  0.15901  1.0000
  In  In2       1.0  0.04618  0.52123  0.65901  1.0000
  In  In3       1.0  0.54618  0.97877  0.34099  1.0000
  In  In4       1.0  0.95382  0.02123  0.84099  1.0000
  In  In5       1.0  0.54618  0.52123  0.84099  1.0000
  In  In6       1.0  0.95382  0.47877  0.34099  1.0000
  In  In7       1.0  0.45382  0.02123  0.65901  1.0000
  In  In8       1.0  0.04618  0.97877  0.15901  1.0000
  In  In9       1.0  0.59711  0.42688  0.11528  1.0000
  In  In10      1.0  0.90289  0.57312  0.61528  1.0000
  In  In11      1.0  0.40289  0.92688  0.38472  1.0000
  In  In12      1.0  0.09711  0.07312  0.88472  1.0000
  In  In13      1.0  0.40289  0.57312  0.88472  1.0000
  In  In14      1.0  0.09711  0.42688  0.38472  1.0000
  In  In15      1.0  0.59711  0.07312  0.61528  1.0000
  In  In16      1.0  0.90289  0.92688  0.11528  1.0000
  In  In17      1.0  0.51672  0.34259  0.20648  1.0000
  In  In18      1.0  0.98328  0.65741  0.70648  1.0000
  In  In19      1.0  0.48328  0.84259  0.29352  1.0000
  In  In20      1.0  0.01672  0.15741  0.79352  1.0000
  In  In21      1.0  0.48328  0.65741  0.79352  1.0000
  In  In22      1.0  0.01672  0.34259  0.29352  1.0000
  In  In23      1.0  0.51672  0.15741  0.70648  1.0000
  In  In24      1.0  0.98328  0.84259  0.20648  1.0000
  In  In25      1.0  0.43519  0.34232  0.09974  1.0000
  In  In26      1.0  0.06481  0.65768  0.59974  1.0000
  In  In27      1.0  0.56481  0.84232  0.40026  1.0000
  In  In28      1.0  0.93519  0.15768  0.90026  1.0000
  In  In29      1.0  0.56481  0.65768  0.90026  1.0000
  In  In30      1.0  0.93519  0.34232  0.40026  1.0000
  In  In31      1.0  0.43519  0.15768  0.59974  1.0000
  In  In32      1.0  0.06481  0.84232  0.09974  1.0000
  In  In33      1.0  0.72788  0.35454  0.06955  1.0000
  In  In34      1.0  0.77212  0.64546  0.56955  1.0000
  In  In35      1.0  0.27212  0.85454  0.43045  1.0000
  In  In36      1.0  0.22788  0.14546  0.93045  1.0000
  In  In37      1.0  0.27212  0.64546  0.93045  1.0000
  In  In38      1.0  0.22788  0.35454  0.43045  1.0000
  In  In39      1.0  0.72788  0.14546  0.56955  1.0000
  In  In40      1.0  0.77212  0.85454  0.06955  1.0000
  In  In41      1.0  0.66824  0.27368  0.15702  1.0000
  In  In42      1.0  0.83176  0.72632  0.65702  1.0000
  In  In43      1.0  0.33176  0.77368  0.34298  1.0000
  In  In44      1.0  0.16824  0.22632  0.84298  1.0000
  In  In45      1.0  0.33176  0.72632  0.84298  1.0000
  In  In46      1.0  0.16824  0.27368  0.34298  1.0000
  In  In47      1.0  0.66824  0.22632  0.65702  1.0000
  In  In48      1.0  0.83176  0.77368  0.15702  1.0000
  In  In49      1.0  0.58662  0.27439  0.05099  1.0000
  In  In50      1.0  0.91338  0.72561  0.55099  1.0000
  In  In51      1.0  0.41338  0.77439  0.44901  1.0000
  In  In52      1.0  0.08662  0.22561  0.94901  1.0000
  In  In53      1.0  0.41338  0.72561  0.94901  1.0000
  In  In54      1.0  0.08662  0.27439  0.44901  1.0000
  In  In55      1.0  0.58662  0.22561  0.55099  1.0000
  In  In56      1.0  0.91338  0.77439  0.05099  1.0000
  In  In57      1.0  0.58858  0.19972  0.23675  1.0000
  In  In58      1.0  0.91142  0.80028  0.73675  1.0000
  In  In59      1.0  0.41142  0.69972  0.26325  1.0000
  In  In60      1.0  0.08858  0.30028  0.76325  1.0000
  In  In61      1.0  0.41142  0.80028  0.76325  1.0000
  In  In62      1.0  0.08858  0.19972  0.26325  1.0000
  In  In63      1.0  0.58858  0.30028  0.73675  1.0000
  In  In64      1.0  0.91142  0.69972  0.23675  1.0000
  In  In65      1.0  0.50810  0.18972  0.14220  1.0000
  In  In66      1.0  0.99190  0.81028  0.64220  1.0000
  In  In67      1.0  0.49190  0.68972  0.35780  1.0000
  In  In68      1.0  0.00810  0.31028  0.85780  1.0000
  In  In69      1.0  0.49190  0.81028  0.85780  1.0000
  In  In70      1.0  0.00810  0.18972  0.35780  1.0000
  In  In71      1.0  0.50810  0.31028  0.64220  1.0000
  In  In72      1.0  0.99190  0.68972  0.14220  1.0000
  In  In73      1.0  0.43832  0.20020  0.04408  1.0000
  In  In74      1.0  0.06168  0.79980  0.54408  1.0000
  In  In75      1.0  0.56168  0.70020  0.45592  1.0000
  In  In76      1.0  0.93832  0.29980  0.95592  1.0000
  In  In77      1.0  0.56168  0.79980  0.95592  1.0000
  In  In78      1.0  0.93832  0.20020  0.45592  1.0000
  In  In79      1.0  0.43832  0.29980  0.54408  1.0000
  In  In80      1.0  0.06168  0.70020  0.04408  1.0000
  S   S1        1.0  0.54690  0.51708  0.13303  1.0000
  S   S2        1.0  0.95310  0.48292  0.63303  1.0000
  S   S3        1.0  0.45310  0.01708  0.36697  1.0000
  S   S4        1.0  0.04690  0.98292  0.86697  1.0000
  S   S5        1.0  0.45310  0.48292  0.86697  1.0000
  S   S6        1.0  0.04690  0.51708  0.36697  1.0000
  S   S7        1.0  0.54690  0.98292  0.63303  1.0000
  S   S8        1.0  0.95310  0.01708  0.13303  1.0000
  S   S9        1.0  0.46500  0.43310  0.22247  1.0000
  S   S10       1.0  0.03500  0.56690  0.72247  1.0000
  S   S11       1.0  0.53500  0.93310  0.27753  1.0000
  S   S12       1.0  0.96500  0.06690  0.77753  1.0000
  S   S13       1.0  0.53500  0.56690  0.77753  1.0000
  S   S14       1.0  0.96500  0.43310  0.27753  1.0000
  S   S15       1.0  0.46500  0.06690  0.72247  1.0000
  S   S16       1.0  0.03500  0.93310  0.22247  1.0000
  S   S17       1.0  0.38390  0.43280  0.11552  1.0000
  S   S18       1.0  0.11610  0.56720  0.61552  1.0000
  S   S19       1.0  0.61610  0.93280  0.38448  1.0000
  S   S20       1.0  0.88390  0.06720  0.88448  1.0000
  S   S21       1.0  0.61610  0.56720  0.88448  1.0000
  S   S22       1.0  0.88390  0.43280  0.38448  1.0000
  S   S23       1.0  0.38390  0.06720  0.61552  1.0000
  S   S24       1.0  0.11610  0.93280  0.11552  1.0000
  S   S25       1.0  0.69010  0.45190  0.08455  1.0000
  S   S26       1.0  0.80990  0.54810  0.58455  1.0000
  S   S27       1.0  0.30990  0.95190  0.41545  1.0000
  S   S28       1.0  0.19010  0.04810  0.91545  1.0000
  S   S29       1.0  0.30990  0.54810  0.91545  1.0000
  S   S30       1.0  0.19010  0.45190  0.41545  1.0000
  S   S31       1.0  0.69010  0.04810  0.58455  1.0000
  S   S32       1.0  0.80990  0.95190  0.08455  1.0000
  S   S33       1.0  0.61467  0.36772  0.17547  1.0000
  S   S34       1.0  0.88533  0.63228  0.67547  1.0000
  S   S35       1.0  0.38533  0.86772  0.32453  1.0000
  S   S36       1.0  0.11467  0.13228  0.82453  1.0000
  S   S37       1.0  0.38533  0.63228  0.82453  1.0000
  S   S38       1.0  0.11467  0.36772  0.32453  1.0000
  S   S39       1.0  0.61467  0.13228  0.67547  1.0000
  S   S40       1.0  0.88533  0.86772  0.17547  1.0000
  S   S41       1.0  0.53398  0.36780  0.06965  1.0000
  S   S42       1.0  0.96602  0.63220  0.56965  1.0000
  S   S43       1.0  0.46602  0.86780  0.43035  1.0000
  S   S44       1.0  0.03398  0.13220  0.93035  1.0000
  S   S45       1.0  0.46602  0.63220  0.93035  1.0000
  S   S46       1.0  0.03398  0.36780  0.43035  1.0000
  S   S47       1.0  0.53398  0.13220  0.56965  1.0000
  S   S48       1.0  0.96602  0.86780  0.06965  1.0000
  S   S49       1.0  0.53620  0.28420  0.26369  1.0000
  S   S50       1.0  0.96380  0.71580  0.76369  1.0000
  S   S51       1.0  0.46380  0.78420  0.23631  1.0000
  S   S52       1.0  0.03620  0.21580  0.73631  1.0000
  S   S53       1.0  0.46380  0.71580  0.73631  1.0000
  S   S54       1.0  0.03620  0.28420  0.23631  1.0000
  S   S55       1.0  0.53620  0.21580  0.76369  1.0000
  S   S56       1.0  0.96380  0.78420  0.26369  1.0000
  S   S57       1.0  0.45448  0.28389  0.16005  1.0000
  S   S58       1.0  0.04552  0.71611  0.66005  1.0000
  S   S59       1.0  0.54552  0.78389  0.33995  1.0000
  S   S60       1.0  0.95448  0.21611  0.83995  1.0000
  S   S61       1.0  0.54552  0.71611  0.83995  1.0000
  S   S62       1.0  0.95448  0.28389  0.33995  1.0000
  S   S63       1.0  0.45448  0.21611  0.66005  1.0000
  S   S64       1.0  0.04552  0.78389  0.16005  1.0000
  S   S65       1.0  0.37750  0.28820  0.05268  1.0000
  S   S66       1.0  0.12250  0.71180  0.55268  1.0000
  S   S67       1.0  0.62250  0.78820  0.44732  1.0000
  S   S68       1.0  0.87750  0.21180  0.94732  1.0000
  S   S69       1.0  0.62250  0.71180  0.94732  1.0000
  S   S70       1.0  0.87750  0.28820  0.44732  1.0000
  S   S71       1.0  0.37750  0.21180  0.55268  1.0000
  S   S72       1.0  0.12250  0.78820  0.05268  1.0000
  S   S73       1.0  0.76114  0.30210  0.12747  1.0000
  S   S74       1.0  0.73886  0.69790  0.62747  1.0000
  S   S75       1.0  0.23886  0.80210  0.37253  1.0000
  S   S76       1.0  0.26114  0.19790  0.87253  1.0000
  S   S77       1.0  0.23886  0.69790  0.87253  1.0000
  S   S78       1.0  0.26114  0.30210  0.37253  1.0000
  S   S79       1.0  0.76114  0.19790  0.62747  1.0000
  S   S80       1.0  0.73886  0.80210  0.12747  1.0000
  S   S81       1.0  0.67990  0.29700  0.01988  1.0000
  S   S82       1.0  0.82010  0.70300  0.51988  1.0000
  S   S83       1.0  0.32010  0.79700  0.48012  1.0000
  S   S84       1.0  0.17990  0.20300  0.98012  1.0000
  S   S85       1.0  0.32010  0.70300  0.98012  1.0000
  S   S86       1.0  0.17990  0.29700  0.48012  1.0000
  S   S87       1.0  0.67990  0.20300  0.51988  1.0000
  S   S88       1.0  0.82010  0.79700  0.01988  1.0000
  S   S89       1.0  0.68880  0.21680  0.21448  1.0000
  S   S90       1.0  0.81120  0.78320  0.71448  1.0000
  S   S91       1.0  0.31120  0.71680  0.28552  1.0000
  S   S92       1.0  0.18880  0.28320  0.78552  1.0000
  S   S93       1.0  0.31120  0.78320  0.78552  1.0000
  S   S94       1.0  0.18880  0.21680  0.28552  1.0000
  S   S95       1.0  0.68880  0.28320  0.71448  1.0000
  S   S96       1.0  0.81120  0.71680  0.21448  1.0000
  S   S97       1.0  0.60569  0.21487  0.11123  1.0000
  S   S98       1.0  0.89431  0.78513  0.61123  1.0000
  S   S99       1.0  0.39431  0.71487  0.38877  1.0000
  S   S100      1.0  0.10569  0.28513  0.88877  1.0000
  S   S101      1.0  0.39431  0.78513  0.88877  1.0000
  S   S102      1.0  0.10569  0.21487  0.38877  1.0000
  S   S103      1.0  0.60569  0.28513  0.61123  1.0000
  S   S104      1.0  0.89431  0.71487  0.11123  1.0000
  S   S105      1.0  0.52920  0.21410  0.00773  1.0000
  S   S106      1.0  0.97080  0.78590  0.50773  1.0000
  S   S107      1.0  0.47080  0.71410  0.49227  1.0000
  S   S108      1.0  0.02920  0.28590  0.99227  1.0000
  S   S109      1.0  0.47080  0.78590  0.99227  1.0000
  S   S110      1.0  0.02920  0.21410  0.49227  1.0000
  S   S111      1.0  0.52920  0.28590  0.50773  1.0000
  S   S112      1.0  0.97080  0.71410  0.00773  1.0000
  S   S113      1.0  0.52990  0.13059  0.19855  1.0000
  S   S114      1.0  0.97010  0.86941  0.69855  1.0000
  S   S115      1.0  0.47010  0.63059  0.30145  1.0000
  S   S116      1.0  0.02990  0.36941  0.80145  1.0000
  S   S117      1.0  0.47010  0.86941  0.80145  1.0000
  S   S118      1.0  0.02990  0.13059  0.30145  1.0000
  S   S119      1.0  0.52990  0.36941  0.69855  1.0000
  S   S120      1.0  0.97010  0.63059  0.19855  1.0000
  S   S121      1.0  0.44120  0.13680  0.10046  1.0000
  S   S122      1.0  0.05880  0.86320  0.60046  1.0000
  S   S123      1.0  0.55880  0.63680  0.39954  1.0000
  S   S124      1.0  0.94120  0.36320  0.89954  1.0000
  S   S125      1.0  0.55880  0.86320  0.89954  1.0000
  S   S126      1.0  0.94120  0.13680  0.39954  1.0000
  S   S127      1.0  0.44120  0.36320  0.60046  1.0000
  S   S128      1.0  0.05880  0.63680  0.10046  1.0000
  N   N1        1.0  0.40950  0.56130  0.17600  1.0000
  N   N2        1.0  0.09050  0.43870  0.67600  1.0000
  N   N3        1.0  0.59050  0.06130  0.32400  1.0000
  N   N4        1.0  0.90950  0.93870  0.82400  1.0000
  N   N5        1.0  0.59050  0.43870  0.82400  1.0000
  N   N6        1.0  0.90950  0.56130  0.32400  1.0000
  N   N7        1.0  0.40950  0.93870  0.67600  1.0000
  N   N8        1.0  0.09050  0.06130  0.17600  1.0000
  N   N9        1.0  0.39580  0.64260  0.21310  1.0000
  N   N10       1.0  0.10420  0.35740  0.71310  1.0000
  N   N11       1.0  0.60420  0.14260  0.28690  1.0000
  N   N12       1.0  0.89580  0.85740  0.78690  1.0000
  N   N13       1.0  0.60420  0.35740  0.78690  1.0000
  N   N14       1.0  0.89580  0.64260  0.28690  1.0000
  N   N15       1.0  0.39580  0.85740  0.71310  1.0000
  N   N16       1.0  0.10420  0.14260  0.21310  1.0000
  N   N17       1.0  0.81100  0.36920  0.03900  1.0000
  N   N18       1.0  0.68900  0.63080  0.53900  1.0000
  N   N19       1.0  0.18900  0.86920  0.46100  1.0000
  N   N20       1.0  0.31100  0.13080  0.96100  1.0000
  N   N21       1.0  0.18900  0.63080  0.96100  1.0000
  N   N22       1.0  0.31100  0.36920  0.46100  1.0000
  N   N23       1.0  0.81100  0.13080  0.53900  1.0000
  N   N24       1.0  0.68900  0.86920  0.03900  1.0000
  N   N25       1.0  0.88680  0.34870  0.99910  1.0000
  N   N26       1.0  0.61320  0.65130  0.49910  1.0000
  N   N27       1.0  0.11320  0.84870  0.50090  1.0000
  N   N28       1.0  0.38680  0.15130  0.00090  1.0000
  N   N29       1.0  0.11320  0.65130  0.00090  1.0000
  N   N30       1.0  0.38680  0.34870  0.50090  1.0000
  N   N31       1.0  0.88680  0.15130  0.49910  1.0000
  N   N32       1.0  0.61320  0.84870  0.99910  1.0000
  C   C1        1.0  0.42550  0.59210  0.20660  1.0000
  C   C2        1.0  0.07450  0.40790  0.70660  1.0000
  C   C3        1.0  0.57450  0.09210  0.29340  1.0000
  C   C4        1.0  0.92550  0.90790  0.79340  1.0000
  C   C5        1.0  0.57450  0.40790  0.79340  1.0000
  C   C6        1.0  0.92550  0.59210  0.29340  1.0000
  C   C7        1.0  0.42550  0.90790  0.70660  1.0000
  C   C8        1.0  0.07450  0.09210  0.20660  1.0000
  H   H1        1.0  0.45660  0.57920  0.22330  1.0000
  H   H2        1.0  0.04340  0.42080  0.72330  1.0000
  H   H3        1.0  0.54340  0.07920  0.27670  1.0000
  H   H4        1.0  0.95660  0.92080  0.77670  1.0000
  H   H5        1.0  0.54340  0.42080  0.77670  1.0000
  H   H6        1.0  0.95660  0.57920  0.27670  1.0000
  H   H7        1.0  0.45660  0.92080  0.72330  1.0000
  H   H8        1.0  0.04340  0.07920  0.22330  1.0000
  C   C9        1.0  0.36420  0.59580  0.16020  1.0000
  C   C10       1.0  0.13580  0.40420  0.66020  1.0000
  C   C11       1.0  0.63580  0.09580  0.33980  1.0000
  C   C12       1.0  0.86420  0.90420  0.83980  1.0000
  C   C13       1.0  0.63580  0.40420  0.83980  1.0000
  C   C14       1.0  0.86420  0.59580  0.33980  1.0000
  C   C15       1.0  0.36420  0.90420  0.66020  1.0000
  C   C16       1.0  0.13580  0.09580  0.16020  1.0000
  C   C17       1.0  0.32670  0.58580  0.12710  1.0000
  C   C18       1.0  0.17330  0.41420  0.62710  1.0000
  C   C19       1.0  0.67330  0.08580  0.37290  1.0000
  C   C20       1.0  0.82670  0.91420  0.87290  1.0000
  C   C21       1.0  0.67330  0.41420  0.87290  1.0000
  C   C22       1.0  0.82670  0.58580  0.37290  1.0000
  C   C23       1.0  0.32670  0.91420  0.62710  1.0000
  C   C24       1.0  0.17330  0.08580  0.12710  1.0000
  H   H9        1.0  0.33090  0.55110  0.11160  1.0000
  H   H10       1.0  0.16910  0.44890  0.61160  1.0000
  H   H11       1.0  0.66910  0.05110  0.38840  1.0000
  H   H12       1.0  0.83090  0.94890  0.88840  1.0000
  H   H13       1.0  0.66910  0.44890  0.88840  1.0000
  H   H14       1.0  0.83090  0.55110  0.38840  1.0000
  H   H15       1.0  0.33090  0.94890  0.61160  1.0000
  H   H16       1.0  0.16910  0.05110  0.11160  1.0000
  C   C25       1.0  0.28560  0.62690  0.11870  1.0000
  C   C26       1.0  0.21440  0.37310  0.61870  1.0000
  C   C27       1.0  0.71440  0.12690  0.38130  1.0000
  C   C28       1.0  0.78560  0.87310  0.88130  1.0000
  C   C29       1.0  0.71440  0.37310  0.88130  1.0000
  C   C30       1.0  0.78560  0.62690  0.38130  1.0000
  C   C31       1.0  0.28560  0.87310  0.61870  1.0000
  C   C32       1.0  0.21440  0.12690  0.11870  1.0000
  C   C33       1.0  0.27540  0.67680  0.14270  1.0000
  C   C34       1.0  0.22460  0.32320  0.64270  1.0000
  C   C35       1.0  0.72460  0.17680  0.35730  1.0000
  C   C36       1.0  0.77540  0.82320  0.85730  1.0000
  C   C37       1.0  0.72460  0.32320  0.85730  1.0000
  C   C38       1.0  0.77540  0.67680  0.35730  1.0000
  C   C39       1.0  0.27540  0.82320  0.64270  1.0000
  C   C40       1.0  0.22460  0.17680  0.14270  1.0000
  C   C41       1.0  0.31230  0.68510  0.17460  1.0000
  C   C42       1.0  0.18770  0.31490  0.67460  1.0000
  C   C43       1.0  0.68770  0.18510  0.32540  1.0000
  C   C44       1.0  0.81230  0.81490  0.82540  1.0000
  C   C45       1.0  0.68770  0.31490  0.82540  1.0000
  C   C46       1.0  0.81230  0.68510  0.32540  1.0000
  C   C47       1.0  0.31230  0.81490  0.67460  1.0000
  C   C48       1.0  0.18770  0.18510  0.17460  1.0000
  H   H17       1.0  0.30710  0.71920  0.19050  1.0000
  H   H18       1.0  0.19290  0.28080  0.69050  1.0000
  H   H19       1.0  0.69290  0.21920  0.30950  1.0000
  H   H20       1.0  0.80710  0.78080  0.80950  1.0000
  H   H21       1.0  0.69290  0.28080  0.80950  1.0000
  H   H22       1.0  0.80710  0.71920  0.30950  1.0000
  H   H23       1.0  0.30710  0.78080  0.69050  1.0000
  H   H24       1.0  0.19290  0.21920  0.19050  1.0000
  C   C49       1.0  0.35670  0.64440  0.18350  1.0000
  C   C50       1.0  0.14330  0.35560  0.68350  1.0000
  C   C51       1.0  0.64330  0.14440  0.31650  1.0000
  C   C52       1.0  0.85670  0.85560  0.81650  1.0000
  C   C53       1.0  0.64330  0.35560  0.81650  1.0000
  C   C54       1.0  0.85670  0.64440  0.31650  1.0000
  C   C55       1.0  0.35670  0.85560  0.68350  1.0000
  C   C56       1.0  0.14330  0.14440  0.18350  1.0000
  C   C57       1.0  0.24480  0.61940  0.08280  1.0000
  C   C58       1.0  0.25520  0.38060  0.58280  1.0000
  C   C59       1.0  0.75520  0.11940  0.41720  1.0000
  C   C60       1.0  0.74480  0.88060  0.91720  1.0000
  C   C61       1.0  0.75520  0.38060  0.91720  1.0000
  C   C62       1.0  0.74480  0.61940  0.41720  1.0000
  C   C63       1.0  0.24480  0.88060  0.58280  1.0000
  C   C64       1.0  0.25520  0.11940  0.08280  1.0000
  H   H25       1.0  0.26860  0.60630  0.06060  1.0000
  H   H26       1.0  0.23140  0.39370  0.56060  1.0000
  H   H27       1.0  0.73140  0.10630  0.43940  1.0000
  H   H28       1.0  0.76860  0.89370  0.93940  1.0000
  H   H29       1.0  0.73140  0.39370  0.93940  1.0000
  H   H30       1.0  0.76860  0.60630  0.43940  1.0000
  H   H31       1.0  0.26860  0.89370  0.56060  1.0000
  H   H32       1.0  0.23140  0.10630  0.06060  1.0000
  H   H33       1.0  0.22580  0.65750  0.07680  1.0000
  H   H34       1.0  0.27420  0.34250  0.57680  1.0000
  H   H35       1.0  0.77420  0.15750  0.42320  1.0000
  H   H36       1.0  0.72580  0.84250  0.92320  1.0000
  H   H37       1.0  0.77420  0.34250  0.92320  1.0000
  H   H38       1.0  0.72580  0.65750  0.42320  1.0000
  H   H39       1.0  0.22580  0.84250  0.57680  1.0000
  H   H40       1.0  0.27420  0.15750  0.07680  1.0000
  H   H41       1.0  0.21420  0.58960  0.08840  1.0000
  H   H42       1.0  0.28580  0.41040  0.58840  1.0000
  H   H43       1.0  0.78580  0.08960  0.41160  1.0000
  H   H44       1.0  0.71420  0.91040  0.91160  1.0000
  H   H45       1.0  0.78580  0.41040  0.91160  1.0000
  H   H46       1.0  0.71420  0.58960  0.41160  1.0000
  H   H47       1.0  0.21420  0.91040  0.58840  1.0000
  H   H48       1.0  0.28580  0.08960  0.08840  1.0000
  C   C65       1.0  0.22850  0.72160  0.13210  1.0000
  C   C66       1.0  0.27150  0.27840  0.63210  1.0000
  C   C67       1.0  0.77150  0.22160  0.36790  1.0000
  C   C68       1.0  0.72850  0.77840  0.86790  1.0000
  C   C69       1.0  0.77150  0.27840  0.86790  1.0000
  C   C70       1.0  0.72850  0.72160  0.36790  1.0000
  C   C71       1.0  0.22850  0.77840  0.63210  1.0000
  C   C72       1.0  0.27150  0.22160  0.13210  1.0000
  H   H49       1.0  0.23780  0.73880  0.10670  1.0000
  H   H50       1.0  0.26220  0.26120  0.60670  1.0000
  H   H51       1.0  0.76220  0.23880  0.39330  1.0000
  H   H52       1.0  0.73780  0.76120  0.89330  1.0000
  H   H53       1.0  0.76220  0.26120  0.89330  1.0000
  H   H54       1.0  0.73780  0.73880  0.39330  1.0000
  H   H55       1.0  0.23780  0.76120  0.60670  1.0000
  H   H56       1.0  0.26220  0.23880  0.10670  1.0000
  H   H57       1.0  0.22750  0.75320  0.15160  1.0000
  H   H58       1.0  0.27250  0.24680  0.65160  1.0000
  H   H59       1.0  0.77250  0.25320  0.34840  1.0000
  H   H60       1.0  0.72750  0.74680  0.84840  1.0000
  H   H61       1.0  0.77250  0.24680  0.84840  1.0000
  H   H62       1.0  0.72750  0.75320  0.34840  1.0000
  H   H63       1.0  0.22750  0.74680  0.65160  1.0000
  H   H64       1.0  0.27250  0.25320  0.15160  1.0000
  H   H65       1.0  0.18970  0.70190  0.13100  1.0000
  H   H66       1.0  0.31030  0.29810  0.63100  1.0000
  H   H67       1.0  0.81030  0.20190  0.36900  1.0000
  H   H68       1.0  0.68970  0.79810  0.86900  1.0000
  H   H69       1.0  0.81030  0.29810  0.86900  1.0000
  H   H70       1.0  0.68970  0.70190  0.36900  1.0000
  H   H71       1.0  0.18970  0.79810  0.63100  1.0000
  H   H72       1.0  0.31030  0.20190  0.13100  1.0000
  C   C73       1.0  0.83110  0.33750  0.00980  1.0000
  C   C74       1.0  0.66890  0.66250  0.50980  1.0000
  C   C75       1.0  0.16890  0.83750  0.49020  1.0000
  C   C76       1.0  0.33110  0.16250  0.99020  1.0000
  C   C77       1.0  0.16890  0.66250  0.99020  1.0000
  C   C78       1.0  0.33110  0.33750  0.49020  1.0000
  C   C79       1.0  0.83110  0.16250  0.50980  1.0000
  C   C80       1.0  0.66890  0.83750  0.00980  1.0000
  H   H73       1.0  0.80740  0.30840  0.99710  1.0000
  H   H74       1.0  0.69260  0.69160  0.49710  1.0000
  H   H75       1.0  0.19260  0.80840  0.50290  1.0000
  H   H76       1.0  0.30740  0.19160  0.00290  1.0000
  H   H77       1.0  0.19260  0.69160  0.00290  1.0000
  H   H78       1.0  0.30740  0.30840  0.50290  1.0000
  H   H79       1.0  0.80740  0.19160  0.49710  1.0000
  H   H80       1.0  0.69260  0.80840  0.99710  1.0000
  C   C81       1.0  0.85890  0.40350  0.04840  1.0000
  C   C82       1.0  0.64110  0.59650  0.54840  1.0000
  C   C83       1.0  0.14110  0.90350  0.45160  1.0000
  C   C84       1.0  0.35890  0.09650  0.95160  1.0000
  C   C85       1.0  0.14110  0.59650  0.95160  1.0000
  C   C86       1.0  0.35890  0.40350  0.45160  1.0000
  C   C87       1.0  0.85890  0.09650  0.54840  1.0000
  C   C88       1.0  0.64110  0.90350  0.04840  1.0000
  C   C89       1.0  0.86350  0.45030  0.07540  1.0000
  C   C90       1.0  0.63650  0.54970  0.57540  1.0000
  C   C91       1.0  0.13650  0.95030  0.42460  1.0000
  C   C92       1.0  0.36350  0.04970  0.92460  1.0000
  C   C93       1.0  0.13650  0.54970  0.92460  1.0000
  C   C94       1.0  0.36350  0.45030  0.42460  1.0000
  C   C95       1.0  0.86350  0.04970  0.57540  1.0000
  C   C96       1.0  0.63650  0.95030  0.07540  1.0000
  H   H81       1.0  0.83000  0.46290  0.08990  1.0000
  H   H82       1.0  0.67000  0.53710  0.58990  1.0000
  H   H83       1.0  0.17000  0.96290  0.41010  1.0000
  H   H84       1.0  0.33000  0.03710  0.91010  1.0000
  H   H85       1.0  0.17000  0.53710  0.91010  1.0000
  H   H86       1.0  0.33000  0.46290  0.41010  1.0000
  H   H87       1.0  0.83000  0.03710  0.58990  1.0000
  H   H88       1.0  0.67000  0.96290  0.08990  1.0000
  C   C97       1.0  0.91770  0.47720  0.08010  1.0000
  C   C98       1.0  0.58230  0.52280  0.58010  1.0000
  C   C99       1.0  0.08230  0.97720  0.41990  1.0000
  C   C100      1.0  0.41770  0.02280  0.91990  1.0000
  C   C101      1.0  0.08230  0.52280  0.91990  1.0000
  C   C102      1.0  0.41770  0.47720  0.41990  1.0000
  C   C103      1.0  0.91770  0.02280  0.58010  1.0000
  C   C104      1.0  0.58230  0.97720  0.08010  1.0000
  C   C105      1.0  0.96560  0.46090  0.05630  1.0000
  C   C106      1.0  0.53440  0.53910  0.55630  1.0000
  C   C107      1.0  0.03440  0.96090  0.44370  1.0000
  C   C108      1.0  0.46560  0.03910  0.94370  1.0000
  C   C109      1.0  0.03440  0.53910  0.94370  1.0000
  C   C110      1.0  0.46560  0.46090  0.44370  1.0000
  C   C111      1.0  0.96560  0.03910  0.55630  1.0000
  C   C112      1.0  0.53440  0.96090  0.05630  1.0000
  C   C113      1.0  0.95940  0.41700  0.02890  1.0000
  C   C114      1.0  0.54060  0.58300  0.52890  1.0000
  C   C115      1.0  0.04060  0.91700  0.47110  1.0000
  C   C116      1.0  0.45940  0.08300  0.97110  1.0000
  C   C117      1.0  0.04060  0.58300  0.97110  1.0000
  C   C118      1.0  0.45940  0.41700  0.47110  1.0000
  C   C119      1.0  0.95940  0.08300  0.52890  1.0000
  C   C120      1.0  0.54060  0.91700  0.02890  1.0000
  H   H89       1.0  0.99200  0.40570  0.01310  1.0000
  H   H90       1.0  0.50800  0.59430  0.51310  1.0000
  H   H91       1.0  0.00800  0.90570  0.48690  1.0000
  H   H92       1.0  0.49200  0.09430  0.98690  1.0000
  H   H93       1.0  0.00800  0.59430  0.98690  1.0000
  H   H94       1.0  0.49200  0.40570  0.48690  1.0000
  H   H95       1.0  0.99200  0.09430  0.51310  1.0000
  H   H96       1.0  0.50800  0.90570  0.01310  1.0000
  C   C121      1.0  0.90640  0.39060  0.02490  1.0000
  C   C122      1.0  0.59360  0.60940  0.52490  1.0000
  C   C123      1.0  0.09360  0.89060  0.47510  1.0000
  C   C124      1.0  0.40640  0.10940  0.97510  1.0000
  C   C125      1.0  0.09360  0.60940  0.97510  1.0000
  C   C126      1.0  0.40640  0.39060  0.47510  1.0000
  C   C127      1.0  0.90640  0.10940  0.52490  1.0000
  C   C128      1.0  0.59360  0.89060  0.02490  1.0000
  C   C129      1.0  0.02830  0.48300  0.07000  1.0000
  C   C130      1.0  0.47170  0.51700  0.57000  1.0000
  C   C131      1.0  0.97170  0.98300  0.43000  1.0000
  C   C132      1.0  0.52830  0.01700  0.93000  1.0000
  C   C133      1.0  0.97170  0.51700  0.93000  1.0000
  C   C134      1.0  0.52830  0.48300  0.43000  1.0000
  C   C135      1.0  0.02830  0.01700  0.57000  1.0000
  C   C136      1.0  0.47170  0.98300  0.07000  1.0000
  H   H97       1.0  0.03790  0.52080  0.05790  1.0000
  H   H98       1.0  0.46210  0.47920  0.55790  1.0000
  H   H99       1.0  0.96210  0.02080  0.44210  1.0000
  H   H100      1.0  0.53790  0.97920  0.94210  1.0000
  H   H101      1.0  0.96210  0.47920  0.94210  1.0000
  H   H102      1.0  0.53790  0.52080  0.44210  1.0000
  H   H103      1.0  0.03790  0.97920  0.55790  1.0000
  H   H104      1.0  0.46210  0.02080  0.05790  1.0000
  H   H105      1.0  0.05840  0.45320  0.06370  1.0000
  H   H106      1.0  0.44160  0.54680  0.56370  1.0000
  H   H107      1.0  0.94160  0.95320  0.43630  1.0000
  H   H108      1.0  0.55840  0.04680  0.93630  1.0000
  H   H109      1.0  0.94160  0.54680  0.93630  1.0000
  H   H110      1.0  0.55840  0.45320  0.43630  1.0000
  H   H111      1.0  0.05840  0.04680  0.56370  1.0000
  H   H112      1.0  0.44160  0.95320  0.06370  1.0000
  H   H113      1.0  0.02760  0.48840  0.09870  1.0000
  H   H114      1.0  0.47240  0.51160  0.59870  1.0000
  H   H115      1.0  0.97240  0.98840  0.40130  1.0000
  H   H116      1.0  0.52760  0.01160  0.90130  1.0000
  H   H117      1.0  0.97240  0.51160  0.90130  1.0000
  H   H118      1.0  0.52760  0.48840  0.40130  1.0000
  H   H119      1.0  0.02760  0.01160  0.59870  1.0000
  H   H120      1.0  0.47240  0.98840  0.09870  1.0000
  C   C137      1.0  0.92700  0.53000  0.10920  1.0000
  C   C138      1.0  0.57300  0.47000  0.60920  1.0000
  C   C139      1.0  0.07300  0.03000  0.39080  1.0000
  C   C140      1.0  0.42700  0.97000  0.89080  1.0000
  C   C141      1.0  0.07300  0.47000  0.89080  1.0000
  C   C142      1.0  0.42700  0.53000  0.39080  1.0000
  C   C143      1.0  0.92700  0.97000  0.60920  1.0000
  C   C144      1.0  0.57300  0.03000  0.10920  1.0000
  H   H121      1.0  0.96680  0.52760  0.12020  1.0000
  H   H122      1.0  0.53320  0.47240  0.62020  1.0000
  H   H123      1.0  0.03320  0.02760  0.37980  1.0000
  H   H124      1.0  0.46680  0.97240  0.87980  1.0000
  H   H125      1.0  0.03320  0.47240  0.87980  1.0000
  H   H126      1.0  0.46680  0.52760  0.37980  1.0000
  H   H127      1.0  0.96680  0.97240  0.62020  1.0000
  H   H128      1.0  0.53320  0.02760  0.12020  1.0000
  H   H129      1.0  0.89740  0.52680  0.13010  1.0000
  H   H130      1.0  0.60260  0.47320  0.63010  1.0000
  H   H131      1.0  0.10260  0.02680  0.36990  1.0000
  H   H132      1.0  0.39740  0.97320  0.86990  1.0000
  H   H133      1.0  0.10260  0.47320  0.86990  1.0000
  H   H134      1.0  0.39740  0.52680  0.36990  1.0000
  H   H135      1.0  0.89740  0.97320  0.63010  1.0000
  H   H136      1.0  0.60260  0.02680  0.13010  1.0000
  H   H137      1.0  0.92180  0.56760  0.09560  1.0000
  H   H138      1.0  0.57820  0.43240  0.59560  1.0000
  H   H139      1.0  0.07820  0.06760  0.40440  1.0000
  H   H140      1.0  0.42180  0.93240  0.90440  1.0000
  H   H141      1.0  0.07820  0.43240  0.90440  1.0000
  H   H142      1.0  0.42180  0.56760  0.40440  1.0000
  H   H143      1.0  0.92180  0.93240  0.59560  1.0000
  H   H144      1.0  0.57820  0.06760  0.09560  1.0000
