data_image0
_chemical_formula_structural       Cd32S248In128N32C8H8C16H8C24H8C16H24C8H24C8H8C16H8C24H8C16H24C8H24
_chemical_formula_sum              "Cd32 S248 In128 N32 C144 H144"
_cell_length_a       25.7722
_cell_length_b       25.6993
_cell_length_c       48.34
_cell_angle_alpha    90
_cell_angle_beta     90
_cell_angle_gamma    90

_space_group_name_H-M_alt    "P 1"
_space_group_IT_number       1

loop_
  _space_group_symop_operation_xyz
  'x, y, z'

loop_
  _atom_site_type_symbol
  _atom_site_label
  _atom_site_symmetry_multiplicity
  _atom_site_fract_x
  _atom_site_fract_y
  _atom_site_fract_z
  _atom_site_occupancy
  Cd  Cd1       1.0  0.91493  0.28250  0.10626  1.0000
  Cd  Cd2       1.0  0.58507  0.71750  0.60626  1.0000
  Cd  Cd3       1.0  0.41493  0.21750  0.89374  1.0000
  Cd  Cd4       1.0  0.08507  0.78250  0.39374  1.0000
  Cd  Cd5       1.0  0.08507  0.71750  0.89374  1.0000
  Cd  Cd6       1.0  0.41493  0.28250  0.39374  1.0000
  Cd  Cd7       1.0  0.58507  0.78250  0.10626  1.0000
  Cd  Cd8       1.0  0.91493  0.21750  0.60626  1.0000
  Cd  Cd9       1.0  0.91810  0.15780  0.15548  1.0000
  Cd  Cd10      1.0  0.58190  0.84220  0.65548  1.0000
  Cd  Cd11      1.0  0.41810  0.34220  0.84452  1.0000
  Cd  Cd12      1.0  0.08190  0.65780  0.34452  1.0000
  Cd  Cd13      1.0  0.08190  0.84220  0.84452  1.0000
  Cd  Cd14      1.0  0.41810  0.15780  0.34452  1.0000
  Cd  Cd15      1.0  0.58190  0.65780  0.15548  1.0000
  Cd  Cd16      1.0  0.91810  0.34220  0.65548  1.0000
  Cd  Cd17      1.0  0.03875  0.25630  0.15429  1.0000
  Cd  Cd18      1.0  0.46125  0.74370  0.65429  1.0000
  Cd  Cd19      1.0  0.53875  0.24370  0.84571  1.0000
  Cd  Cd20      1.0  0.96125  0.75630  0.34571  1.0000
  Cd  Cd21      1.0  0.96125  0.74370  0.84571  1.0000
  Cd  Cd22      1.0  0.53875  0.25630  0.34571  1.0000
  Cd  Cd23      1.0  0.46125  0.75630  0.15429  1.0000
  Cd  Cd24      1.0  0.03875  0.24370  0.65429  1.0000
  Cd  Cd25      1.0  0.01030  0.16400  0.08883  1.0000
  Cd  Cd26      1.0  0.48970  0.83600  0.58883  1.0000
  Cd  Cd27      1.0  0.51030  0.33600  0.91117  1.0000
  Cd  Cd28      1.0  0.98970  0.66400  0.41117  1.0000
  Cd  Cd29      1.0  0.98970  0.83600  0.91117  1.0000
  Cd  Cd30      1.0  0.51030  0.16400  0.41117  1.0000
  Cd  Cd31      1.0  0.48970  0.66400  0.08883  1.0000
  Cd  Cd32      1.0  0.01030  0.33600  0.58883  1.0000
  S   S1        1.0  0.22760  0.35560  0.92090  1.0000
  S   S2        1.0  0.27240  0.64440  0.42090  1.0000
  S   S3        1.0  0.72760  0.14440  0.07910  1.0000
  S   S4        1.0  0.77240  0.85560  0.57910  1.0000
  S   S5        1.0  0.77240  0.64440  0.07910  1.0000
  S   S6        1.0  0.72760  0.35560  0.57910  1.0000
  S   S7        1.0  0.27240  0.85560  0.92090  1.0000
  S   S8        1.0  0.22760  0.14440  0.42090  1.0000
  S   S9        1.0  0.32610  0.47890  0.93590  1.0000
  S   S10       1.0  0.17390  0.52110  0.43590  1.0000
  S   S11       1.0  0.82610  0.02110  0.06410  1.0000
  S   S12       1.0  0.67390  0.97890  0.56410  1.0000
  S   S13       1.0  0.67390  0.52110  0.06410  1.0000
  S   S14       1.0  0.82610  0.47890  0.56410  1.0000
  S   S15       1.0  0.17390  0.97890  0.93590  1.0000
  S   S16       1.0  0.32610  0.02110  0.43590  1.0000
  S   S17       1.0  0.32320  0.34840  0.98800  1.0000
  S   S18       1.0  0.17680  0.65160  0.48800  1.0000
  S   S19       1.0  0.82320  0.15160  0.01200  1.0000
  S   S20       1.0  0.67680  0.84840  0.51200  1.0000
  S   S21       1.0  0.67680  0.65160  0.01200  1.0000
  S   S22       1.0  0.82320  0.34840  0.51200  1.0000
  S   S23       1.0  0.17680  0.84840  0.98800  1.0000
  S   S24       1.0  0.32320  0.15160  0.48800  1.0000
  S   S25       1.0  0.75200  0.23410  0.14350  1.0000
  S   S26       1.0  0.74800  0.76590  0.64350  1.0000
  S   S27       1.0  0.25200  0.26590  0.85650  1.0000
  S   S28       1.0  0.24800  0.73410  0.35650  1.0000
  S   S29       1.0  0.24800  0.76590  0.85650  1.0000
  S   S30       1.0  0.25200  0.23410  0.35650  1.0000
  S   S31       1.0  0.74800  0.73410  0.14350  1.0000
  S   S32       1.0  0.75200  0.26590  0.64350  1.0000
  S   S33       1.0  0.84970  0.11530  0.12850  1.0000
  S   S34       1.0  0.65030  0.88470  0.62850  1.0000
  S   S35       1.0  0.34970  0.38470  0.87150  1.0000
  S   S36       1.0  0.15030  0.61530  0.37150  1.0000
  S   S37       1.0  0.15030  0.88470  0.87150  1.0000
  S   S38       1.0  0.34970  0.11530  0.37150  1.0000
  S   S39       1.0  0.65030  0.61530  0.12850  1.0000
  S   S40       1.0  0.84970  0.38470  0.62850  1.0000
  S   S41       1.0  0.84630  0.24460  0.07710  1.0000
  S   S42       1.0  0.65370  0.75540  0.57710  1.0000
  S   S43       1.0  0.34630  0.25540  0.92290  1.0000
  S   S44       1.0  0.15370  0.74460  0.42290  1.0000
  S   S45       1.0  0.15370  0.75540  0.92290  1.0000
  S   S46       1.0  0.34630  0.24460  0.42290  1.0000
  S   S47       1.0  0.65370  0.74460  0.07710  1.0000
  S   S48       1.0  0.84630  0.25540  0.57710  1.0000
  S   S49       1.0  0.94700  0.99720  0.11220  1.0000
  S   S50       1.0  0.55300  0.00280  0.61220  1.0000
  S   S51       1.0  0.44700  0.50280  0.88780  1.0000
  S   S52       1.0  0.05300  0.49720  0.38780  1.0000
  S   S53       1.0  0.05300  0.00280  0.88780  1.0000
  S   S54       1.0  0.44700  0.99720  0.38780  1.0000
  S   S55       1.0  0.55300  0.49720  0.11220  1.0000
  S   S56       1.0  0.94700  0.50280  0.61220  1.0000
  S   S57       1.0  0.94480  0.12030  0.06040  1.0000
  S   S58       1.0  0.55520  0.87970  0.56040  1.0000
  S   S59       1.0  0.44480  0.37970  0.93960  1.0000
  S   S60       1.0  0.05520  0.62030  0.43960  1.0000
  S   S61       1.0  0.05520  0.87970  0.93960  1.0000
  S   S62       1.0  0.44480  0.12030  0.43960  1.0000
  S   S63       1.0  0.55520  0.62030  0.06040  1.0000
  S   S64       1.0  0.94480  0.37970  0.56040  1.0000
  S   S65       1.0  0.94020  0.25070  0.01180  1.0000
  S   S66       1.0  0.55980  0.74930  0.51180  1.0000
  S   S67       1.0  0.44020  0.24930  0.98820  1.0000
  S   S68       1.0  0.05980  0.75070  0.48820  1.0000
  S   S69       1.0  0.05980  0.74930  0.98820  1.0000
  S   S70       1.0  0.44020  0.25070  0.48820  1.0000
  S   S71       1.0  0.55980  0.75070  0.01180  1.0000
  S   S72       1.0  0.94020  0.24930  0.51180  1.0000
  S   S73       1.0  0.77480  0.32260  0.20740  1.0000
  S   S74       1.0  0.72520  0.67740  0.70740  1.0000
  S   S75       1.0  0.27480  0.17740  0.79260  1.0000
  S   S76       1.0  0.22520  0.82260  0.29260  1.0000
  S   S77       1.0  0.22520  0.67740  0.79260  1.0000
  S   S78       1.0  0.27480  0.32260  0.29260  1.0000
  S   S79       1.0  0.72520  0.82260  0.20740  1.0000
  S   S80       1.0  0.77480  0.17740  0.70740  1.0000
  S   S81       1.0  0.87420  0.20580  0.19230  1.0000
  S   S82       1.0  0.62580  0.79420  0.69230  1.0000
  S   S83       1.0  0.37420  0.29420  0.80770  1.0000
  S   S84       1.0  0.12580  0.70580  0.30770  1.0000
  S   S85       1.0  0.12580  0.79420  0.80770  1.0000
  S   S86       1.0  0.37420  0.20580  0.30770  1.0000
  S   S87       1.0  0.62580  0.70580  0.19230  1.0000
  S   S88       1.0  0.87420  0.29420  0.69230  1.0000
  S   S89       1.0  0.87250  0.33540  0.14180  1.0000
  S   S90       1.0  0.62750  0.66460  0.64180  1.0000
  S   S91       1.0  0.37250  0.16460  0.85820  1.0000
  S   S92       1.0  0.12750  0.83540  0.35820  1.0000
  S   S93       1.0  0.12750  0.66460  0.85820  1.0000
  S   S94       1.0  0.37250  0.33540  0.35820  1.0000
  S   S95       1.0  0.62750  0.83540  0.14180  1.0000
  S   S96       1.0  0.87250  0.16460  0.64180  1.0000
  S   S97       1.0  0.97100  0.08860  0.17750  1.0000
  S   S98       1.0  0.52900  0.91140  0.67750  1.0000
  S   S99       1.0  0.47100  0.41140  0.82250  1.0000
  S   S100      1.0  0.02900  0.58860  0.32250  1.0000
  S   S101      1.0  0.02900  0.91140  0.82250  1.0000
  S   S102      1.0  0.47100  0.08860  0.32250  1.0000
  S   S103      1.0  0.52900  0.58860  0.17750  1.0000
  S   S104      1.0  0.97100  0.41140  0.67750  1.0000
  S   S105      1.0  0.97080  0.21510  0.12650  1.0000
  S   S106      1.0  0.52920  0.78490  0.62650  1.0000
  S   S107      1.0  0.47080  0.28490  0.87350  1.0000
  S   S108      1.0  0.02920  0.71510  0.37350  1.0000
  S   S109      1.0  0.02920  0.78490  0.87350  1.0000
  S   S110      1.0  0.47080  0.21510  0.37350  1.0000
  S   S111      1.0  0.52920  0.71510  0.12650  1.0000
  S   S112      1.0  0.97080  0.28490  0.62650  1.0000
  S   S113      1.0  0.96660  0.34380  0.07730  1.0000
  S   S114      1.0  0.53340  0.65620  0.57730  1.0000
  S   S115      1.0  0.46660  0.15620  0.92270  1.0000
  S   S116      1.0  0.03340  0.84380  0.42270  1.0000
  S   S117      1.0  0.03340  0.65620  0.92270  1.0000
  S   S118      1.0  0.46660  0.34380  0.42270  1.0000
  S   S119      1.0  0.53340  0.84380  0.07730  1.0000
  S   S120      1.0  0.96660  0.15620  0.57730  1.0000
  S   S121      1.0  0.06660  0.97400  0.16000  1.0000
  S   S122      1.0  0.43340  0.02600  0.66000  1.0000
  S   S123      1.0  0.56660  0.52600  0.84000  1.0000
  S   S124      1.0  0.93340  0.47400  0.34000  1.0000
  S   S125      1.0  0.93340  0.02600  0.84000  1.0000
  S   S126      1.0  0.56660  0.97400  0.34000  1.0000
  S   S127      1.0  0.43340  0.47400  0.16000  1.0000
  S   S128      1.0  0.06660  0.52600  0.66000  1.0000
  S   S129      1.0  0.06760  0.09750  0.10840  1.0000
  S   S130      1.0  0.43240  0.90250  0.60840  1.0000
  S   S131      1.0  0.56760  0.40250  0.89160  1.0000
  S   S132      1.0  0.93240  0.59750  0.39160  1.0000
  S   S133      1.0  0.93240  0.90250  0.89160  1.0000
  S   S134      1.0  0.56760  0.09750  0.39160  1.0000
  S   S135      1.0  0.43240  0.59750  0.10840  1.0000
  S   S136      1.0  0.06760  0.40250  0.60840  1.0000
  S   S137      1.0  0.06400  0.21950  0.05810  1.0000
  S   S138      1.0  0.43600  0.78050  0.55810  1.0000
  S   S139      1.0  0.56400  0.28050  0.94190  1.0000
  S   S140      1.0  0.93600  0.71950  0.44190  1.0000
  S   S141      1.0  0.93600  0.78050  0.94190  1.0000
  S   S142      1.0  0.56400  0.21950  0.44190  1.0000
  S   S143      1.0  0.43600  0.71950  0.05810  1.0000
  S   S144      1.0  0.06400  0.28050  0.55810  1.0000
  S   S145      1.0  0.05510  0.34960  0.01120  1.0000
  S   S146      1.0  0.44490  0.65040  0.51120  1.0000
  S   S147      1.0  0.55510  0.15040  0.98880  1.0000
  S   S148      1.0  0.94490  0.84960  0.48880  1.0000
  S   S149      1.0  0.94490  0.65040  0.98880  1.0000
  S   S150      1.0  0.55510  0.34960  0.48880  1.0000
  S   S151      1.0  0.44490  0.84960  0.01120  1.0000
  S   S152      1.0  0.05510  0.15040  0.51120  1.0000
  S   S153      1.0  0.90550  0.29490  0.25780  1.0000
  S   S154      1.0  0.59450  0.70510  0.75780  1.0000
  S   S155      1.0  0.40550  0.20510  0.74220  1.0000
  S   S156      1.0  0.09450  0.79490  0.24220  1.0000
  S   S157      1.0  0.09450  0.70510  0.74220  1.0000
  S   S158      1.0  0.40550  0.29490  0.24220  1.0000
  S   S159      1.0  0.59450  0.79490  0.25780  1.0000
  S   S160      1.0  0.90550  0.20510  0.75780  1.0000
  S   S161      1.0  0.90000  0.42360  0.20670  1.0000
  S   S162      1.0  0.60000  0.57640  0.70670  1.0000
  S   S163      1.0  0.40000  0.07640  0.79330  1.0000
  S   S164      1.0  0.10000  0.92360  0.29330  1.0000
  S   S165      1.0  0.10000  0.57640  0.79330  1.0000
  S   S166      1.0  0.40000  0.42360  0.29330  1.0000
  S   S167      1.0  0.60000  0.92360  0.20670  1.0000
  S   S168      1.0  0.90000  0.07640  0.70670  1.0000
  S   S169      1.0  0.00200  0.18460  0.24110  1.0000
  S   S170      1.0  0.49800  0.81540  0.74110  1.0000
  S   S171      1.0  0.50200  0.31540  0.75890  1.0000
  S   S172      1.0  0.99800  0.68460  0.25890  1.0000
  S   S173      1.0  0.99800  0.81540  0.75890  1.0000
  S   S174      1.0  0.50200  0.18460  0.25890  1.0000
  S   S175      1.0  0.49800  0.68460  0.24110  1.0000
  S   S176      1.0  0.00200  0.31540  0.74110  1.0000
  S   S177      1.0  0.99990  0.30730  0.19210  1.0000
  S   S178      1.0  0.50010  0.69270  0.69210  1.0000
  S   S179      1.0  0.49990  0.19270  0.80790  1.0000
  S   S180      1.0  0.00010  0.80730  0.30790  1.0000
  S   S181      1.0  0.00010  0.69270  0.80790  1.0000
  S   S182      1.0  0.49990  0.30730  0.30790  1.0000
  S   S183      1.0  0.50010  0.80730  0.19210  1.0000
  S   S184      1.0  0.99990  0.19270  0.69210  1.0000
  S   S185      1.0  0.99720  0.43080  0.14370  1.0000
  S   S186      1.0  0.50280  0.56920  0.64370  1.0000
  S   S187      1.0  0.49720  0.06920  0.85630  1.0000
  S   S188      1.0  0.00280  0.93080  0.35630  1.0000
  S   S189      1.0  0.00280  0.56920  0.85630  1.0000
  S   S190      1.0  0.49720  0.43080  0.35630  1.0000
  S   S191      1.0  0.50280  0.93080  0.14370  1.0000
  S   S192      1.0  0.99720  0.06920  0.64370  1.0000
  S   S193      1.0  0.09950  0.06870  0.22480  1.0000
  S   S194      1.0  0.40050  0.93130  0.72480  1.0000
  S   S195      1.0  0.59950  0.43130  0.77520  1.0000
  S   S196      1.0  0.90050  0.56870  0.27520  1.0000
  S   S197      1.0  0.90050  0.93130  0.77520  1.0000
  S   S198      1.0  0.59950  0.06870  0.27520  1.0000
  S   S199      1.0  0.40050  0.56870  0.22480  1.0000
  S   S200      1.0  0.09950  0.43130  0.72480  1.0000
  S   S201      1.0  0.09690  0.19110  0.17560  1.0000
  S   S202      1.0  0.40310  0.80890  0.67560  1.0000
  S   S203      1.0  0.59690  0.30890  0.82440  1.0000
  S   S204      1.0  0.90310  0.69110  0.32440  1.0000
  S   S205      1.0  0.90310  0.80890  0.82440  1.0000
  S   S206      1.0  0.59690  0.19110  0.32440  1.0000
  S   S207      1.0  0.40310  0.69110  0.17560  1.0000
  S   S208      1.0  0.09690  0.30890  0.67560  1.0000
  S   S209      1.0  0.09480  0.31220  0.12560  1.0000
  S   S210      1.0  0.40520  0.68780  0.62560  1.0000
  S   S211      1.0  0.59480  0.18780  0.87440  1.0000
  S   S212      1.0  0.90520  0.81220  0.37440  1.0000
  S   S213      1.0  0.90520  0.68780  0.87440  1.0000
  S   S214      1.0  0.59480  0.31220  0.37440  1.0000
  S   S215      1.0  0.40520  0.81220  0.12560  1.0000
  S   S216      1.0  0.09480  0.18780  0.62560  1.0000
  S   S217      1.0  0.08960  0.43900  0.07970  1.0000
  S   S218      1.0  0.41040  0.56100  0.57970  1.0000
  S   S219      1.0  0.58960  0.06100  0.92030  1.0000
  S   S220      1.0  0.91040  0.93900  0.42030  1.0000
  S   S221      1.0  0.91040  0.56100  0.92030  1.0000
  S   S222      1.0  0.58960  0.43900  0.42030  1.0000
  S   S223      1.0  0.41040  0.93900  0.07970  1.0000
  S   S224      1.0  0.08960  0.06100  0.57970  1.0000
  S   S225      1.0  0.19340  0.07190  0.15500  1.0000
  S   S226      1.0  0.30660  0.92810  0.65500  1.0000
  S   S227      1.0  0.69340  0.42810  0.84500  1.0000
  S   S228      1.0  0.80660  0.57190  0.34500  1.0000
  S   S229      1.0  0.80660  0.92810  0.84500  1.0000
  S   S230      1.0  0.69340  0.07190  0.34500  1.0000
  S   S231      1.0  0.30660  0.57190  0.15500  1.0000
  S   S232      1.0  0.19340  0.42810  0.65500  1.0000
  S   S233      1.0  0.18830  0.19550  0.10770  1.0000
  S   S234      1.0  0.31170  0.80450  0.60770  1.0000
  S   S235      1.0  0.68830  0.30450  0.89230  1.0000
  S   S236      1.0  0.81170  0.69550  0.39230  1.0000
  S   S237      1.0  0.81170  0.80450  0.89230  1.0000
  S   S238      1.0  0.68830  0.19550  0.39230  1.0000
  S   S239      1.0  0.31170  0.69550  0.10770  1.0000
  S   S240      1.0  0.18830  0.30450  0.60770  1.0000
  S   S241      1.0  0.18220  0.31640  0.05730  1.0000
  S   S242      1.0  0.31780  0.68360  0.55730  1.0000
  S   S243      1.0  0.68220  0.18360  0.94270  1.0000
  S   S244      1.0  0.81780  0.81640  0.44270  1.0000
  S   S245      1.0  0.81780  0.68360  0.94270  1.0000
  S   S246      1.0  0.68220  0.31640  0.44270  1.0000
  S   S247      1.0  0.31780  0.81640  0.05730  1.0000
  S   S248      1.0  0.18220  0.18360  0.55730  1.0000
  In  In1       1.0  0.28140  0.40450  0.95408  1.0000
  In  In2       1.0  0.21860  0.59550  0.45408  1.0000
  In  In3       1.0  0.78140  0.09550  0.04592  1.0000
  In  In4       1.0  0.71860  0.90450  0.54592  1.0000
  In  In5       1.0  0.71860  0.59550  0.04592  1.0000
  In  In6       1.0  0.78140  0.40450  0.54592  1.0000
  In  In7       1.0  0.21860  0.90450  0.95408  1.0000
  In  In8       1.0  0.28140  0.09550  0.45408  1.0000
  In  In9       1.0  0.79580  0.18410  0.10745  1.0000
  In  In10      1.0  0.70420  0.81590  0.60745  1.0000
  In  In11      1.0  0.29580  0.31590  0.89255  1.0000
  In  In12      1.0  0.20420  0.68410  0.39255  1.0000
  In  In13      1.0  0.20420  0.81590  0.89255  1.0000
  In  In14      1.0  0.29580  0.18410  0.39255  1.0000
  In  In15      1.0  0.70420  0.68410  0.10745  1.0000
  In  In16      1.0  0.79580  0.31590  0.60745  1.0000
  In  In17      1.0  0.89270  0.06480  0.09075  1.0000
  In  In18      1.0  0.60730  0.93520  0.59075  1.0000
  In  In19      1.0  0.39270  0.43520  0.90925  1.0000
  In  In20      1.0  0.10730  0.56480  0.40925  1.0000
  In  In21      1.0  0.10730  0.93520  0.90925  1.0000
  In  In22      1.0  0.39270  0.06480  0.40925  1.0000
  In  In23      1.0  0.60730  0.56480  0.09075  1.0000
  In  In24      1.0  0.89270  0.43520  0.59075  1.0000
  In  In25      1.0  0.89040  0.19180  0.04053  1.0000
  In  In26      1.0  0.60960  0.80820  0.54053  1.0000
  In  In27      1.0  0.39040  0.30820  0.95947  1.0000
  In  In28      1.0  0.10960  0.69180  0.45947  1.0000
  In  In29      1.0  0.10960  0.80820  0.95947  1.0000
  In  In30      1.0  0.39040  0.19180  0.45947  1.0000
  In  In31      1.0  0.60960  0.69180  0.04053  1.0000
  In  In32      1.0  0.89040  0.30820  0.54053  1.0000
  In  In33      1.0  0.82010  0.27320  0.17117  1.0000
  In  In34      1.0  0.67990  0.72680  0.67117  1.0000
  In  In35      1.0  0.32010  0.22680  0.82883  1.0000
  In  In36      1.0  0.17990  0.77320  0.32883  1.0000
  In  In37      1.0  0.17990  0.72680  0.82883  1.0000
  In  In38      1.0  0.32010  0.27320  0.32883  1.0000
  In  In39      1.0  0.67990  0.77320  0.17117  1.0000
  In  In40      1.0  0.82010  0.22680  0.67117  1.0000
  In  In41      1.0  0.01220  0.04160  0.13899  1.0000
  In  In42      1.0  0.48780  0.95840  0.63899  1.0000
  In  In43      1.0  0.51220  0.45840  0.86101  1.0000
  In  In44      1.0  0.98780  0.54160  0.36101  1.0000
  In  In45      1.0  0.98780  0.95840  0.86101  1.0000
  In  In46      1.0  0.51220  0.04160  0.36101  1.0000
  In  In47      1.0  0.48780  0.54160  0.13899  1.0000
  In  In48      1.0  0.01220  0.45840  0.63899  1.0000
  In  In49      1.0  0.00620  0.28910  0.03969  1.0000
  In  In50      1.0  0.49380  0.71090  0.53969  1.0000
  In  In51      1.0  0.50620  0.21090  0.96031  1.0000
  In  In52      1.0  0.99380  0.78910  0.46031  1.0000
  In  In53      1.0  0.99380  0.71090  0.96031  1.0000
  In  In54      1.0  0.50620  0.28910  0.46031  1.0000
  In  In55      1.0  0.49380  0.78910  0.03969  1.0000
  In  In56      1.0  0.00620  0.21090  0.53969  1.0000
  In  In57      1.0  0.85120  0.35620  0.23086  1.0000
  In  In58      1.0  0.64880  0.64380  0.73086  1.0000
  In  In59      1.0  0.35120  0.14380  0.76914  1.0000
  In  In60      1.0  0.14880  0.85620  0.26914  1.0000
  In  In61      1.0  0.14880  0.64380  0.76914  1.0000
  In  In62      1.0  0.35120  0.35620  0.26914  1.0000
  In  In63      1.0  0.64880  0.85620  0.23086  1.0000
  In  In64      1.0  0.85120  0.14380  0.73086  1.0000
  In  In65      1.0  0.94480  0.24790  0.22006  1.0000
  In  In66      1.0  0.55520  0.75210  0.72006  1.0000
  In  In67      1.0  0.44480  0.25210  0.77994  1.0000
  In  In68      1.0  0.05520  0.74790  0.27994  1.0000
  In  In69      1.0  0.05520  0.75210  0.77994  1.0000
  In  In70      1.0  0.44480  0.24790  0.27994  1.0000
  In  In71      1.0  0.55520  0.74790  0.22006  1.0000
  In  In72      1.0  0.94480  0.25210  0.72006  1.0000
  In  In73      1.0  0.94251  0.37400  0.17059  1.0000
  In  In74      1.0  0.55749  0.62600  0.67059  1.0000
  In  In75      1.0  0.44251  0.12600  0.82941  1.0000
  In  In76      1.0  0.05749  0.87400  0.32941  1.0000
  In  In77      1.0  0.05749  0.62600  0.82941  1.0000
  In  In78      1.0  0.44251  0.37400  0.32941  1.0000
  In  In79      1.0  0.55749  0.87400  0.17059  1.0000
  In  In80      1.0  0.94251  0.12600  0.67059  1.0000
  In  In81      1.0  0.04042  0.13400  0.20409  1.0000
  In  In82      1.0  0.45958  0.86600  0.70409  1.0000
  In  In83      1.0  0.54042  0.36600  0.79591  1.0000
  In  In84      1.0  0.95958  0.63400  0.29591  1.0000
  In  In85      1.0  0.95958  0.86600  0.79591  1.0000
  In  In86      1.0  0.54042  0.13400  0.29591  1.0000
  In  In87      1.0  0.45958  0.63400  0.20409  1.0000
  In  In88      1.0  0.04042  0.36600  0.70409  1.0000
  In  In89      1.0  0.03614  0.38180  0.10688  1.0000
  In  In90      1.0  0.46386  0.61820  0.60688  1.0000
  In  In91      1.0  0.53614  0.11820  0.89312  1.0000
  In  In92      1.0  0.96386  0.88180  0.39312  1.0000
  In  In93      1.0  0.96386  0.61820  0.89312  1.0000
  In  In94      1.0  0.53614  0.38180  0.39312  1.0000
  In  In95      1.0  0.46386  0.88180  0.10688  1.0000
  In  In96      1.0  0.03614  0.11820  0.60688  1.0000
  In  In97      1.0  0.13080  0.02740  0.18340  1.0000
  In  In98      1.0  0.36920  0.97260  0.68340  1.0000
  In  In99      1.0  0.63080  0.47260  0.81660  1.0000
  In  In100     1.0  0.86920  0.52740  0.31660  1.0000
  In  In101     1.0  0.86920  0.97260  0.81660  1.0000
  In  In102     1.0  0.63080  0.02740  0.31660  1.0000
  In  In103     1.0  0.36920  0.52740  0.18340  1.0000
  In  In104     1.0  0.13080  0.47260  0.68340  1.0000
  In  In105     1.0  0.13505  0.13960  0.13592  1.0000
  In  In106     1.0  0.36495  0.86040  0.63592  1.0000
  In  In107     1.0  0.63505  0.36040  0.86408  1.0000
  In  In108     1.0  0.86495  0.63960  0.36408  1.0000
  In  In109     1.0  0.86495  0.86040  0.86408  1.0000
  In  In110     1.0  0.63505  0.13960  0.36408  1.0000
  In  In111     1.0  0.36495  0.63960  0.13592  1.0000
  In  In112     1.0  0.13505  0.36040  0.63592  1.0000
  In  In113     1.0  0.13053  0.26010  0.08680  1.0000
  In  In114     1.0  0.36947  0.73990  0.58680  1.0000
  In  In115     1.0  0.63053  0.23990  0.91320  1.0000
  In  In116     1.0  0.86947  0.76010  0.41320  1.0000
  In  In117     1.0  0.86947  0.73990  0.91320  1.0000
  In  In118     1.0  0.63053  0.26010  0.41320  1.0000
  In  In119     1.0  0.36947  0.76010  0.08680  1.0000
  In  In120     1.0  0.13053  0.23990  0.58680  1.0000
  In  In121     1.0  0.11870  0.38070  0.04422  1.0000
  In  In122     1.0  0.38130  0.61930  0.54422  1.0000
  In  In123     1.0  0.61870  0.11930  0.95578  1.0000
  In  In124     1.0  0.88130  0.88070  0.45578  1.0000
  In  In125     1.0  0.88130  0.61930  0.95578  1.0000
  In  In126     1.0  0.61870  0.38070  0.45578  1.0000
  In  In127     1.0  0.38130  0.88070  0.04422  1.0000
  In  In128     1.0  0.11870  0.11930  0.54422  1.0000
  N   N1        1.0  0.22500  0.43400  0.98400  1.0000
  N   N2        1.0  0.27500  0.56600  0.48400  1.0000
  N   N3        1.0  0.72500  0.06600  0.01600  1.0000
  N   N4        1.0  0.77500  0.93400  0.51600  1.0000
  N   N5        1.0  0.77500  0.56600  0.01600  1.0000
  N   N6        1.0  0.72500  0.43400  0.51600  1.0000
  N   N7        1.0  0.27500  0.93400  0.98400  1.0000
  N   N8        1.0  0.22500  0.06600  0.48400  1.0000
  N   N9        1.0  0.17200  0.43000  0.01570  1.0000
  N   N10       1.0  0.32800  0.57000  0.51570  1.0000
  N   N11       1.0  0.67200  0.07000  0.98430  1.0000
  N   N12       1.0  0.82800  0.93000  0.48430  1.0000
  N   N13       1.0  0.82800  0.57000  0.98430  1.0000
  N   N14       1.0  0.67200  0.43000  0.48430  1.0000
  N   N15       1.0  0.32800  0.93000  0.01570  1.0000
  N   N16       1.0  0.17200  0.07000  0.51570  1.0000
  N   N17       1.0  0.18300  0.90700  0.23910  1.0000
  N   N18       1.0  0.31700  0.09300  0.73910  1.0000
  N   N19       1.0  0.68300  0.59300  0.76090  1.0000
  N   N20       1.0  0.81700  0.40700  0.26090  1.0000
  N   N21       1.0  0.81700  0.09300  0.76090  1.0000
  N   N22       1.0  0.68300  0.90700  0.26090  1.0000
  N   N23       1.0  0.31700  0.40700  0.23910  1.0000
  N   N24       1.0  0.18300  0.59300  0.73910  1.0000
  N   N25       1.0  0.17200  0.96700  0.20530  1.0000
  N   N26       1.0  0.32800  0.03300  0.70530  1.0000
  N   N27       1.0  0.67200  0.53300  0.79470  1.0000
  N   N28       1.0  0.82800  0.46700  0.29470  1.0000
  N   N29       1.0  0.82800  0.03300  0.79470  1.0000
  N   N30       1.0  0.67200  0.96700  0.29470  1.0000
  N   N31       1.0  0.32800  0.46700  0.20530  1.0000
  N   N32       1.0  0.17200  0.53300  0.70530  1.0000
  C   C1        1.0  0.20700  0.40800  0.00370  1.0000
  C   C2        1.0  0.29300  0.59200  0.50370  1.0000
  C   C3        1.0  0.70700  0.09200  0.99630  1.0000
  C   C4        1.0  0.79300  0.90800  0.49630  1.0000
  C   C5        1.0  0.79300  0.59200  0.99630  1.0000
  C   C6        1.0  0.70700  0.40800  0.49630  1.0000
  C   C7        1.0  0.29300  0.90800  0.00370  1.0000
  C   C8        1.0  0.20700  0.09200  0.50370  1.0000
  H   H1        1.0  0.21860  0.37430  0.00860  1.0000
  H   H2        1.0  0.28140  0.62570  0.50860  1.0000
  H   H3        1.0  0.71860  0.12570  0.99140  1.0000
  H   H4        1.0  0.78140  0.87430  0.49140  1.0000
  H   H5        1.0  0.78140  0.62570  0.99140  1.0000
  H   H6        1.0  0.71860  0.37430  0.49140  1.0000
  H   H7        1.0  0.28140  0.87430  0.00860  1.0000
  H   H8        1.0  0.21860  0.12570  0.50860  1.0000
  C   C9        1.0  0.20200  0.47900  0.98580  1.0000
  C   C10       1.0  0.29800  0.52100  0.48580  1.0000
  C   C11       1.0  0.70200  0.02100  0.01420  1.0000
  C   C12       1.0  0.79800  0.97900  0.51420  1.0000
  C   C13       1.0  0.79800  0.52100  0.01420  1.0000
  C   C14       1.0  0.70200  0.47900  0.51420  1.0000
  C   C15       1.0  0.29800  0.97900  0.98580  1.0000
  C   C16       1.0  0.20200  0.02100  0.48580  1.0000
  C   C17       1.0  0.19900  0.53000  0.97060  1.0000
  C   C18       1.0  0.30100  0.47000  0.47060  1.0000
  C   C19       1.0  0.69900  0.97000  0.02940  1.0000
  C   C20       1.0  0.80100  0.03000  0.52940  1.0000
  C   C21       1.0  0.80100  0.47000  0.02940  1.0000
  C   C22       1.0  0.69900  0.53000  0.52940  1.0000
  C   C23       1.0  0.30100  0.03000  0.97060  1.0000
  C   C24       1.0  0.19900  0.97000  0.47060  1.0000
  H   H9        1.0  0.22180  0.53610  0.95540  1.0000
  H   H10       1.0  0.27820  0.46390  0.45540  1.0000
  H   H11       1.0  0.72180  0.96390  0.04460  1.0000
  H   H12       1.0  0.77820  0.03610  0.54460  1.0000
  H   H13       1.0  0.77820  0.46390  0.04460  1.0000
  H   H14       1.0  0.72180  0.53610  0.54460  1.0000
  H   H15       1.0  0.27820  0.03610  0.95540  1.0000
  H   H16       1.0  0.22180  0.96390  0.45540  1.0000
  C   C25       1.0  0.16300  0.56900  0.97890  1.0000
  C   C26       1.0  0.33700  0.43100  0.47890  1.0000
  C   C27       1.0  0.66300  0.93100  0.02110  1.0000
  C   C28       1.0  0.83700  0.06900  0.52110  1.0000
  C   C29       1.0  0.83700  0.43100  0.02110  1.0000
  C   C30       1.0  0.66300  0.56900  0.52110  1.0000
  C   C31       1.0  0.33700  0.06900  0.97890  1.0000
  C   C32       1.0  0.16300  0.93100  0.47890  1.0000
  C   C33       1.0  0.12700  0.54900  0.00300  1.0000
  C   C34       1.0  0.37300  0.45100  0.50300  1.0000
  C   C35       1.0  0.62700  0.95100  0.99700  1.0000
  C   C36       1.0  0.87300  0.04900  0.49700  1.0000
  C   C37       1.0  0.87300  0.45100  0.99700  1.0000
  C   C38       1.0  0.62700  0.54900  0.49700  1.0000
  C   C39       1.0  0.37300  0.04900  0.00300  1.0000
  C   C40       1.0  0.12700  0.95100  0.50300  1.0000
  C   C41       1.0  0.12400  0.50800  0.01300  1.0000
  C   C42       1.0  0.37600  0.49200  0.51300  1.0000
  C   C43       1.0  0.62400  0.99200  0.98700  1.0000
  C   C44       1.0  0.87600  0.00800  0.48700  1.0000
  C   C45       1.0  0.87600  0.49200  0.98700  1.0000
  C   C46       1.0  0.62400  0.50800  0.48700  1.0000
  C   C47       1.0  0.37600  0.00800  0.01300  1.0000
  C   C48       1.0  0.12400  0.99200  0.51300  1.0000
  H   H17       1.0  0.09720  0.50010  0.02530  1.0000
  H   H18       1.0  0.40280  0.49990  0.52530  1.0000
  H   H19       1.0  0.59720  0.99990  0.97470  1.0000
  H   H20       1.0  0.90280  0.00010  0.47470  1.0000
  H   H21       1.0  0.90280  0.49990  0.97470  1.0000
  H   H22       1.0  0.59720  0.50010  0.47470  1.0000
  H   H23       1.0  0.40280  0.00010  0.02530  1.0000
  H   H24       1.0  0.09720  0.99990  0.52530  1.0000
  C   C49       1.0  0.15600  0.47700  0.00500  1.0000
  C   C50       1.0  0.34400  0.52300  0.50500  1.0000
  C   C51       1.0  0.65600  0.02300  0.99500  1.0000
  C   C52       1.0  0.84400  0.97700  0.49500  1.0000
  C   C53       1.0  0.84400  0.52300  0.99500  1.0000
  C   C54       1.0  0.65600  0.47700  0.49500  1.0000
  C   C55       1.0  0.34400  0.97700  0.00500  1.0000
  C   C56       1.0  0.15600  0.02300  0.50500  1.0000
  C   C57       1.0  0.17000  0.62100  0.96450  1.0000
  C   C58       1.0  0.33000  0.37900  0.46450  1.0000
  C   C59       1.0  0.67000  0.87900  0.03550  1.0000
  C   C60       1.0  0.83000  0.12100  0.53550  1.0000
  C   C61       1.0  0.83000  0.37900  0.03550  1.0000
  C   C62       1.0  0.67000  0.62100  0.53550  1.0000
  C   C63       1.0  0.33000  0.12100  0.96450  1.0000
  C   C64       1.0  0.17000  0.87900  0.46450  1.0000
  H   H25       1.0  0.20650  0.62940  0.96280  1.0000
  H   H26       1.0  0.29350  0.37060  0.46280  1.0000
  H   H27       1.0  0.70650  0.87060  0.03720  1.0000
  H   H28       1.0  0.79350  0.12940  0.53720  1.0000
  H   H29       1.0  0.79350  0.37060  0.03720  1.0000
  H   H30       1.0  0.70650  0.62940  0.53720  1.0000
  H   H31       1.0  0.29350  0.12940  0.96280  1.0000
  H   H32       1.0  0.20650  0.87060  0.46280  1.0000
  H   H33       1.0  0.15230  0.64840  0.97530  1.0000
  H   H34       1.0  0.34770  0.35160  0.47530  1.0000
  H   H35       1.0  0.65230  0.85160  0.02470  1.0000
  H   H36       1.0  0.84770  0.14840  0.52470  1.0000
  H   H37       1.0  0.84770  0.35160  0.02470  1.0000
  H   H38       1.0  0.65230  0.64840  0.52470  1.0000
  H   H39       1.0  0.34770  0.14840  0.97530  1.0000
  H   H40       1.0  0.15230  0.85160  0.47530  1.0000
  H   H41       1.0  0.15390  0.61940  0.94600  1.0000
  H   H42       1.0  0.34610  0.38060  0.44600  1.0000
  H   H43       1.0  0.65390  0.88060  0.05400  1.0000
  H   H44       1.0  0.84610  0.11940  0.55400  1.0000
  H   H45       1.0  0.84610  0.38060  0.05400  1.0000
  H   H46       1.0  0.65390  0.61940  0.55400  1.0000
  H   H47       1.0  0.34610  0.11940  0.94600  1.0000
  H   H48       1.0  0.15390  0.88060  0.44600  1.0000
  C   C65       1.0  0.09100  0.60000  0.00600  1.0000
  C   C66       1.0  0.40900  0.40000  0.50600  1.0000
  C   C67       1.0  0.59100  0.90000  0.99400  1.0000
  C   C68       1.0  0.90900  0.10000  0.49400  1.0000
  C   C69       1.0  0.90900  0.40000  0.99400  1.0000
  C   C70       1.0  0.59100  0.60000  0.49400  1.0000
  C   C71       1.0  0.40900  0.10000  0.00600  1.0000
  C   C72       1.0  0.09100  0.90000  0.50600  1.0000
  H   H49       1.0  0.05790  0.59470  0.99660  1.0000
  H   H50       1.0  0.44210  0.40530  0.49660  1.0000
  H   H51       1.0  0.55790  0.90530  0.00340  1.0000
  H   H52       1.0  0.94210  0.09470  0.50340  1.0000
  H   H53       1.0  0.94210  0.40530  0.00340  1.0000
  H   H54       1.0  0.55790  0.59470  0.50340  1.0000
  H   H55       1.0  0.44210  0.09470  0.99660  1.0000
  H   H56       1.0  0.05790  0.90530  0.49660  1.0000
  H   H57       1.0  0.10860  0.63060  0.99820  1.0000
  H   H58       1.0  0.39140  0.36940  0.49820  1.0000
  H   H59       1.0  0.60860  0.86940  0.00180  1.0000
  H   H60       1.0  0.89140  0.13060  0.50180  1.0000
  H   H61       1.0  0.89140  0.36940  0.00180  1.0000
  H   H62       1.0  0.60860  0.63060  0.50180  1.0000
  H   H63       1.0  0.39140  0.13060  0.99820  1.0000
  H   H64       1.0  0.10860  0.86940  0.49820  1.0000
  H   H65       1.0  0.08400  0.60710  0.02590  1.0000
  H   H66       1.0  0.41600  0.39290  0.52590  1.0000
  H   H67       1.0  0.58400  0.89290  0.97410  1.0000
  H   H68       1.0  0.91600  0.10710  0.47410  1.0000
  H   H69       1.0  0.91600  0.39290  0.97410  1.0000
  H   H70       1.0  0.58400  0.60710  0.47410  1.0000
  H   H71       1.0  0.41600  0.10710  0.02590  1.0000
  H   H72       1.0  0.08400  0.89290  0.52590  1.0000
  C   C73       1.0  0.15900  0.94500  0.22490  1.0000
  C   C74       1.0  0.34100  0.05500  0.72490  1.0000
  C   C75       1.0  0.65900  0.55500  0.77510  1.0000
  C   C76       1.0  0.84100  0.44500  0.27510  1.0000
  C   C77       1.0  0.84100  0.05500  0.77510  1.0000
  C   C78       1.0  0.65900  0.94500  0.27510  1.0000
  C   C79       1.0  0.34100  0.44500  0.22490  1.0000
  C   C80       1.0  0.15900  0.55500  0.72490  1.0000
  H   H73       1.0  0.12640  0.95590  0.23210  1.0000
  H   H74       1.0  0.37360  0.04410  0.73210  1.0000
  H   H75       1.0  0.62640  0.54410  0.76790  1.0000
  H   H76       1.0  0.87360  0.45590  0.26790  1.0000
  H   H77       1.0  0.87360  0.04410  0.76790  1.0000
  H   H78       1.0  0.62640  0.95590  0.26790  1.0000
  H   H79       1.0  0.37360  0.45590  0.23210  1.0000
  H   H80       1.0  0.12640  0.54410  0.73210  1.0000
  C   C81       1.0  0.22100  0.90900  0.22350  1.0000
  C   C82       1.0  0.27900  0.09100  0.72350  1.0000
  C   C83       1.0  0.72100  0.59100  0.77650  1.0000
  C   C84       1.0  0.77900  0.40900  0.27650  1.0000
  C   C85       1.0  0.77900  0.09100  0.77650  1.0000
  C   C86       1.0  0.72100  0.90900  0.27650  1.0000
  C   C87       1.0  0.27900  0.40900  0.22350  1.0000
  C   C88       1.0  0.22100  0.59100  0.72350  1.0000
  C   C89       1.0  0.26500  0.87300  0.22540  1.0000
  C   C90       1.0  0.23500  0.12700  0.72540  1.0000
  C   C91       1.0  0.76500  0.62700  0.77460  1.0000
  C   C92       1.0  0.73500  0.37300  0.27460  1.0000
  C   C93       1.0  0.73500  0.12700  0.77460  1.0000
  C   C94       1.0  0.76500  0.87300  0.27460  1.0000
  C   C95       1.0  0.23500  0.37300  0.22540  1.0000
  C   C96       1.0  0.26500  0.62700  0.72540  1.0000
  H   H81       1.0  0.26790  0.84800  0.23990  1.0000
  H   H82       1.0  0.23210  0.15200  0.73990  1.0000
  H   H83       1.0  0.76790  0.65200  0.76010  1.0000
  H   H84       1.0  0.73210  0.34800  0.26010  1.0000
  H   H85       1.0  0.73210  0.15200  0.76010  1.0000
  H   H86       1.0  0.76790  0.84800  0.26010  1.0000
  H   H87       1.0  0.23210  0.34800  0.23990  1.0000
  H   H88       1.0  0.26790  0.65200  0.73990  1.0000
  C   C97       1.0  0.31200  0.87700  0.20110  1.0000
  C   C98       1.0  0.18800  0.12300  0.70110  1.0000
  C   C99       1.0  0.81200  0.62300  0.79890  1.0000
  C   C100      1.0  0.68800  0.37700  0.29890  1.0000
  C   C101      1.0  0.68800  0.12300  0.79890  1.0000
  C   C102      1.0  0.81200  0.87700  0.29890  1.0000
  C   C103      1.0  0.18800  0.37700  0.20110  1.0000
  C   C104      1.0  0.31200  0.62300  0.70110  1.0000
  C   C105      1.0  0.32200  0.93200  0.18700  1.0000
  C   C106      1.0  0.17800  0.06800  0.68700  1.0000
  C   C107      1.0  0.82200  0.56800  0.81300  1.0000
  C   C108      1.0  0.67800  0.43200  0.31300  1.0000
  C   C109      1.0  0.67800  0.06800  0.81300  1.0000
  C   C110      1.0  0.82200  0.93200  0.31300  1.0000
  C   C111      1.0  0.17800  0.43200  0.18700  1.0000
  C   C112      1.0  0.32200  0.56800  0.68700  1.0000
  C   C113      1.0  0.26100  0.95700  0.18400  1.0000
  C   C114      1.0  0.23900  0.04300  0.68400  1.0000
  C   C115      1.0  0.76100  0.54300  0.81600  1.0000
  C   C116      1.0  0.73900  0.45700  0.31600  1.0000
  C   C117      1.0  0.73900  0.04300  0.81600  1.0000
  C   C118      1.0  0.76100  0.95700  0.31600  1.0000
  C   C119      1.0  0.23900  0.45700  0.18400  1.0000
  C   C120      1.0  0.26100  0.54300  0.68400  1.0000
  H   H89       1.0  0.25480  0.97930  0.16850  1.0000
  H   H90       1.0  0.24520  0.02070  0.66850  1.0000
  H   H91       1.0  0.75480  0.52070  0.83150  1.0000
  H   H92       1.0  0.74520  0.47930  0.33150  1.0000
  H   H93       1.0  0.74520  0.02070  0.83150  1.0000
  H   H94       1.0  0.75480  0.97930  0.33150  1.0000
  H   H95       1.0  0.24520  0.47930  0.16850  1.0000
  H   H96       1.0  0.25480  0.52070  0.66850  1.0000
  C   C121      1.0  0.21800  0.94600  0.20270  1.0000
  C   C122      1.0  0.28200  0.05400  0.70270  1.0000
  C   C123      1.0  0.71800  0.55400  0.79730  1.0000
  C   C124      1.0  0.78200  0.44600  0.29730  1.0000
  C   C125      1.0  0.78200  0.05400  0.79730  1.0000
  C   C126      1.0  0.71800  0.94600  0.29730  1.0000
  C   C127      1.0  0.28200  0.44600  0.20270  1.0000
  C   C128      1.0  0.21800  0.55400  0.70270  1.0000
  C   C129      1.0  0.36500  0.84300  0.20000  1.0000
  C   C130      1.0  0.13500  0.15700  0.70000  1.0000
  C   C131      1.0  0.86500  0.65700  0.80000  1.0000
  C   C132      1.0  0.63500  0.34300  0.30000  1.0000
  C   C133      1.0  0.63500  0.15700  0.80000  1.0000
  C   C134      1.0  0.86500  0.84300  0.30000  1.0000
  C   C135      1.0  0.13500  0.34300  0.20000  1.0000
  C   C136      1.0  0.36500  0.65700  0.70000  1.0000
  H   H97       1.0  0.39450  0.86660  0.19630  1.0000
  H   H98       1.0  0.10550  0.13340  0.69630  1.0000
  H   H99       1.0  0.89450  0.63340  0.80370  1.0000
  H   H100      1.0  0.60550  0.36660  0.30370  1.0000
  H   H101      1.0  0.60550  0.13340  0.80370  1.0000
  H   H102      1.0  0.89450  0.86660  0.30370  1.0000
  H   H103      1.0  0.10550  0.36660  0.19630  1.0000
  H   H104      1.0  0.39450  0.63340  0.69630  1.0000
  H   H105      1.0  0.36260  0.81760  0.18500  1.0000
  H   H106      1.0  0.13740  0.18240  0.68500  1.0000
  H   H107      1.0  0.86260  0.68240  0.81500  1.0000
  H   H108      1.0  0.63740  0.31760  0.31500  1.0000
  H   H109      1.0  0.63740  0.18240  0.81500  1.0000
  H   H110      1.0  0.86260  0.81760  0.31500  1.0000
  H   H111      1.0  0.13740  0.31760  0.18500  1.0000
  H   H112      1.0  0.36260  0.68240  0.68500  1.0000
  H   H113      1.0  0.37030  0.82550  0.21760  1.0000
  H   H114      1.0  0.12970  0.17450  0.71760  1.0000
  H   H115      1.0  0.87030  0.67450  0.78240  1.0000
  H   H116      1.0  0.62970  0.32550  0.28240  1.0000
  H   H117      1.0  0.62970  0.17450  0.78240  1.0000
  H   H118      1.0  0.87030  0.82550  0.28240  1.0000
  H   H119      1.0  0.12970  0.32550  0.21760  1.0000
  H   H120      1.0  0.37030  0.67450  0.71760  1.0000
  C   C137      1.0  0.36500  0.92400  0.17200  1.0000
  C   C138      1.0  0.13500  0.07600  0.67200  1.0000
  C   C139      1.0  0.86500  0.57600  0.82800  1.0000
  C   C140      1.0  0.63500  0.42400  0.32800  1.0000
  C   C141      1.0  0.63500  0.07600  0.82800  1.0000
  C   C142      1.0  0.86500  0.92400  0.32800  1.0000
  C   C143      1.0  0.13500  0.42400  0.17200  1.0000
  C   C144      1.0  0.36500  0.57600  0.67200  1.0000
  H   H121      1.0  0.37850  0.95740  0.16500  1.0000
  H   H122      1.0  0.12150  0.04260  0.66500  1.0000
  H   H123      1.0  0.87850  0.54260  0.83500  1.0000
  H   H124      1.0  0.62150  0.45740  0.33500  1.0000
  H   H125      1.0  0.62150  0.04260  0.83500  1.0000
  H   H126      1.0  0.87850  0.95740  0.33500  1.0000
  H   H127      1.0  0.12150  0.45740  0.16500  1.0000
  H   H128      1.0  0.37850  0.54260  0.66500  1.0000
  H   H129      1.0  0.35630  0.90190  0.15570  1.0000
  H   H130      1.0  0.14370  0.09810  0.65570  1.0000
  H   H131      1.0  0.85630  0.59810  0.84430  1.0000
  H   H132      1.0  0.64370  0.40190  0.34430  1.0000
  H   H133      1.0  0.64370  0.09810  0.84430  1.0000
  H   H134      1.0  0.85630  0.90190  0.34430  1.0000
  H   H135      1.0  0.14370  0.40190  0.15570  1.0000
  H   H136      1.0  0.35630  0.59810  0.65570  1.0000
  H   H137      1.0  0.39170  0.90650  0.18280  1.0000
  H   H138      1.0  0.10830  0.09350  0.68280  1.0000
  H   H139      1.0  0.89170  0.59350  0.81720  1.0000
  H   H140      1.0  0.60830  0.40650  0.31720  1.0000
  H   H141      1.0  0.60830  0.09350  0.81720  1.0000
  H   H142      1.0  0.89170  0.90650  0.31720  1.0000
  H   H143      1.0  0.10830  0.40650  0.18280  1.0000
  H   H144      1.0  0.39170  0.59350  0.68280  1.0000
