data_image0
_chemical_formula_structural       Eu4Br4O24C8H4C4H4C12H4C4H4C4H4C4H4C16
_chemical_formula_sum              "Eu4 Br4 O24 C52 H24"
_cell_length_a       9.9325
_cell_length_b       12.7089
_cell_length_c       16.2027
_cell_angle_alpha    90
_cell_angle_beta     96.236
_cell_angle_gamma    90

_space_group_name_H-M_alt    "P 1"
_space_group_IT_number       1

loop_
  _space_group_symop_operation_xyz
  'x, y, z'

loop_
  _atom_site_type_symbol
  _atom_site_label
  _atom_site_symmetry_multiplicity
  _atom_site_fract_x
  _atom_site_fract_y
  _atom_site_fract_z
  _atom_site_occupancy
  Eu  Eu1       1.0  0.30590  0.04326  0.99499  1.0000
  Eu  Eu2       1.0  0.69410  0.54326  0.50501  1.0000
  Eu  Eu3       1.0  0.69410  0.95674  0.00501  1.0000
  Eu  Eu4       1.0  0.30590  0.45674  0.49499  1.0000
  Br  Br1       1.0  0.21940  0.25498  0.98350  1.0000
  Br  Br2       1.0  0.78060  0.75498  0.51650  1.0000
  Br  Br3       1.0  0.78060  0.74502  0.01650  1.0000
  Br  Br4       1.0  0.21940  0.24502  0.48350  1.0000
  O   O1        1.0  0.41360  0.04410  0.13260  1.0000
  O   O2        1.0  0.58640  0.54410  0.36740  1.0000
  O   O3        1.0  0.58640  0.95590  0.86740  1.0000
  O   O4        1.0  0.41360  0.45590  0.63260  1.0000
  O   O5        1.0  0.63720  0.02280  0.13370  1.0000
  O   O6        1.0  0.36280  0.52280  0.36630  1.0000
  O   O7        1.0  0.36280  0.97720  0.86630  1.0000
  O   O8        1.0  0.63720  0.47720  0.63370  1.0000
  O   O9        1.0  0.73330  0.35810  0.47700  1.0000
  O   O10       1.0  0.26670  0.85810  0.02300  1.0000
  O   O11       1.0  0.26670  0.64190  0.52300  1.0000
  O   O12       1.0  0.73330  0.14190  0.97700  1.0000
  O   O13       1.0  0.51360  0.37640  0.47310  1.0000
  O   O14       1.0  0.48640  0.87640  0.02690  1.0000
  O   O15       1.0  0.48640  0.62360  0.52690  1.0000
  O   O16       1.0  0.51360  0.12360  0.97310  1.0000
  O   O17       1.0  0.09560  0.99910  0.91590  1.0000
  O   O18       1.0  0.90440  0.49910  0.58410  1.0000
  O   O19       1.0  0.90440  0.00090  0.08410  1.0000
  O   O20       1.0  0.09560  0.50090  0.41590  1.0000
  O   O21       1.0  0.87720  0.96190  0.92060  1.0000
  O   O22       1.0  0.12280  0.46190  0.57940  1.0000
  O   O23       1.0  0.12280  0.03810  0.07940  1.0000
  O   O24       1.0  0.87720  0.53810  0.42060  1.0000
  C   C1        1.0  0.55440  0.10700  0.24920  1.0000
  C   C2        1.0  0.44560  0.60700  0.25080  1.0000
  C   C3        1.0  0.44560  0.89300  0.75080  1.0000
  C   C4        1.0  0.55440  0.39300  0.74920  1.0000
  C   C5        1.0  0.45770  0.17690  0.26500  1.0000
  C   C6        1.0  0.54230  0.67690  0.23500  1.0000
  C   C7        1.0  0.54230  0.82310  0.73500  1.0000
  C   C8        1.0  0.45770  0.32310  0.76500  1.0000
  H   H1        1.0  0.37720  0.17990  0.22990  1.0000
  H   H2        1.0  0.62280  0.67990  0.27010  1.0000
  H   H3        1.0  0.62280  0.82010  0.77010  1.0000
  H   H4        1.0  0.37720  0.32010  0.72990  1.0000
  C   C9        1.0  0.47730  0.24610  0.33460  1.0000
  C   C10       1.0  0.52270  0.74610  0.16540  1.0000
  C   C11       1.0  0.52270  0.75390  0.66540  1.0000
  C   C12       1.0  0.47730  0.25390  0.83460  1.0000
  H   H5        1.0  0.40920  0.29300  0.34480  1.0000
  H   H6        1.0  0.59080  0.79300  0.15520  1.0000
  H   H7        1.0  0.59080  0.70700  0.65520  1.0000
  H   H8        1.0  0.40920  0.20700  0.84480  1.0000
  C   C13       1.0  0.59470  0.24400  0.38630  1.0000
  C   C14       1.0  0.40530  0.74400  0.11370  1.0000
  C   C15       1.0  0.40530  0.75600  0.61370  1.0000
  C   C16       1.0  0.59470  0.25600  0.88630  1.0000
  C   C17       1.0  0.69610  0.16630  0.37460  1.0000
  C   C18       1.0  0.30390  0.66630  0.12540  1.0000
  C   C19       1.0  0.30390  0.83370  0.62540  1.0000
  C   C20       1.0  0.69610  0.33370  0.87460  1.0000
  C   C21       1.0  0.81730  0.15520  0.42910  1.0000
  C   C22       1.0  0.18270  0.65520  0.07090  1.0000
  C   C23       1.0  0.18270  0.84480  0.57090  1.0000
  C   C24       1.0  0.81730  0.34480  0.92910  1.0000
  H   H9        1.0  0.83400  0.20150  0.47340  1.0000
  H   H10       1.0  0.16600  0.70150  0.02660  1.0000
  H   H11       1.0  0.16600  0.79850  0.52660  1.0000
  H   H12       1.0  0.83400  0.29850  0.97340  1.0000
  C   C25       1.0  0.90990  0.07880  0.41840  1.0000
  C   C26       1.0  0.09010  0.57880  0.08160  1.0000
  C   C27       1.0  0.09010  0.92120  0.58160  1.0000
  C   C28       1.0  0.90990  0.42120  0.91840  1.0000
  H   H13       1.0  0.99060  0.07540  0.45320  1.0000
  H   H14       1.0  0.00940  0.57540  0.04680  1.0000
  H   H15       1.0  0.00940  0.92460  0.54680  1.0000
  H   H16       1.0  0.99060  0.42460  0.95320  1.0000
  C   C29       1.0  0.88210  0.00480  0.35390  1.0000
  C   C30       1.0  0.11790  0.50480  0.14610  1.0000
  C   C31       1.0  0.11790  0.99520  0.64610  1.0000
  C   C32       1.0  0.88210  0.49520  0.85390  1.0000
  H   H17       1.0  0.94210  0.94960  0.34890  1.0000
  H   H18       1.0  0.05790  0.44960  0.15110  1.0000
  H   H19       1.0  0.05790  0.05040  0.65110  1.0000
  H   H20       1.0  0.94210  0.55040  0.84890  1.0000
  C   C33       1.0  0.77010  0.01280  0.29930  1.0000
  C   C34       1.0  0.22990  0.51280  0.20070  1.0000
  C   C35       1.0  0.22990  0.98720  0.70070  1.0000
  C   C36       1.0  0.77010  0.48720  0.79930  1.0000
  H   H21       1.0  0.75540  0.96440  0.25630  1.0000
  H   H22       1.0  0.24460  0.46440  0.24370  1.0000
  H   H23       1.0  0.24460  0.03560  0.74370  1.0000
  H   H24       1.0  0.75540  0.53560  0.75630  1.0000
  C   C37       1.0  0.67430  0.09430  0.30680  1.0000
  C   C38       1.0  0.32570  0.59430  0.19320  1.0000
  C   C39       1.0  0.32570  0.90570  0.69320  1.0000
  C   C40       1.0  0.67430  0.40570  0.80680  1.0000
  C   C41       1.0  0.53350  0.05160  0.16610  1.0000
  C   C42       1.0  0.46650  0.55160  0.33390  1.0000
  C   C43       1.0  0.46650  0.94840  0.83390  1.0000
  C   C44       1.0  0.53350  0.44840  0.66610  1.0000
  C   C45       1.0  0.61490  0.32910  0.45050  1.0000
  C   C46       1.0  0.38510  0.82910  0.04950  1.0000
  C   C47       1.0  0.38510  0.67090  0.54950  1.0000
  C   C48       1.0  0.61490  0.17090  0.95050  1.0000
  C   C49       1.0  0.99260  0.98850  0.95290  1.0000
  C   C50       1.0  0.00740  0.48850  0.54710  1.0000
  C   C51       1.0  0.00740  0.01150  0.04710  1.0000
  C   C52       1.0  0.99260  0.51150  0.45290  1.0000
