data_image0
_chemical_formula_structural       Sm4O24C8H4C4H4C12H4C4H4C4H4C4H4C16Br4
_chemical_formula_sum              "Sm4 O24 C52 H24 Br4"
_cell_length_a       9.9524
_cell_length_b       12.67
_cell_length_c       16.2137
_cell_angle_alpha    90
_cell_angle_beta     96.18
_cell_angle_gamma    90

_space_group_name_H-M_alt    "P 1"
_space_group_IT_number       1

loop_
  _space_group_symop_operation_xyz
  'x, y, z'

loop_
  _atom_site_type_symbol
  _atom_site_label
  _atom_site_symmetry_multiplicity
  _atom_site_fract_x
  _atom_site_fract_y
  _atom_site_fract_z
  _atom_site_occupancy
  Sm  Sm1       1.0  0.30634  0.04382  0.99503  1.0000
  Sm  Sm2       1.0  0.69366  0.54382  0.50497  1.0000
  Sm  Sm3       1.0  0.69366  0.95618  0.00497  1.0000
  Sm  Sm4       1.0  0.30634  0.45618  0.49503  1.0000
  O   O1        1.0  0.41300  0.04450  0.13300  1.0000
  O   O2        1.0  0.58700  0.54450  0.36700  1.0000
  O   O3        1.0  0.58700  0.95550  0.86700  1.0000
  O   O4        1.0  0.41300  0.45550  0.63300  1.0000
  O   O5        1.0  0.63600  0.02210  0.13420  1.0000
  O   O6        1.0  0.36400  0.52210  0.36580  1.0000
  O   O7        1.0  0.36400  0.97790  0.86580  1.0000
  O   O8        1.0  0.63600  0.47790  0.63420  1.0000
  O   O9        1.0  0.73550  0.35820  0.47750  1.0000
  O   O10       1.0  0.26450  0.85820  0.02250  1.0000
  O   O11       1.0  0.26450  0.64180  0.52250  1.0000
  O   O12       1.0  0.73550  0.14180  0.97750  1.0000
  O   O13       1.0  0.51630  0.37690  0.47320  1.0000
  O   O14       1.0  0.48370  0.87690  0.02680  1.0000
  O   O15       1.0  0.48370  0.62310  0.52680  1.0000
  O   O16       1.0  0.51630  0.12310  0.97320  1.0000
  O   O17       1.0  0.09530  0.99990  0.91580  1.0000
  O   O18       1.0  0.90470  0.49990  0.58420  1.0000
  O   O19       1.0  0.90470  0.00010  0.08420  1.0000
  O   O20       1.0  0.09530  0.50010  0.41580  1.0000
  O   O21       1.0  0.87700  0.96220  0.92100  1.0000
  O   O22       1.0  0.12300  0.46220  0.57900  1.0000
  O   O23       1.0  0.12300  0.03780  0.07900  1.0000
  O   O24       1.0  0.87700  0.53780  0.42100  1.0000
  C   C1        1.0  0.55470  0.10640  0.25000  1.0000
  C   C2        1.0  0.44530  0.60640  0.25000  1.0000
  C   C3        1.0  0.44530  0.89360  0.75000  1.0000
  C   C4        1.0  0.55470  0.39360  0.75000  1.0000
  C   C5        1.0  0.45840  0.17690  0.26580  1.0000
  C   C6        1.0  0.54160  0.67690  0.23420  1.0000
  C   C7        1.0  0.54160  0.82310  0.73420  1.0000
  C   C8        1.0  0.45840  0.32310  0.76580  1.0000
  H   H1        1.0  0.37810  0.17990  0.23080  1.0000
  H   H2        1.0  0.62190  0.67990  0.26920  1.0000
  H   H3        1.0  0.62190  0.82010  0.76920  1.0000
  H   H4        1.0  0.37810  0.32010  0.73080  1.0000
  C   C9        1.0  0.47780  0.24640  0.33500  1.0000
  C   C10       1.0  0.52220  0.74640  0.16500  1.0000
  C   C11       1.0  0.52220  0.75360  0.66500  1.0000
  C   C12       1.0  0.47780  0.25360  0.83500  1.0000
  H   H5        1.0  0.41050  0.29400  0.34530  1.0000
  H   H6        1.0  0.58950  0.79400  0.15470  1.0000
  H   H7        1.0  0.58950  0.70600  0.65470  1.0000
  H   H8        1.0  0.41050  0.20600  0.84530  1.0000
  C   C13       1.0  0.59650  0.24260  0.38630  1.0000
  C   C14       1.0  0.40350  0.74260  0.11370  1.0000
  C   C15       1.0  0.40350  0.75740  0.61370  1.0000
  C   C16       1.0  0.59650  0.25740  0.88630  1.0000
  C   C17       1.0  0.69700  0.16580  0.37450  1.0000
  C   C18       1.0  0.30300  0.66580  0.12550  1.0000
  C   C19       1.0  0.30300  0.83420  0.62550  1.0000
  C   C20       1.0  0.69700  0.33420  0.87450  1.0000
  C   C21       1.0  0.82030  0.15520  0.42890  1.0000
  C   C22       1.0  0.17970  0.65520  0.07110  1.0000
  C   C23       1.0  0.17970  0.84480  0.57110  1.0000
  C   C24       1.0  0.82030  0.34480  0.92890  1.0000
  H   H9        1.0  0.83800  0.20220  0.47280  1.0000
  H   H10       1.0  0.16200  0.70220  0.02720  1.0000
  H   H11       1.0  0.16200  0.79780  0.52720  1.0000
  H   H12       1.0  0.83800  0.29780  0.97280  1.0000
  C   C25       1.0  0.91060  0.07880  0.41770  1.0000
  C   C26       1.0  0.08940  0.57880  0.08230  1.0000
  C   C27       1.0  0.08940  0.92120  0.58230  1.0000
  C   C28       1.0  0.91060  0.42120  0.91770  1.0000
  H   H13       1.0  0.99120  0.07510  0.45240  1.0000
  H   H14       1.0  0.00880  0.57510  0.04760  1.0000
  H   H15       1.0  0.00880  0.92490  0.54760  1.0000
  H   H16       1.0  0.99120  0.42490  0.95240  1.0000
  C   C29       1.0  0.88290  0.00420  0.35320  1.0000
  C   C30       1.0  0.11710  0.50420  0.14680  1.0000
  C   C31       1.0  0.11710  0.99580  0.64680  1.0000
  C   C32       1.0  0.88290  0.49580  0.85320  1.0000
  H   H17       1.0  0.94280  0.94890  0.34760  1.0000
  H   H18       1.0  0.05720  0.44890  0.15240  1.0000
  H   H19       1.0  0.05720  0.05110  0.65240  1.0000
  H   H20       1.0  0.94280  0.55110  0.84760  1.0000
  C   C33       1.0  0.76900  0.01300  0.29930  1.0000
  C   C34       1.0  0.23100  0.51300  0.20070  1.0000
  C   C35       1.0  0.23100  0.98700  0.70070  1.0000
  C   C36       1.0  0.76900  0.48700  0.79930  1.0000
  H   H21       1.0  0.75320  0.96440  0.25640  1.0000
  H   H22       1.0  0.24680  0.46440  0.24360  1.0000
  H   H23       1.0  0.24680  0.03560  0.74360  1.0000
  H   H24       1.0  0.75320  0.53560  0.75640  1.0000
  C   C37       1.0  0.67460  0.09410  0.30690  1.0000
  C   C38       1.0  0.32540  0.59410  0.19310  1.0000
  C   C39       1.0  0.32540  0.90590  0.69310  1.0000
  C   C40       1.0  0.67460  0.40590  0.80690  1.0000
  C   C41       1.0  0.53380  0.05140  0.16670  1.0000
  C   C42       1.0  0.46620  0.55140  0.33330  1.0000
  C   C43       1.0  0.46620  0.94860  0.83330  1.0000
  C   C44       1.0  0.53380  0.44860  0.66670  1.0000
  C   C45       1.0  0.61750  0.32870  0.45200  1.0000
  C   C46       1.0  0.38250  0.82870  0.04800  1.0000
  C   C47       1.0  0.38250  0.67130  0.54800  1.0000
  C   C48       1.0  0.61750  0.17130  0.95200  1.0000
  C   C49       1.0  0.99290  0.98960  0.95260  1.0000
  C   C50       1.0  0.00710  0.48960  0.54740  1.0000
  C   C51       1.0  0.00710  0.01040  0.04740  1.0000
  C   C52       1.0  0.99290  0.51040  0.45260  1.0000
  Br  Br1       1.0  0.22060  0.25669  0.98420  1.0000
  Br  Br2       1.0  0.77940  0.75669  0.51580  1.0000
  Br  Br3       1.0  0.77940  0.74331  0.01580  1.0000
  Br  Br4       1.0  0.22060  0.24331  0.48420  1.0000
