data_image0
_chemical_formula_structural       Mo2O12Mo2As2Mo2As2Mo2O12C2O10C2O6As2Mo6C4Mo6C4O4C2O20H2C4H2O18H2C4H2Mo4C4As2H2C2H4C2H2O10H2C4H2C2N4H2C2H2C4H8N2H2C4H8C2H2N2H4
_chemical_formula_sum              "Mo24 O92 As8 C48 H48 N8"
_cell_length_a       15.5503
_cell_length_b       16.3975
_cell_length_c       25.675
_cell_angle_alpha    86.469
_cell_angle_beta     83.772
_cell_angle_gamma    80.423

_space_group_name_H-M_alt    "P 1"
_space_group_IT_number       1

loop_
  _space_group_symop_operation_xyz
  'x, y, z'

loop_
  _atom_site_type_symbol
  _atom_site_label
  _atom_site_symmetry_multiplicity
  _atom_site_fract_x
  _atom_site_fract_y
  _atom_site_fract_z
  _atom_site_occupancy
  Mo  Mo1       1.0  0.73854  0.77685  0.39965  1.0000
  Mo  Mo2       1.0  0.26146  0.22315  0.60035  1.0000
  O   O1        1.0  0.73040  0.87130  0.33220  1.0000
  O   O2        1.0  0.26960  0.12870  0.66780  1.0000
  O   O3        1.0  0.76700  0.69240  0.32700  1.0000
  O   O4        1.0  0.23300  0.30760  0.67300  1.0000
  O   O5        1.0  0.86070  0.78000  0.39050  1.0000
  O   O6        1.0  0.13930  0.22000  0.60950  1.0000
  O   O7        1.0  0.62440  0.77500  0.36870  1.0000
  O   O8        1.0  0.37560  0.22500  0.63130  1.0000
  O   O9        1.0  0.73400  0.68920  0.43750  1.0000
  O   O10       1.0  0.26600  0.31080  0.56250  1.0000
  O   O11       1.0  0.70330  0.85200  0.44320  1.0000
  O   O12       1.0  0.29670  0.14800  0.55680  1.0000
  Mo  Mo3       1.0  0.57827  0.88219  0.33008  1.0000
  Mo  Mo4       1.0  0.42173  0.11781  0.66992  1.0000
  As  As1       1.0  0.80419  0.93278  0.30842  1.0000
  As  As2       1.0  0.19581  0.06722  0.69158  1.0000
  Mo  Mo5       1.0  0.62610  0.67378  0.32583  1.0000
  Mo  Mo6       1.0  0.37390  0.32622  0.67417  1.0000
  As  As3       1.0  0.86118  0.64207  0.29715  1.0000
  As  As4       1.0  0.13882  0.35793  0.70285  1.0000
  Mo  Mo7       1.0  0.97391  0.78196  0.35866  1.0000
  Mo  Mo8       1.0  0.02609  0.21804  0.64134  1.0000
  O   O13       1.0  0.63180  0.78870  0.26840  1.0000
  O   O14       1.0  0.36820  0.21130  0.73160  1.0000
  O   O15       1.0  0.59410  0.96070  0.27450  1.0000
  O   O16       1.0  0.40590  0.03930  0.72550  1.0000
  O   O17       1.0  0.56380  0.94290  0.38180  1.0000
  O   O18       1.0  0.43620  0.05710  0.61820  1.0000
  O   O19       1.0  0.47470  0.86560  0.32520  1.0000
  O   O20       1.0  0.52530  0.13440  0.67480  1.0000
  O   O21       1.0  0.78030  0.96880  0.24810  1.0000
  O   O22       1.0  0.21970  0.03120  0.75190  1.0000
  O   O23       1.0  0.90810  0.87940  0.30240  1.0000
  O   O24       1.0  0.09190  0.12060  0.69760  1.0000
  C   C1        1.0  0.79820  0.01930  0.35370  1.0000
  C   C2        1.0  0.20180  0.98070  0.64630  1.0000
  O   O25       1.0  0.67060  0.61170  0.26680  1.0000
  O   O26       1.0  0.32940  0.38830  0.73320  1.0000
  O   O27       1.0  0.63830  0.60180  0.37640  1.0000
  O   O28       1.0  0.36170  0.39820  0.62360  1.0000
  O   O29       1.0  0.51650  0.68600  0.32090  1.0000
  O   O30       1.0  0.48350  0.31400  0.67910  1.0000
  O   O31       1.0  0.84670  0.62430  0.23470  1.0000
  O   O32       1.0  0.15330  0.37570  0.76530  1.0000
  O   O33       1.0  0.94050  0.70200  0.29550  1.0000
  O   O34       1.0  0.05950  0.29800  0.70450  1.0000
  C   C3        1.0  0.89420  0.54160  0.33460  1.0000
  C   C4        1.0  0.10580  0.45840  0.66540  1.0000
  O   O35       1.0  0.06030  0.79140  0.29290  1.0000
  O   O36       1.0  0.93970  0.20860  0.70710  1.0000
  O   O37       1.0  0.02930  0.69370  0.38590  1.0000
  O   O38       1.0  0.97070  0.30630  0.61410  1.0000
  O   O39       1.0  0.00370  0.85800  0.39120  1.0000
  O   O40       1.0  0.99630  0.14200  0.60880  1.0000
  As  As5       1.0  0.64037  0.80164  0.20285  1.0000
  As  As6       1.0  0.35963  0.19836  0.79715  1.0000
  Mo  Mo9       1.0  0.64711  0.01789  0.21776  1.0000
  Mo  Mo10      1.0  0.35289  0.98211  0.78224  1.0000
  Mo  Mo11      1.0  0.86106  0.02860  0.18089  1.0000
  Mo  Mo12      1.0  0.13894  0.97140  0.81911  1.0000
  Mo  Mo13      1.0  0.03533  0.90216  0.25236  1.0000
  Mo  Mo14      1.0  0.96467  0.09784  0.74764  1.0000
  C   C5        1.0  0.72440  0.04650  0.38760  1.0000
  C   C6        1.0  0.27560  0.95350  0.61240  1.0000
  C   C7        1.0  0.87030  0.06180  0.35270  1.0000
  C   C8        1.0  0.12970  0.93820  0.64730  1.0000
  Mo  Mo15      1.0  0.73211  0.58122  0.20201  1.0000
  Mo  Mo16      1.0  0.26789  0.41878  0.79799  1.0000
  Mo  Mo17      1.0  0.94502  0.59389  0.16169  1.0000
  Mo  Mo18      1.0  0.05498  0.40611  0.83831  1.0000
  Mo  Mo19      1.0  0.07246  0.69401  0.24603  1.0000
  Mo  Mo20      1.0  0.92754  0.30599  0.75397  1.0000
  C   C9        1.0  0.96770  0.48550  0.31560  1.0000
  C   C10       1.0  0.03230  0.51450  0.68440  1.0000
  C   C11       1.0  0.84810  0.51980  0.38130  1.0000
  C   C12       1.0  0.15190  0.48020  0.61870  1.0000
  O   O41       1.0  0.71200  0.72120  0.17780  1.0000
  O   O42       1.0  0.28800  0.27880  0.82220  1.0000
  O   O43       1.0  0.68130  0.88990  0.18340  1.0000
  O   O44       1.0  0.31870  0.11010  0.81660  1.0000
  C   C13       1.0  0.52740  0.80950  0.17910  1.0000
  C   C14       1.0  0.47260  0.19050  0.82090  1.0000
  O   O45       1.0  0.74170  0.02390  0.15690  1.0000
  O   O46       1.0  0.25830  0.97610  0.84310  1.0000
  O   O47       1.0  0.56260  0.04200  0.18050  1.0000
  O   O48       1.0  0.43740  0.95800  0.81950  1.0000
  O   O49       1.0  0.65000  0.10940  0.24490  1.0000
  O   O50       1.0  0.35000  0.89060  0.75510  1.0000
  O   O51       1.0  0.86390  0.89950  0.15120  1.0000
  O   O52       1.0  0.13610  0.10050  0.84880  1.0000
  O   O53       1.0  0.95860  0.98140  0.21430  1.0000
  O   O54       1.0  0.04140  0.01860  0.78570  1.0000
  O   O55       1.0  0.83150  0.11950  0.21080  1.0000
  O   O56       1.0  0.16850  0.88050  0.78920  1.0000
  O   O57       1.0  0.90750  0.05850  0.12060  1.0000
  O   O58       1.0  0.09250  0.94150  0.87940  1.0000
  O   O59       1.0  0.98900  0.80480  0.20660  1.0000
  O   O60       1.0  0.01100  0.19520  0.79340  1.0000
  O   O61       1.0  0.12900  0.89370  0.21170  1.0000
  O   O62       1.0  0.87100  0.10630  0.78830  1.0000
  O   O63       1.0  0.05830  0.96220  0.29980  1.0000
  O   O64       1.0  0.94170  0.03780  0.70020  1.0000
  H   H1        1.0  0.67600  0.01750  0.39050  1.0000
  H   H2        1.0  0.32400  0.98250  0.60950  1.0000
  C   C15       1.0  0.72010  0.11500  0.41720  1.0000
  C   C16       1.0  0.27990  0.88500  0.58280  1.0000
  C   C17       1.0  0.86560  0.12920  0.38350  1.0000
  C   C18       1.0  0.13440  0.87080  0.61650  1.0000
  H   H3        1.0  0.92240  0.04410  0.33070  1.0000
  H   H4        1.0  0.07760  0.95590  0.66930  1.0000
  O   O65       1.0  0.82170  0.60160  0.14010  1.0000
  O   O66       1.0  0.17830  0.39840  0.85990  1.0000
  O   O67       1.0  0.77560  0.48180  0.21570  1.0000
  O   O68       1.0  0.22440  0.51820  0.78430  1.0000
  O   O69       1.0  0.64830  0.57150  0.16660  1.0000
  O   O70       1.0  0.35170  0.42850  0.83340  1.0000
  O   O71       1.0  0.89100  0.72920  0.14790  1.0000
  O   O72       1.0  0.10900  0.27080  0.85210  1.0000
  O   O73       1.0  0.99910  0.59210  0.10080  1.0000
  O   O74       1.0  0.00090  0.40790  0.89920  1.0000
  O   O75       1.0  0.95850  0.49180  0.18010  1.0000
  O   O76       1.0  0.04150  0.50820  0.81990  1.0000
  O   O77       1.0  0.02530  0.63190  0.20070  1.0000
  O   O78       1.0  0.97470  0.36810  0.79930  1.0000
  O   O79       1.0  0.11520  0.61880  0.28840  1.0000
  O   O80       1.0  0.88480  0.38120  0.71160  1.0000
  O   O81       1.0  0.16290  0.71790  0.20830  1.0000
  O   O82       1.0  0.83710  0.28210  0.79170  1.0000
  H   H5        1.0  0.99940  0.49760  0.28310  1.0000
  H   H6        1.0  0.00060  0.50240  0.71690  1.0000
  C   C19       1.0  0.99450  0.41230  0.34410  1.0000
  C   C20       1.0  0.00550  0.58770  0.65590  1.0000
  C   C21       1.0  0.87440  0.44700  0.40890  1.0000
  C   C22       1.0  0.12560  0.55300  0.59110  1.0000
  H   H7        1.0  0.79720  0.55590  0.39450  1.0000
  H   H8        1.0  0.20280  0.44410  0.60550  1.0000
  Mo  Mo21      1.0  0.78537  0.70666  0.09671  1.0000
  Mo  Mo22      1.0  0.21463  0.29334  0.90329  1.0000
  Mo  Mo23      1.0  0.74382  0.93498  0.10464  1.0000
  Mo  Mo24      1.0  0.25618  0.06502  0.89536  1.0000
  C   C23       1.0  0.45720  0.78970  0.21220  1.0000
  C   C24       1.0  0.54280  0.21030  0.78780  1.0000
  C   C25       1.0  0.51570  0.83470  0.12830  1.0000
  C   C26       1.0  0.48430  0.16530  0.87170  1.0000
  As  As7       1.0  0.94073  0.81329  0.15079  1.0000
  As  As8       1.0  0.05927  0.18671  0.84921  1.0000
  H   H9        1.0  0.66830  0.13360  0.43920  1.0000
  H   H10       1.0  0.33170  0.86640  0.56080  1.0000
  C   C27       1.0  0.79190  0.15710  0.41480  1.0000
  C   C28       1.0  0.20810  0.84290  0.58520  1.0000
  H   H11       1.0  0.91510  0.15650  0.38280  1.0000
  H   H12       1.0  0.08490  0.84350  0.61720  1.0000
  H   H13       1.0  0.04550  0.37570  0.33160  1.0000
  H   H14       1.0  0.95450  0.62430  0.66840  1.0000
  C   C29       1.0  0.94720  0.39270  0.39060  1.0000
  C   C30       1.0  0.05280  0.60730  0.60940  1.0000
  H   H15       1.0  0.84200  0.43400  0.44100  1.0000
  H   H16       1.0  0.15800  0.56600  0.55900  1.0000
  O   O83       1.0  0.76060  0.82290  0.08900  1.0000
  O   O84       1.0  0.23940  0.17710  0.91100  1.0000
  O   O85       1.0  0.86320  0.68560  0.04590  1.0000
  O   O86       1.0  0.13680  0.31440  0.95410  1.0000
  O   O87       1.0  0.69580  0.67930  0.07450  1.0000
  O   O88       1.0  0.30420  0.32070  0.92550  1.0000
  O   O89       1.0  0.64380  0.96940  0.08310  1.0000
  O   O90       1.0  0.35620  0.03060  0.91690  1.0000
  O   O91       1.0  0.81000  0.97390  0.05680  1.0000
  O   O92       1.0  0.19000  0.02610  0.94320  1.0000
  H   H17       1.0  0.46450  0.77130  0.24760  1.0000
  H   H18       1.0  0.53550  0.22870  0.75240  1.0000
  C   C31       1.0  0.37610  0.79690  0.19330  1.0000
  C   C32       1.0  0.62390  0.20310  0.80670  1.0000
  C   C33       1.0  0.43530  0.84360  0.10890  1.0000
  C   C34       1.0  0.56470  0.15640  0.89110  1.0000
  H   H19       1.0  0.56480  0.84650  0.10550  1.0000
  H   H20       1.0  0.43520  0.15350  0.89450  1.0000
  C   C35       1.0  0.02530  0.81700  0.09240  1.0000
  C   C36       1.0  0.97470  0.18300  0.90760  1.0000
  N   N1        1.0  0.78730  0.22580  0.44330  1.0000
  N   N2        1.0  0.21270  0.77420  0.55670  1.0000
  N   N3        1.0  0.97440  0.31980  0.41870  1.0000
  N   N4        1.0  0.02560  0.68020  0.58130  1.0000
  H   H21       1.0  0.32750  0.78420  0.21620  1.0000
  H   H22       1.0  0.67250  0.21580  0.78380  1.0000
  C   C37       1.0  0.36410  0.82190  0.14230  1.0000
  C   C38       1.0  0.63590  0.17810  0.85770  1.0000
  H   H23       1.0  0.42820  0.86390  0.07390  1.0000
  H   H24       1.0  0.57180  0.13610  0.92610  1.0000
  C   C39       1.0  0.01610  0.88360  0.05570  1.0000
  C   C40       1.0  0.98390  0.11640  0.94430  1.0000
  C   C41       1.0  0.09310  0.75290  0.08280  1.0000
  C   C42       1.0  0.90690  0.24710  0.91720  1.0000
  H   H25       1.0  0.83240  0.25230  0.44140  1.0000
  H   H26       1.0  0.16760  0.74770  0.55860  1.0000
  H   H27       1.0  0.73920  0.24350  0.46350  1.0000
  H   H28       1.0  0.26080  0.75650  0.53650  1.0000
  H   H29       1.0  0.94510  0.30780  0.44860  1.0000
  H   H30       1.0  0.05490  0.69220  0.55140  1.0000
  H   H31       1.0  0.02100  0.28560  0.40650  1.0000
  H   H32       1.0  0.97900  0.71440  0.59350  1.0000
  N   N5        1.0  0.28420  0.82830  0.12340  1.0000
  N   N6        1.0  0.71580  0.17170  0.87660  1.0000
  H   H33       1.0  0.96780  0.92710  0.06100  1.0000
  H   H34       1.0  0.03220  0.07290  0.93900  1.0000
  C   C43       1.0  0.07630  0.88770  0.01140  1.0000
  C   C44       1.0  0.92370  0.11230  0.98860  1.0000
  C   C45       1.0  0.15240  0.75770  0.03800  1.0000
  C   C46       1.0  0.84760  0.24230  0.96200  1.0000
  H   H35       1.0  0.09970  0.70580  0.10640  1.0000
  H   H36       1.0  0.90030  0.29420  0.89360  1.0000
  H   H37       1.0  0.23880  0.81620  0.14420  1.0000
  H   H38       1.0  0.76120  0.18380  0.85580  1.0000
  H   H39       1.0  0.27820  0.84450  0.09050  1.0000
  H   H40       1.0  0.72180  0.15550  0.90950  1.0000
  H   H41       1.0  0.07030  0.93450  0.98750  1.0000
  H   H42       1.0  0.92970  0.06550  0.01250  1.0000
  C   C47       1.0  0.14380  0.82390  0.00280  1.0000
  C   C48       1.0  0.85620  0.17610  0.99720  1.0000
  H   H43       1.0  0.19990  0.71370  0.03180  1.0000
  H   H44       1.0  0.80010  0.28630  0.96820  1.0000
  N   N7        1.0  0.20440  0.82760  0.95970  1.0000
  N   N8        1.0  0.79560  0.17240  0.04030  1.0000
  H   H45       1.0  0.19960  0.87110  0.93780  1.0000
  H   H46       1.0  0.80040  0.12890  0.06220  1.0000
  H   H47       1.0  0.24800  0.78640  0.95420  1.0000
  H   H48       1.0  0.75200  0.21360  0.04580  1.0000
