data_image0
_chemical_formula_structural       In2O16C12H4C16H8C8
_chemical_formula_sum              "In2 O16 C36 H12"
_cell_length_a       9.9798
_cell_length_b       9.9798
_cell_length_c       23.1921
_cell_angle_alpha    90
_cell_angle_beta     90
_cell_angle_gamma    90

_space_group_name_H-M_alt    "P 1"
_space_group_IT_number       1

loop_
  _space_group_symop_operation_xyz
  'x, y, z'

loop_
  _atom_site_type_symbol
  _atom_site_label
  _atom_site_symmetry_multiplicity
  _atom_site_fract_x
  _atom_site_fract_y
  _atom_site_fract_z
  _atom_site_occupancy
  In  In1       1.0  0.00000  0.00000  0.25000  1.0000
  In  In2       1.0  0.00000  0.00000  0.75000  1.0000
  O   O1        1.0  0.00000  0.24120  0.26030  1.0000
  O   O2        1.0  0.00000  0.75880  0.26030  1.0000
  O   O3        1.0  0.75880  0.00000  0.76030  1.0000
  O   O4        1.0  0.24120  0.00000  0.76030  1.0000
  O   O5        1.0  0.00000  0.24120  0.73970  1.0000
  O   O6        1.0  0.00000  0.75880  0.73970  1.0000
  O   O7        1.0  0.24120  0.00000  0.23970  1.0000
  O   O8        1.0  0.75880  0.00000  0.23970  1.0000
  O   O9        1.0  0.00000  0.14260  0.17950  1.0000
  O   O10       1.0  0.00000  0.85740  0.17950  1.0000
  O   O11       1.0  0.85740  0.00000  0.67950  1.0000
  O   O12       1.0  0.14260  0.00000  0.67950  1.0000
  O   O13       1.0  0.00000  0.14260  0.82050  1.0000
  O   O14       1.0  0.00000  0.85740  0.82050  1.0000
  O   O15       1.0  0.14260  0.00000  0.32050  1.0000
  O   O16       1.0  0.85740  0.00000  0.32050  1.0000
  C   C1        1.0  0.00000  0.24740  0.20780  1.0000
  C   C2        1.0  0.00000  0.75260  0.20780  1.0000
  C   C3        1.0  0.75260  0.00000  0.70780  1.0000
  C   C4        1.0  0.24740  0.00000  0.70780  1.0000
  C   C5        1.0  0.00000  0.24740  0.79220  1.0000
  C   C6        1.0  0.00000  0.75260  0.79220  1.0000
  C   C7        1.0  0.24740  0.00000  0.29220  1.0000
  C   C8        1.0  0.75260  0.00000  0.29220  1.0000
  C   C9        1.0  0.00000  0.50000  0.20720  1.0000
  C   C10       1.0  0.50000  0.00000  0.70720  1.0000
  C   C11       1.0  0.00000  0.50000  0.79280  1.0000
  C   C12       1.0  0.50000  0.00000  0.29280  1.0000
  H   H1        1.0  0.00000  0.50000  0.24730  1.0000
  H   H2        1.0  0.50000  0.00000  0.74730  1.0000
  H   H3        1.0  0.00000  0.50000  0.75270  1.0000
  H   H4        1.0  0.50000  0.00000  0.25270  1.0000
  C   C13       1.0  0.00000  0.38060  0.17760  1.0000
  C   C14       1.0  0.00000  0.61940  0.17760  1.0000
  C   C15       1.0  0.61940  0.00000  0.67760  1.0000
  C   C16       1.0  0.38060  0.00000  0.67760  1.0000
  C   C17       1.0  0.00000  0.38060  0.82240  1.0000
  C   C18       1.0  0.00000  0.61940  0.82240  1.0000
  C   C19       1.0  0.38060  0.00000  0.32240  1.0000
  C   C20       1.0  0.61940  0.00000  0.32240  1.0000
  C   C21       1.0  0.00000  0.38060  0.11780  1.0000
  C   C22       1.0  0.00000  0.61940  0.11780  1.0000
  C   C23       1.0  0.61940  0.00000  0.61780  1.0000
  C   C24       1.0  0.38060  0.00000  0.61780  1.0000
  C   C25       1.0  0.00000  0.38060  0.88220  1.0000
  C   C26       1.0  0.00000  0.61940  0.88220  1.0000
  C   C27       1.0  0.38060  0.00000  0.38220  1.0000
  C   C28       1.0  0.61940  0.00000  0.38220  1.0000
  H   H5        1.0  0.00000  0.29940  0.09810  1.0000
  H   H6        1.0  0.00000  0.70060  0.09810  1.0000
  H   H7        1.0  0.70060  0.00000  0.59810  1.0000
  H   H8        1.0  0.29940  0.00000  0.59810  1.0000
  H   H9        1.0  0.00000  0.29940  0.90190  1.0000
  H   H10       1.0  0.00000  0.70060  0.90190  1.0000
  H   H11       1.0  0.29940  0.00000  0.40190  1.0000
  H   H12       1.0  0.70060  0.00000  0.40190  1.0000
  C   C29       1.0  0.00000  0.50000  0.08650  1.0000
  C   C30       1.0  0.50000  0.00000  0.58650  1.0000
  C   C31       1.0  0.00000  0.50000  0.91350  1.0000
  C   C32       1.0  0.50000  0.00000  0.41350  1.0000
  C   C33       1.0  0.00000  0.50000  0.02640  1.0000
  C   C34       1.0  0.50000  0.00000  0.52640  1.0000
  C   C35       1.0  0.00000  0.50000  0.97360  1.0000
  C   C36       1.0  0.50000  0.00000  0.47360  1.0000
