data_image0
_chemical_formula_structural       In8O64C4H4C8H4C8H4C24H4C8H4C8H4C16H4C16H8C32H8C12H4C8
_chemical_formula_sum              "In8 O64 C144 H48"
_cell_length_a       25.161
_cell_length_b       35.988
_cell_length_c       10.021
_cell_angle_alpha    90
_cell_angle_beta     90
_cell_angle_gamma    90

_space_group_name_H-M_alt    "P 1"
_space_group_IT_number       1

loop_
  _space_group_symop_operation_xyz
  'x, y, z'

loop_
  _atom_site_type_symbol
  _atom_site_label
  _atom_site_symmetry_multiplicity
  _atom_site_fract_x
  _atom_site_fract_y
  _atom_site_fract_z
  _atom_site_occupancy
  In  In1       1.0  0.70870  0.05031  0.00000  1.0000
  In  In2       1.0  0.29130  0.94969  0.00000  1.0000
  In  In3       1.0  0.79130  0.55031  0.00000  1.0000
  In  In4       1.0  0.20870  0.44970  0.00000  1.0000
  In  In5       1.0  0.62331  0.31190  0.00000  1.0000
  In  In6       1.0  0.37669  0.68810  0.00000  1.0000
  In  In7       1.0  0.87669  0.81190  0.00000  1.0000
  In  In8       1.0  0.12331  0.18810  0.00000  1.0000
  O   O1        1.0  0.62760  0.07400  0.00000  1.0000
  O   O2        1.0  0.37240  0.92600  0.00000  1.0000
  O   O3        1.0  0.87240  0.57400  0.00000  1.0000
  O   O4        1.0  0.12760  0.42600  0.00000  1.0000
  O   O5        1.0  0.68930  0.11520  0.00000  1.0000
  O   O6        1.0  0.31070  0.88480  0.00000  1.0000
  O   O7        1.0  0.81070  0.61520  0.00000  1.0000
  O   O8        1.0  0.18930  0.38480  0.00000  1.0000
  O   O9        1.0  0.25040  0.00882  0.00000  1.0000
  O   O10       1.0  0.74960  0.99118  0.00000  1.0000
  O   O11       1.0  0.24960  0.50882  0.00000  1.0000
  O   O12       1.0  0.75040  0.49118  0.00000  1.0000
  O   O13       1.0  0.33590  0.00319  0.00000  1.0000
  O   O14       1.0  0.66410  0.99681  0.00000  1.0000
  O   O15       1.0  0.16410  0.50319  0.00000  1.0000
  O   O16       1.0  0.83590  0.49681  0.00000  1.0000
  O   O17       1.0  0.77060  0.06653  0.85790  1.0000
  O   O18       1.0  0.22940  0.93347  0.85790  1.0000
  O   O19       1.0  0.72940  0.56653  0.14210  1.0000
  O   O20       1.0  0.27060  0.43347  0.14210  1.0000
  O   O21       1.0  0.22940  0.93347  0.14210  1.0000
  O   O22       1.0  0.77060  0.06653  0.14210  1.0000
  O   O23       1.0  0.27060  0.43347  0.85790  1.0000
  O   O24       1.0  0.72940  0.56653  0.85790  1.0000
  O   O25       1.0  0.69980  0.04750  0.75860  1.0000
  O   O26       1.0  0.30020  0.95250  0.75860  1.0000
  O   O27       1.0  0.80020  0.54750  0.24140  1.0000
  O   O28       1.0  0.19980  0.45250  0.24140  1.0000
  O   O29       1.0  0.30020  0.95250  0.24140  1.0000
  O   O30       1.0  0.69980  0.04750  0.24140  1.0000
  O   O31       1.0  0.19980  0.45250  0.75860  1.0000
  O   O32       1.0  0.80020  0.54750  0.75860  1.0000
  O   O33       1.0  0.55700  0.26680  0.00000  1.0000
  O   O34       1.0  0.44300  0.73320  0.00000  1.0000
  O   O35       1.0  0.94300  0.76680  0.00000  1.0000
  O   O36       1.0  0.05700  0.23320  0.00000  1.0000
  O   O37       1.0  0.64000  0.25075  0.00000  1.0000
  O   O38       1.0  0.36000  0.74925  0.00000  1.0000
  O   O39       1.0  0.86000  0.75075  0.00000  1.0000
  O   O40       1.0  0.14000  0.24925  0.00000  1.0000
  O   O41       1.0  0.21400  0.18344  0.00000  1.0000
  O   O42       1.0  0.78600  0.81656  0.00000  1.0000
  O   O43       1.0  0.28600  0.68344  0.00000  1.0000
  O   O44       1.0  0.71400  0.31656  0.00000  1.0000
  O   O45       1.0  0.16660  0.13270  0.00000  1.0000
  O   O46       1.0  0.83340  0.86730  0.00000  1.0000
  O   O47       1.0  0.33340  0.63270  0.00000  1.0000
  O   O48       1.0  0.66660  0.36730  0.00000  1.0000
  O   O49       1.0  0.13110  0.19168  0.75760  1.0000
  O   O50       1.0  0.86890  0.80832  0.75760  1.0000
  O   O51       1.0  0.36890  0.69168  0.24240  1.0000
  O   O52       1.0  0.63110  0.30832  0.24240  1.0000
  O   O53       1.0  0.86890  0.80832  0.24240  1.0000
  O   O54       1.0  0.13110  0.19168  0.24240  1.0000
  O   O55       1.0  0.63110  0.30832  0.75760  1.0000
  O   O56       1.0  0.36890  0.69168  0.75760  1.0000
  O   O57       1.0  0.06860  0.16172  0.85710  1.0000
  O   O58       1.0  0.93140  0.83828  0.85710  1.0000
  O   O59       1.0  0.43140  0.66172  0.14290  1.0000
  O   O60       1.0  0.56860  0.33828  0.14290  1.0000
  O   O61       1.0  0.93140  0.83828  0.14290  1.0000
  O   O62       1.0  0.06860  0.16172  0.14290  1.0000
  O   O63       1.0  0.56860  0.33828  0.85710  1.0000
  O   O64       1.0  0.43140  0.66172  0.85710  1.0000
  C   C1        1.0  0.61530  0.17470  0.00000  1.0000
  C   C2        1.0  0.38470  0.82530  0.00000  1.0000
  C   C3        1.0  0.88470  0.67470  0.00000  1.0000
  C   C4        1.0  0.11530  0.32530  0.00000  1.0000
  H   H1        1.0  0.65110  0.18130  0.00000  1.0000
  H   H2        1.0  0.34890  0.81870  0.00000  1.0000
  H   H3        1.0  0.84890  0.68130  0.00000  1.0000
  H   H4        1.0  0.15110  0.31870  0.00000  1.0000
  C   C5        1.0  0.60040  0.13690  0.00000  1.0000
  C   C6        1.0  0.39960  0.86310  0.00000  1.0000
  C   C7        1.0  0.89960  0.63690  0.00000  1.0000
  C   C8        1.0  0.10040  0.36310  0.00000  1.0000
  C   C9        1.0  0.54800  0.12720  0.00000  1.0000
  C   C10       1.0  0.45200  0.87280  0.00000  1.0000
  C   C11       1.0  0.95200  0.62720  0.00000  1.0000
  C   C12       1.0  0.04800  0.37280  0.00000  1.0000
  H   H5        1.0  0.53840  0.10220  0.00000  1.0000
  H   H6        1.0  0.46160  0.89780  0.00000  1.0000
  H   H7        1.0  0.96160  0.60220  0.00000  1.0000
  H   H8        1.0  0.03840  0.39780  0.00000  1.0000
  C   C13       1.0  0.50830  0.15500  0.00000  1.0000
  C   C14       1.0  0.49170  0.84500  0.00000  1.0000
  C   C15       1.0  0.99170  0.65500  0.00000  1.0000
  C   C16       1.0  0.00830  0.34500  0.00000  1.0000
  C   C17       1.0  0.52260  0.19170  0.00000  1.0000
  C   C18       1.0  0.47740  0.80830  0.00000  1.0000
  C   C19       1.0  0.97740  0.69170  0.00000  1.0000
  C   C20       1.0  0.02260  0.30830  0.00000  1.0000
  H   H9        1.0  0.49660  0.21000  0.00000  1.0000
  H   H10       1.0  0.50340  0.79000  0.00000  1.0000
  H   H11       1.0  0.00340  0.71000  0.00000  1.0000
  H   H12       1.0  0.99660  0.29000  0.00000  1.0000
  C   C21       1.0  0.57700  0.20170  0.00000  1.0000
  C   C22       1.0  0.42300  0.79830  0.00000  1.0000
  C   C23       1.0  0.92300  0.70170  0.00000  1.0000
  C   C24       1.0  0.07700  0.29830  0.00000  1.0000
  C   C25       1.0  0.64210  0.10710  0.00000  1.0000
  C   C26       1.0  0.35790  0.89290  0.00000  1.0000
  C   C27       1.0  0.85790  0.60710  0.00000  1.0000
  C   C28       1.0  0.14210  0.39290  0.00000  1.0000
  C   C29       1.0  0.59220  0.24230  0.00000  1.0000
  C   C30       1.0  0.40780  0.75770  0.00000  1.0000
  C   C31       1.0  0.90780  0.74230  0.00000  1.0000
  C   C32       1.0  0.09220  0.25770  0.00000  1.0000
  C   C33       1.0  0.45250  0.14480  0.00000  1.0000
  C   C34       1.0  0.54750  0.85520  0.00000  1.0000
  C   C35       1.0  0.04750  0.64480  0.00000  1.0000
  C   C36       1.0  0.95250  0.35520  0.00000  1.0000
  C   C37       1.0  0.40880  0.13480  0.00000  1.0000
  C   C38       1.0  0.59120  0.86520  0.00000  1.0000
  C   C39       1.0  0.09120  0.63480  0.00000  1.0000
  C   C40       1.0  0.90880  0.36520  0.00000  1.0000
  C   C41       1.0  0.25470  0.08580  0.00000  1.0000
  C   C42       1.0  0.74530  0.91420  0.00000  1.0000
  C   C43       1.0  0.24530  0.58580  0.00000  1.0000
  C   C44       1.0  0.75470  0.41420  0.00000  1.0000
  H   H13       1.0  0.22130  0.07480  0.00000  1.0000
  H   H14       1.0  0.77870  0.92520  0.00000  1.0000
  H   H15       1.0  0.27870  0.57480  0.00000  1.0000
  H   H16       1.0  0.72130  0.42520  0.00000  1.0000
  C   C45       1.0  0.26040  0.12580  0.00000  1.0000
  C   C46       1.0  0.73960  0.87420  0.00000  1.0000
  C   C47       1.0  0.23960  0.62580  0.00000  1.0000
  C   C48       1.0  0.76040  0.37420  0.00000  1.0000
  C   C49       1.0  0.31130  0.14140  0.00000  1.0000
  C   C50       1.0  0.68870  0.85860  0.00000  1.0000
  C   C51       1.0  0.18870  0.64140  0.00000  1.0000
  C   C52       1.0  0.81130  0.35860  0.00000  1.0000
  H   H17       1.0  0.31550  0.16700  0.00000  1.0000
  H   H18       1.0  0.68450  0.83300  0.00000  1.0000
  H   H19       1.0  0.18450  0.66700  0.00000  1.0000
  H   H20       1.0  0.81550  0.33300  0.00000  1.0000
  C   C53       1.0  0.35540  0.11840  0.00000  1.0000
  C   C54       1.0  0.64460  0.88160  0.00000  1.0000
  C   C55       1.0  0.14460  0.61840  0.00000  1.0000
  C   C56       1.0  0.85540  0.38160  0.00000  1.0000
  C   C57       1.0  0.35050  0.08060  0.00000  1.0000
  C   C58       1.0  0.64950  0.91940  0.00000  1.0000
  C   C59       1.0  0.14950  0.58060  0.00000  1.0000
  C   C60       1.0  0.85050  0.41940  0.00000  1.0000
  H   H21       1.0  0.38070  0.06570  0.00000  1.0000
  H   H22       1.0  0.61930  0.93430  0.00000  1.0000
  H   H23       1.0  0.11930  0.56570  0.00000  1.0000
  H   H24       1.0  0.88070  0.43430  0.00000  1.0000
  C   C61       1.0  0.29990  0.06460  0.00000  1.0000
  C   C62       1.0  0.70010  0.93540  0.00000  1.0000
  C   C63       1.0  0.20010  0.56460  0.00000  1.0000
  C   C64       1.0  0.79990  0.43540  0.00000  1.0000
  C   C65       1.0  0.29420  0.02300  0.00000  1.0000
  C   C66       1.0  0.70580  0.97700  0.00000  1.0000
  C   C67       1.0  0.20580  0.52300  0.00000  1.0000
  C   C68       1.0  0.79420  0.47700  0.00000  1.0000
  C   C69       1.0  0.21130  0.14890  0.00000  1.0000
  C   C70       1.0  0.78870  0.85110  0.00000  1.0000
  C   C71       1.0  0.28870  0.64890  0.00000  1.0000
  C   C72       1.0  0.71130  0.35110  0.00000  1.0000
  C   C73       1.0  0.74500  0.05960  0.50000  1.0000
  C   C74       1.0  0.25500  0.94040  0.50000  1.0000
  C   C75       1.0  0.75500  0.55960  0.50000  1.0000
  C   C76       1.0  0.24500  0.44040  0.50000  1.0000
  H   H25       1.0  0.71120  0.04920  0.50000  1.0000
  H   H26       1.0  0.28880  0.95080  0.50000  1.0000
  H   H27       1.0  0.78880  0.54920  0.50000  1.0000
  H   H28       1.0  0.21120  0.45080  0.50000  1.0000
  C   C77       1.0  0.77070  0.06760  0.61990  1.0000
  C   C78       1.0  0.22930  0.93240  0.61990  1.0000
  C   C79       1.0  0.72930  0.56760  0.38010  1.0000
  C   C80       1.0  0.27070  0.43240  0.38010  1.0000
  C   C81       1.0  0.22930  0.93240  0.38010  1.0000
  C   C82       1.0  0.77070  0.06760  0.38010  1.0000
  C   C83       1.0  0.27070  0.43240  0.61990  1.0000
  C   C84       1.0  0.72930  0.56760  0.61990  1.0000
  C   C85       1.0  0.82010  0.08310  0.61990  1.0000
  C   C86       1.0  0.17990  0.91690  0.61990  1.0000
  C   C87       1.0  0.67990  0.58310  0.38010  1.0000
  C   C88       1.0  0.32010  0.41690  0.38010  1.0000
  C   C89       1.0  0.17990  0.91690  0.38010  1.0000
  C   C90       1.0  0.82010  0.08310  0.38010  1.0000
  C   C91       1.0  0.32010  0.41690  0.61990  1.0000
  C   C92       1.0  0.67990  0.58310  0.61990  1.0000
  H   H29       1.0  0.83630  0.08860  0.70100  1.0000
  H   H30       1.0  0.16370  0.91140  0.70100  1.0000
  H   H31       1.0  0.66370  0.58860  0.29900  1.0000
  H   H32       1.0  0.33630  0.41140  0.29900  1.0000
  H   H33       1.0  0.16370  0.91140  0.29900  1.0000
  H   H34       1.0  0.83630  0.08860  0.29900  1.0000
  H   H35       1.0  0.33630  0.41140  0.70100  1.0000
  H   H36       1.0  0.66370  0.58860  0.70100  1.0000
  C   C93       1.0  0.84750  0.09090  0.50000  1.0000
  C   C94       1.0  0.15250  0.90910  0.50000  1.0000
  C   C95       1.0  0.65250  0.59090  0.50000  1.0000
  C   C96       1.0  0.34750  0.40910  0.50000  1.0000
  C   C97       1.0  0.74470  0.06020  0.75340  1.0000
  C   C98       1.0  0.25530  0.93980  0.75340  1.0000
  C   C99       1.0  0.75530  0.56020  0.24660  1.0000
  C   C100      1.0  0.24470  0.43980  0.24660  1.0000
  C   C101      1.0  0.25530  0.93980  0.24660  1.0000
  C   C102      1.0  0.74470  0.06020  0.24660  1.0000
  C   C103      1.0  0.24470  0.43980  0.75340  1.0000
  C   C104      1.0  0.75530  0.56020  0.75340  1.0000
  C   C105      1.0  0.89800  0.10620  0.50000  1.0000
  C   C106      1.0  0.10200  0.89380  0.50000  1.0000
  C   C107      1.0  0.60200  0.60620  0.50000  1.0000
  C   C108      1.0  0.39800  0.39380  0.50000  1.0000
  C   C109      1.0  0.94150  0.11970  0.50000  1.0000
  C   C110      1.0  0.05850  0.88030  0.50000  1.0000
  C   C111      1.0  0.55850  0.61970  0.50000  1.0000
  C   C112      1.0  0.44150  0.38030  0.50000  1.0000
  C   C113      1.0  0.99320  0.13820  0.50000  1.0000
  C   C114      1.0  0.00680  0.86180  0.50000  1.0000
  C   C115      1.0  0.50680  0.63820  0.50000  1.0000
  C   C116      1.0  0.49320  0.36180  0.50000  1.0000
  C   C117      1.0  0.01810  0.14700  0.61910  1.0000
  C   C118      1.0  0.98190  0.85300  0.61910  1.0000
  C   C119      1.0  0.48190  0.64700  0.38090  1.0000
  C   C120      1.0  0.51810  0.35300  0.38090  1.0000
  C   C121      1.0  0.98190  0.85300  0.38090  1.0000
  C   C122      1.0  0.01810  0.14700  0.38090  1.0000
  C   C123      1.0  0.51810  0.35300  0.61910  1.0000
  C   C124      1.0  0.48190  0.64700  0.61910  1.0000
  H   H37       1.0  0.00170  0.14120  0.69960  1.0000
  H   H38       1.0  0.99830  0.85880  0.69960  1.0000
  H   H39       1.0  0.49830  0.64120  0.30040  1.0000
  H   H40       1.0  0.50170  0.35880  0.30040  1.0000
  H   H41       1.0  0.99830  0.85880  0.30040  1.0000
  H   H42       1.0  0.00170  0.14120  0.30040  1.0000
  H   H43       1.0  0.50170  0.35880  0.69960  1.0000
  H   H44       1.0  0.49830  0.64120  0.69960  1.0000
  C   C125      1.0  0.06690  0.16430  0.61970  1.0000
  C   C126      1.0  0.93310  0.83570  0.61970  1.0000
  C   C127      1.0  0.43310  0.66430  0.38030  1.0000
  C   C128      1.0  0.56690  0.33570  0.38030  1.0000
  C   C129      1.0  0.93310  0.83570  0.38030  1.0000
  C   C130      1.0  0.06690  0.16430  0.38030  1.0000
  C   C131      1.0  0.56690  0.33570  0.61970  1.0000
  C   C132      1.0  0.43310  0.66430  0.61970  1.0000
  C   C133      1.0  0.09050  0.17350  0.50000  1.0000
  C   C134      1.0  0.90950  0.82650  0.50000  1.0000
  C   C135      1.0  0.40950  0.67350  0.50000  1.0000
  C   C136      1.0  0.59050  0.32650  0.50000  1.0000
  H   H45       1.0  0.12280  0.18610  0.50000  1.0000
  H   H46       1.0  0.87720  0.81390  0.50000  1.0000
  H   H47       1.0  0.37720  0.68610  0.50000  1.0000
  H   H48       1.0  0.62280  0.31390  0.50000  1.0000
  C   C137      1.0  0.09090  0.17370  0.75110  1.0000
  C   C138      1.0  0.90910  0.82630  0.75110  1.0000
  C   C139      1.0  0.40910  0.67370  0.24890  1.0000
  C   C140      1.0  0.59090  0.32630  0.24890  1.0000
  C   C141      1.0  0.90910  0.82630  0.24890  1.0000
  C   C142      1.0  0.09090  0.17370  0.24890  1.0000
  C   C143      1.0  0.59090  0.32630  0.75110  1.0000
  C   C144      1.0  0.40910  0.67370  0.75110  1.0000
