data_image0
_chemical_formula_structural       Zn8P8O64C40H24
_chemical_formula_sum              "Zn8 P8 O64 C40 H24"
_cell_length_a       25.2825
_cell_length_b       7.8499
_cell_length_c       18.6461
_cell_angle_alpha    90
_cell_angle_beta     116.333
_cell_angle_gamma    90

_space_group_name_H-M_alt    "P 1"
_space_group_IT_number       1

loop_
  _space_group_symop_operation_xyz
  'x, y, z'

loop_
  _atom_site_type_symbol
  _atom_site_label
  _atom_site_symmetry_multiplicity
  _atom_site_fract_x
  _atom_site_fract_y
  _atom_site_fract_z
  _atom_site_occupancy
  Zn  Zn1       1.0  0.33734  0.81779  0.61326  1.0000
  Zn  Zn2       1.0  0.66266  0.81779  0.88674  1.0000
  Zn  Zn3       1.0  0.83734  0.31779  0.61326  1.0000
  Zn  Zn4       1.0  0.16266  0.31779  0.88674  1.0000
  Zn  Zn5       1.0  0.66266  0.18221  0.38674  1.0000
  Zn  Zn6       1.0  0.33734  0.18221  0.11326  1.0000
  Zn  Zn7       1.0  0.16266  0.68221  0.38674  1.0000
  Zn  Zn8       1.0  0.83734  0.68221  0.11326  1.0000
  P   P1        1.0  0.21133  0.69822  0.57030  1.0000
  P   P2        1.0  0.78867  0.69822  0.92970  1.0000
  P   P3        1.0  0.71133  0.19822  0.57030  1.0000
  P   P4        1.0  0.28867  0.19822  0.92970  1.0000
  P   P5        1.0  0.78867  0.30178  0.42970  1.0000
  P   P6        1.0  0.21133  0.30178  0.07030  1.0000
  P   P7        1.0  0.28867  0.80178  0.42970  1.0000
  P   P8        1.0  0.71133  0.80178  0.07030  1.0000
  O   O1        1.0  0.26449  0.80614  0.62243  1.0000
  O   O2        1.0  0.73551  0.80614  0.87757  1.0000
  O   O3        1.0  0.76449  0.30614  0.62243  1.0000
  O   O4        1.0  0.23551  0.30614  0.87757  1.0000
  O   O5        1.0  0.73551  0.19386  0.37757  1.0000
  O   O6        1.0  0.26449  0.19386  0.12243  1.0000
  O   O7        1.0  0.23551  0.69386  0.37757  1.0000
  O   O8        1.0  0.76449  0.69386  0.12243  1.0000
  O   O9        1.0  0.17247  0.77177  0.48886  1.0000
  O   O10       1.0  0.82753  0.77177  0.01114  1.0000
  O   O11       1.0  0.67247  0.27177  0.48886  1.0000
  O   O12       1.0  0.32753  0.27177  0.01114  1.0000
  O   O13       1.0  0.82753  0.22823  0.51114  1.0000
  O   O14       1.0  0.17247  0.22823  0.98886  1.0000
  O   O15       1.0  0.32753  0.72823  0.51114  1.0000
  O   O16       1.0  0.67247  0.72823  0.98886  1.0000
  O   O17       1.0  0.17433  0.67262  0.61740  1.0000
  O   O18       1.0  0.82567  0.67262  0.88260  1.0000
  O   O19       1.0  0.67433  0.17262  0.61740  1.0000
  O   O20       1.0  0.32567  0.17262  0.88260  1.0000
  O   O21       1.0  0.82567  0.32738  0.38260  1.0000
  O   O22       1.0  0.17433  0.32738  0.11740  1.0000
  O   O23       1.0  0.32567  0.82738  0.38260  1.0000
  O   O24       1.0  0.67433  0.82738  0.11740  1.0000
  O   O25       1.0  0.23349  0.51850  0.55791  1.0000
  O   O26       1.0  0.76651  0.51850  0.94209  1.0000
  O   O27       1.0  0.73349  0.01850  0.55791  1.0000
  O   O28       1.0  0.26651  0.01850  0.94209  1.0000
  O   O29       1.0  0.76651  0.48150  0.44209  1.0000
  O   O30       1.0  0.23349  0.48150  0.05791  1.0000
  O   O31       1.0  0.26651  0.98150  0.44209  1.0000
  O   O32       1.0  0.73349  0.98150  0.05791  1.0000
  O   O33       1.0  0.39536  0.66384  0.69246  1.0000
  O   O34       1.0  0.60464  0.66384  0.80754  1.0000
  O   O35       1.0  0.89536  0.16384  0.69246  1.0000
  O   O36       1.0  0.10464  0.16384  0.80754  1.0000
  O   O37       1.0  0.60464  0.33616  0.30754  1.0000
  O   O38       1.0  0.39536  0.33616  0.19246  1.0000
  O   O39       1.0  0.10464  0.83616  0.30754  1.0000
  O   O40       1.0  0.89536  0.83616  0.19246  1.0000
  O   O41       1.0  0.34295  0.42565  0.63998  1.0000
  O   O42       1.0  0.65705  0.42565  0.86002  1.0000
  O   O43       1.0  0.84295  0.92565  0.63998  1.0000
  O   O44       1.0  0.15705  0.92565  0.86002  1.0000
  O   O45       1.0  0.65705  0.57435  0.36002  1.0000
  O   O46       1.0  0.34295  0.57435  0.13998  1.0000
  O   O47       1.0  0.15705  0.07435  0.36002  1.0000
  O   O48       1.0  0.84295  0.07435  0.13998  1.0000
  O   O49       1.0  0.37990  0.03168  0.62673  1.0000
  O   O50       1.0  0.62010  0.03168  0.87327  1.0000
  O   O51       1.0  0.87990  0.53168  0.62673  1.0000
  O   O52       1.0  0.12010  0.53168  0.87327  1.0000
  O   O53       1.0  0.62010  0.96832  0.37327  1.0000
  O   O54       1.0  0.37990  0.96832  0.12673  1.0000
  O   O55       1.0  0.12010  0.46832  0.37327  1.0000
  O   O56       1.0  0.87990  0.46832  0.12673  1.0000
  O   O57       1.0  0.36561  0.10075  0.73346  1.0000
  O   O58       1.0  0.63439  0.10075  0.76654  1.0000
  O   O59       1.0  0.86561  0.60075  0.73346  1.0000
  O   O60       1.0  0.13439  0.60075  0.76654  1.0000
  O   O61       1.0  0.63439  0.89925  0.26654  1.0000
  O   O62       1.0  0.36561  0.89925  0.23346  1.0000
  O   O63       1.0  0.13439  0.39925  0.26654  1.0000
  O   O64       1.0  0.86561  0.39925  0.23346  1.0000
  C   C1        1.0  0.50000  0.48880  0.75000  1.0000
  C   C2        1.0  0.00000  0.98880  0.75000  1.0000
  C   C3        1.0  0.50000  0.51120  0.25000  1.0000
  C   C4        1.0  0.00000  0.01120  0.25000  1.0000
  C   C5        1.0  0.44622  0.40201  0.71876  1.0000
  C   C6        1.0  0.55378  0.40201  0.78124  1.0000
  C   C7        1.0  0.94622  0.90201  0.71876  1.0000
  C   C8        1.0  0.05378  0.90201  0.78124  1.0000
  C   C9        1.0  0.55378  0.59799  0.28124  1.0000
  C   C10       1.0  0.44622  0.59799  0.21876  1.0000
  C   C11       1.0  0.05378  0.09799  0.28124  1.0000
  C   C12       1.0  0.94622  0.09799  0.21876  1.0000
  C   C13       1.0  0.44638  0.22404  0.71930  1.0000
  C   C14       1.0  0.55362  0.22404  0.78070  1.0000
  C   C15       1.0  0.94638  0.72404  0.71930  1.0000
  C   C16       1.0  0.05362  0.72404  0.78070  1.0000
  C   C17       1.0  0.55362  0.77596  0.28070  1.0000
  C   C18       1.0  0.44638  0.77596  0.21930  1.0000
  C   C19       1.0  0.05362  0.27596  0.28070  1.0000
  C   C20       1.0  0.94638  0.27596  0.21930  1.0000
  C   C21       1.0  0.50000  0.13640  0.75000  1.0000
  C   C22       1.0  0.00000  0.63640  0.75000  1.0000
  C   C23       1.0  0.50000  0.86360  0.25000  1.0000
  C   C24       1.0  0.00000  0.36360  0.25000  1.0000
  C   C25       1.0  0.38980  0.50333  0.68093  1.0000
  C   C26       1.0  0.61020  0.50333  0.81907  1.0000
  C   C27       1.0  0.88980  0.00333  0.68093  1.0000
  C   C28       1.0  0.11020  0.00333  0.81907  1.0000
  C   C29       1.0  0.61020  0.49667  0.31907  1.0000
  C   C30       1.0  0.38980  0.49667  0.18093  1.0000
  C   C31       1.0  0.11020  0.99667  0.31907  1.0000
  C   C32       1.0  0.88980  0.99667  0.18093  1.0000
  C   C33       1.0  0.39174  0.11453  0.69097  1.0000
  C   C34       1.0  0.60826  0.11453  0.80903  1.0000
  C   C35       1.0  0.89174  0.61453  0.69097  1.0000
  C   C36       1.0  0.10826  0.61453  0.80903  1.0000
  C   C37       1.0  0.60826  0.88547  0.30903  1.0000
  C   C38       1.0  0.39174  0.88547  0.19097  1.0000
  C   C39       1.0  0.10826  0.38547  0.30903  1.0000
  C   C40       1.0  0.89174  0.38547  0.19097  1.0000
  H   H1        1.0  0.50000  0.61070  0.75000  1.0000
  H   H2        1.0  0.00000  0.11070  0.75000  1.0000
  H   H3        1.0  0.50000  0.38930  0.25000  1.0000
  H   H4        1.0  0.00000  0.88930  0.25000  1.0000
  H   H5        1.0  0.50000  0.01290  0.75000  1.0000
  H   H6        1.0  0.00000  0.51290  0.75000  1.0000
  H   H7        1.0  0.50000  0.98710  0.25000  1.0000
  H   H8        1.0  0.00000  0.48710  0.25000  1.0000
  H   H9        1.0  0.13510  0.69090  0.58920  1.0000
  H   H10       1.0  0.86490  0.69090  0.91080  1.0000
  H   H11       1.0  0.63510  0.19090  0.58920  1.0000
  H   H12       1.0  0.36490  0.19090  0.91080  1.0000
  H   H13       1.0  0.86490  0.30910  0.41080  1.0000
  H   H14       1.0  0.13510  0.30910  0.08920  1.0000
  H   H15       1.0  0.36490  0.80910  0.41080  1.0000
  H   H16       1.0  0.63510  0.80910  0.08920  1.0000
  H   H17       1.0  0.27220  0.49860  0.58850  1.0000
  H   H18       1.0  0.72780  0.49860  0.91150  1.0000
  H   H19       1.0  0.77220  0.99860  0.58850  1.0000
  H   H20       1.0  0.22780  0.99860  0.91150  1.0000
  H   H21       1.0  0.72780  0.50140  0.41150  1.0000
  H   H22       1.0  0.27220  0.50140  0.08850  1.0000
  H   H23       1.0  0.22780  0.00140  0.41150  1.0000
  H   H24       1.0  0.77220  0.00140  0.08850  1.0000
