data_image0
_chemical_formula_structural       Zn8P8O64C40H24
_chemical_formula_sum              "Zn8 P8 O64 C40 H24"
_cell_length_a       25.265
_cell_length_b       7.8436
_cell_length_c       18.643
_cell_angle_alpha    90
_cell_angle_beta     116.385
_cell_angle_gamma    90

_space_group_name_H-M_alt    "P 1"
_space_group_IT_number       1

loop_
  _space_group_symop_operation_xyz
  'x, y, z'

loop_
  _atom_site_type_symbol
  _atom_site_label
  _atom_site_symmetry_multiplicity
  _atom_site_fract_x
  _atom_site_fract_y
  _atom_site_fract_z
  _atom_site_occupancy
  Zn  Zn1       1.0  0.33733  0.68231  0.61326  1.0000
  Zn  Zn2       1.0  0.66267  0.68231  0.88674  1.0000
  Zn  Zn3       1.0  0.83733  0.18231  0.61326  1.0000
  Zn  Zn4       1.0  0.16267  0.18231  0.88674  1.0000
  Zn  Zn5       1.0  0.66267  0.31769  0.38674  1.0000
  Zn  Zn6       1.0  0.33733  0.31769  0.11326  1.0000
  Zn  Zn7       1.0  0.16267  0.81769  0.38674  1.0000
  Zn  Zn8       1.0  0.83733  0.81769  0.11326  1.0000
  P   P1        1.0  0.28866  0.69803  0.42970  1.0000
  P   P2        1.0  0.71134  0.69803  0.07030  1.0000
  P   P3        1.0  0.78866  0.19803  0.42970  1.0000
  P   P4        1.0  0.21134  0.19803  0.07030  1.0000
  P   P5        1.0  0.71134  0.30197  0.57030  1.0000
  P   P6        1.0  0.28866  0.30197  0.92970  1.0000
  P   P7        1.0  0.21134  0.80197  0.57030  1.0000
  P   P8        1.0  0.78866  0.80197  0.92970  1.0000
  O   O1        1.0  0.32756  0.77171  0.51115  1.0000
  O   O2        1.0  0.67244  0.77171  0.98885  1.0000
  O   O3        1.0  0.82756  0.27171  0.51115  1.0000
  O   O4        1.0  0.17244  0.27171  0.98885  1.0000
  O   O5        1.0  0.67244  0.22829  0.48885  1.0000
  O   O6        1.0  0.32756  0.22829  0.01115  1.0000
  O   O7        1.0  0.17244  0.72829  0.48885  1.0000
  O   O8        1.0  0.82756  0.72829  0.01115  1.0000
  O   O9        1.0  0.23558  0.80603  0.37757  1.0000
  O   O10       1.0  0.76442  0.80603  0.12243  1.0000
  O   O11       1.0  0.73558  0.30603  0.37757  1.0000
  O   O12       1.0  0.26442  0.30603  0.12243  1.0000
  O   O13       1.0  0.76442  0.19397  0.62243  1.0000
  O   O14       1.0  0.23558  0.19397  0.87757  1.0000
  O   O15       1.0  0.26442  0.69397  0.62243  1.0000
  O   O16       1.0  0.73558  0.69397  0.87757  1.0000
  O   O17       1.0  0.32568  0.67264  0.38260  1.0000
  O   O18       1.0  0.67432  0.67264  0.11740  1.0000
  O   O19       1.0  0.82568  0.17264  0.38260  1.0000
  O   O20       1.0  0.17432  0.17264  0.11740  1.0000
  O   O21       1.0  0.67432  0.32736  0.61740  1.0000
  O   O22       1.0  0.32568  0.32736  0.88260  1.0000
  O   O23       1.0  0.17432  0.82736  0.61740  1.0000
  O   O24       1.0  0.82568  0.82736  0.88260  1.0000
  O   O25       1.0  0.26647  0.51818  0.44211  1.0000
  O   O26       1.0  0.73353  0.51818  0.05789  1.0000
  O   O27       1.0  0.76647  0.01818  0.44211  1.0000
  O   O28       1.0  0.23353  0.01818  0.05789  1.0000
  O   O29       1.0  0.73353  0.48182  0.55789  1.0000
  O   O30       1.0  0.26647  0.48182  0.94211  1.0000
  O   O31       1.0  0.23353  0.98182  0.55789  1.0000
  O   O32       1.0  0.76647  0.98182  0.94211  1.0000
  O   O33       1.0  0.39533  0.83636  0.69246  1.0000
  O   O34       1.0  0.60467  0.83636  0.80754  1.0000
  O   O35       1.0  0.89533  0.33636  0.69246  1.0000
  O   O36       1.0  0.10467  0.33636  0.80754  1.0000
  O   O37       1.0  0.60467  0.16364  0.30754  1.0000
  O   O38       1.0  0.39533  0.16364  0.19246  1.0000
  O   O39       1.0  0.10467  0.66364  0.30754  1.0000
  O   O40       1.0  0.89533  0.66364  0.19246  1.0000
  O   O41       1.0  0.34293  0.07440  0.63995  1.0000
  O   O42       1.0  0.65707  0.07440  0.86005  1.0000
  O   O43       1.0  0.84293  0.57440  0.63995  1.0000
  O   O44       1.0  0.15707  0.57440  0.86005  1.0000
  O   O45       1.0  0.65707  0.92560  0.36005  1.0000
  O   O46       1.0  0.34293  0.92560  0.13995  1.0000
  O   O47       1.0  0.15707  0.42560  0.36005  1.0000
  O   O48       1.0  0.84293  0.42560  0.13995  1.0000
  O   O49       1.0  0.37996  0.46833  0.62678  1.0000
  O   O50       1.0  0.62004  0.46833  0.87322  1.0000
  O   O51       1.0  0.87996  0.96833  0.62678  1.0000
  O   O52       1.0  0.12004  0.96833  0.87322  1.0000
  O   O53       1.0  0.62004  0.53167  0.37322  1.0000
  O   O54       1.0  0.37996  0.53167  0.12678  1.0000
  O   O55       1.0  0.12004  0.03167  0.37322  1.0000
  O   O56       1.0  0.87996  0.03167  0.12678  1.0000
  O   O57       1.0  0.36557  0.39937  0.73349  1.0000
  O   O58       1.0  0.63443  0.39937  0.76651  1.0000
  O   O59       1.0  0.86557  0.89937  0.73349  1.0000
  O   O60       1.0  0.13443  0.89937  0.76651  1.0000
  O   O61       1.0  0.63443  0.60063  0.26651  1.0000
  O   O62       1.0  0.36557  0.60063  0.23349  1.0000
  O   O63       1.0  0.13443  0.10063  0.26651  1.0000
  O   O64       1.0  0.86557  0.10063  0.23349  1.0000
  C   C1        1.0  0.50000  0.01140  0.75000  1.0000
  C   C2        1.0  0.00000  0.51140  0.75000  1.0000
  C   C3        1.0  0.50000  0.98860  0.25000  1.0000
  C   C4        1.0  0.00000  0.48860  0.25000  1.0000
  C   C5        1.0  0.44621  0.09808  0.71868  1.0000
  C   C6        1.0  0.55379  0.09808  0.78132  1.0000
  C   C7        1.0  0.94621  0.59808  0.71868  1.0000
  C   C8        1.0  0.05379  0.59808  0.78132  1.0000
  C   C9        1.0  0.55379  0.90192  0.28132  1.0000
  C   C10       1.0  0.44621  0.90192  0.21868  1.0000
  C   C11       1.0  0.05379  0.40192  0.28132  1.0000
  C   C12       1.0  0.94621  0.40192  0.21868  1.0000
  C   C13       1.0  0.44643  0.27607  0.71930  1.0000
  C   C14       1.0  0.55357  0.27607  0.78070  1.0000
  C   C15       1.0  0.94643  0.77607  0.71930  1.0000
  C   C16       1.0  0.05357  0.77607  0.78070  1.0000
  C   C17       1.0  0.55357  0.72393  0.28070  1.0000
  C   C18       1.0  0.44643  0.72393  0.21930  1.0000
  C   C19       1.0  0.05357  0.22393  0.28070  1.0000
  C   C20       1.0  0.94643  0.22393  0.21930  1.0000
  C   C21       1.0  0.50000  0.36350  0.75000  1.0000
  C   C22       1.0  0.00000  0.86350  0.75000  1.0000
  C   C23       1.0  0.50000  0.63650  0.25000  1.0000
  C   C24       1.0  0.00000  0.13650  0.25000  1.0000
  C   C25       1.0  0.38984  0.99720  0.68099  1.0000
  C   C26       1.0  0.61016  0.99720  0.81901  1.0000
  C   C27       1.0  0.88984  0.49720  0.68099  1.0000
  C   C28       1.0  0.11016  0.49720  0.81901  1.0000
  C   C29       1.0  0.61016  0.00280  0.31901  1.0000
  C   C30       1.0  0.38984  0.00280  0.18099  1.0000
  C   C31       1.0  0.11016  0.50280  0.31901  1.0000
  C   C32       1.0  0.88984  0.50280  0.18099  1.0000
  C   C33       1.0  0.39177  0.38561  0.69099  1.0000
  C   C34       1.0  0.60823  0.38561  0.80901  1.0000
  C   C35       1.0  0.89177  0.88561  0.69099  1.0000
  C   C36       1.0  0.10823  0.88561  0.80901  1.0000
  C   C37       1.0  0.60823  0.61439  0.30901  1.0000
  C   C38       1.0  0.39177  0.61439  0.19099  1.0000
  C   C39       1.0  0.10823  0.11439  0.30901  1.0000
  C   C40       1.0  0.89177  0.11439  0.19099  1.0000
  H   H1        1.0  0.50000  0.89540  0.75000  1.0000
  H   H2        1.0  0.00000  0.39540  0.75000  1.0000
  H   H3        1.0  0.50000  0.10460  0.25000  1.0000
  H   H4        1.0  0.00000  0.60460  0.25000  1.0000
  H   H5        1.0  0.50000  0.48190  0.75000  1.0000
  H   H6        1.0  0.00000  0.98190  0.75000  1.0000
  H   H7        1.0  0.50000  0.51810  0.25000  1.0000
  H   H8        1.0  0.00000  0.01810  0.25000  1.0000
  H   H9        1.0  0.36390  0.68810  0.40590  1.0000
  H   H10       1.0  0.63610  0.68810  0.09410  1.0000
  H   H11       1.0  0.86390  0.18810  0.40590  1.0000
  H   H12       1.0  0.13610  0.18810  0.09410  1.0000
  H   H13       1.0  0.63610  0.31190  0.59410  1.0000
  H   H14       1.0  0.36390  0.31190  0.90590  1.0000
  H   H15       1.0  0.13610  0.81190  0.59410  1.0000
  H   H16       1.0  0.86390  0.81190  0.90590  1.0000
  H   H17       1.0  0.22830  0.49780  0.41230  1.0000
  H   H18       1.0  0.77170  0.49780  0.08770  1.0000
  H   H19       1.0  0.72830  0.99780  0.41230  1.0000
  H   H20       1.0  0.27170  0.99780  0.08770  1.0000
  H   H21       1.0  0.77170  0.50220  0.58770  1.0000
  H   H22       1.0  0.22830  0.50220  0.91230  1.0000
  H   H23       1.0  0.27170  0.00220  0.58770  1.0000
  H   H24       1.0  0.72830  0.00220  0.91230  1.0000
