data_image0
_chemical_formula_structural       Zn4O32C8H4C8H4C8H4C12H4C8H4C4H4C16H4C8H4C4H4C8H4C8H4C4H4
_chemical_formula_sum              "Zn4 O32 C96 H48"
_cell_length_a       10.195
_cell_length_b       21.342
_cell_length_c       18.533
_cell_angle_alpha    90
_cell_angle_beta     102.96
_cell_angle_gamma    90

_space_group_name_H-M_alt    "P 1"
_space_group_IT_number       1

loop_
  _space_group_symop_operation_xyz
  'x, y, z'

loop_
  _atom_site_type_symbol
  _atom_site_label
  _atom_site_symmetry_multiplicity
  _atom_site_fract_x
  _atom_site_fract_y
  _atom_site_fract_z
  _atom_site_occupancy
  Zn  Zn1       1.0  0.34843  0.65082  0.78606  1.0000
  Zn  Zn2       1.0  0.65157  0.15082  0.71394  1.0000
  Zn  Zn3       1.0  0.65157  0.34918  0.21394  1.0000
  Zn  Zn4       1.0  0.34843  0.84918  0.28606  1.0000
  O   O1        1.0  0.35680  0.52900  0.88370  1.0000
  O   O2        1.0  0.64320  0.02900  0.61630  1.0000
  O   O3        1.0  0.64320  0.47100  0.11630  1.0000
  O   O4        1.0  0.35680  0.97100  0.38370  1.0000
  O   O5        1.0  0.23870  0.61577  0.84980  1.0000
  O   O6        1.0  0.76130  0.11577  0.65020  1.0000
  O   O7        1.0  0.76130  0.38423  0.15020  1.0000
  O   O8        1.0  0.23870  0.88423  0.34980  1.0000
  O   O9        1.0  0.13060  0.73040  0.29480  1.0000
  O   O10       1.0  0.86940  0.23040  0.20520  1.0000
  O   O11       1.0  0.86940  0.26960  0.70520  1.0000
  O   O12       1.0  0.13060  0.76960  0.79480  1.0000
  O   O13       1.0  0.23000  0.78911  0.22220  1.0000
  O   O14       1.0  0.77000  0.28911  0.27780  1.0000
  O   O15       1.0  0.77000  0.21089  0.77780  1.0000
  O   O16       1.0  0.23000  0.71089  0.72220  1.0000
  O   O17       1.0  0.22750  0.55910  0.66010  1.0000
  O   O18       1.0  0.77250  0.05910  0.83990  1.0000
  O   O19       1.0  0.77250  0.44090  0.33990  1.0000
  O   O20       1.0  0.22750  0.94090  0.16010  1.0000
  O   O21       1.0  0.42470  0.60080  0.71744  1.0000
  O   O22       1.0  0.57530  0.10080  0.78256  1.0000
  O   O23       1.0  0.57530  0.39920  0.28256  1.0000
  O   O24       1.0  0.42470  0.89920  0.21744  1.0000
  O   O25       1.0  0.61620  0.72447  0.78150  1.0000
  O   O26       1.0  0.38380  0.22447  0.71850  1.0000
  O   O27       1.0  0.38380  0.27553  0.21850  1.0000
  O   O28       1.0  0.61620  0.77553  0.28150  1.0000
  O   O29       1.0  0.49870  0.68466  0.85940  1.0000
  O   O30       1.0  0.50130  0.18466  0.64060  1.0000
  O   O31       1.0  0.50130  0.31534  0.14060  1.0000
  O   O32       1.0  0.49870  0.81534  0.35940  1.0000
  C   C1        1.0  0.26350  0.56570  0.88680  1.0000
  C   C2        1.0  0.73650  0.06570  0.61320  1.0000
  C   C3        1.0  0.73650  0.43430  0.11320  1.0000
  C   C4        1.0  0.26350  0.93430  0.38680  1.0000
  C   C5        1.0  0.10060  0.60000  0.96350  1.0000
  C   C6        1.0  0.89940  0.10000  0.53650  1.0000
  C   C7        1.0  0.89940  0.40000  0.03650  1.0000
  C   C8        1.0  0.10060  0.90000  0.46350  1.0000
  H   H1        1.0  0.12250  0.64130  0.95560  1.0000
  H   H2        1.0  0.87750  0.14130  0.54440  1.0000
  H   H3        1.0  0.87750  0.35870  0.04440  1.0000
  H   H4        1.0  0.12250  0.85870  0.45560  1.0000
  C   C9        1.0  0.16670  0.55020  0.93500  1.0000
  C   C10       1.0  0.83330  0.05020  0.56500  1.0000
  C   C11       1.0  0.83330  0.44980  0.06500  1.0000
  C   C12       1.0  0.16670  0.94980  0.43500  1.0000
  C   C13       1.0  0.13480  0.48970  0.94680  1.0000
  C   C14       1.0  0.86520  0.98970  0.55320  1.0000
  C   C15       1.0  0.86520  0.51030  0.05320  1.0000
  C   C16       1.0  0.13480  0.01030  0.44680  1.0000
  H   H5        1.0  0.18060  0.45740  0.92950  1.0000
  H   H6        1.0  0.81940  0.95740  0.57050  1.0000
  H   H7        1.0  0.81940  0.54260  0.07050  1.0000
  H   H8        1.0  0.18060  0.04260  0.42950  1.0000
  C   C17       1.0  0.03240  0.47520  0.98550  1.0000
  C   C18       1.0  0.96760  0.97520  0.51450  1.0000
  C   C19       1.0  0.96760  0.52480  0.01450  1.0000
  C   C20       1.0  0.03240  0.02480  0.48550  1.0000
  C   C21       1.0  0.00480  0.58710  0.00250  1.0000
  C   C22       1.0  0.99520  0.08710  0.49750  1.0000
  C   C23       1.0  0.99520  0.41290  0.99750  1.0000
  C   C24       1.0  0.00480  0.91290  0.50250  1.0000
  H   H9        1.0  0.96320  0.62000  0.02160  1.0000
  H   H10       1.0  0.03680  0.12000  0.47840  1.0000
  H   H11       1.0  0.03680  0.38000  0.97840  1.0000
  H   H12       1.0  0.96320  0.88000  0.52160  1.0000
  C   C25       1.0  0.13420  0.75450  0.23410  1.0000
  C   C26       1.0  0.86580  0.25450  0.26590  1.0000
  C   C27       1.0  0.86580  0.24550  0.76590  1.0000
  C   C28       1.0  0.13420  0.74550  0.73410  1.0000
  C   C29       1.0  0.35050  0.56810  0.66670  1.0000
  C   C30       1.0  0.64950  0.06810  0.83330  1.0000
  C   C31       1.0  0.64950  0.43190  0.33330  1.0000
  C   C32       1.0  0.35050  0.93190  0.16670  1.0000
  C   C33       1.0  0.36370  0.53760  0.53860  1.0000
  C   C34       1.0  0.63630  0.03760  0.96140  1.0000
  C   C35       1.0  0.63630  0.46240  0.46140  1.0000
  C   C36       1.0  0.36370  0.96240  0.03860  1.0000
  H   H13       1.0  0.27690  0.55310  0.52200  1.0000
  H   H14       1.0  0.72310  0.05310  0.97800  1.0000
  H   H15       1.0  0.72310  0.44690  0.47800  1.0000
  H   H16       1.0  0.27690  0.94690  0.02200  1.0000
  C   C37       1.0  0.42280  0.53900  0.61270  1.0000
  C   C38       1.0  0.57720  0.03900  0.88730  1.0000
  C   C39       1.0  0.57720  0.46100  0.38730  1.0000
  C   C40       1.0  0.42280  0.96100  0.11270  1.0000
  C   C41       1.0  0.55320  0.51470  0.63880  1.0000
  C   C42       1.0  0.44680  0.01470  0.86120  1.0000
  C   C43       1.0  0.44680  0.48530  0.36120  1.0000
  C   C44       1.0  0.55320  0.98530  0.13880  1.0000
  H   H17       1.0  0.59260  0.51620  0.68920  1.0000
  H   H18       1.0  0.40740  0.01620  0.81080  1.0000
  H   H19       1.0  0.40740  0.48380  0.31080  1.0000
  H   H20       1.0  0.59260  0.98380  0.18920  1.0000
  C   C45       1.0  0.62320  0.48850  0.59050  1.0000
  C   C46       1.0  0.37680  0.98850  0.90950  1.0000
  C   C47       1.0  0.37680  0.51150  0.40950  1.0000
  C   C48       1.0  0.62320  0.01150  0.09050  1.0000
  H   H21       1.0  0.70820  0.47140  0.60830  1.0000
  H   H22       1.0  0.29180  0.97140  0.89170  1.0000
  H   H23       1.0  0.29180  0.52860  0.39170  1.0000
  H   H24       1.0  0.70820  0.02860  0.10830  1.0000
  C   C49       1.0  0.43490  0.51220  0.48600  1.0000
  C   C50       1.0  0.56510  0.01220  0.01400  1.0000
  C   C51       1.0  0.56510  0.48780  0.51400  1.0000
  C   C52       1.0  0.43490  0.98780  0.98600  1.0000
  C   C53       1.0  0.60240  0.70970  0.84420  1.0000
  C   C54       1.0  0.39760  0.20970  0.65580  1.0000
  C   C55       1.0  0.39760  0.29030  0.15580  1.0000
  C   C56       1.0  0.60240  0.79030  0.34420  1.0000
  C   C57       1.0  0.71690  0.72190  0.91070  1.0000
  C   C58       1.0  0.28310  0.22190  0.58930  1.0000
  C   C59       1.0  0.28310  0.27810  0.08930  1.0000
  C   C60       1.0  0.71690  0.77810  0.41070  1.0000
  C   C61       1.0  0.70580  0.70280  0.97990  1.0000
  C   C62       1.0  0.29420  0.20280  0.52010  1.0000
  C   C63       1.0  0.29420  0.29720  0.02010  1.0000
  C   C64       1.0  0.70580  0.79720  0.47990  1.0000
  H   H25       1.0  0.62890  0.68160  0.98540  1.0000
  H   H26       1.0  0.37110  0.18160  0.51460  1.0000
  H   H27       1.0  0.37110  0.31840  0.01460  1.0000
  H   H28       1.0  0.62890  0.81840  0.48540  1.0000
  C   C65       1.0  0.81120  0.71500  0.04370  1.0000
  C   C66       1.0  0.18880  0.21500  0.45630  1.0000
  C   C67       1.0  0.18880  0.28500  0.95630  1.0000
  C   C68       1.0  0.81120  0.78500  0.54370  1.0000
  C   C69       1.0  0.80370  0.69560  0.11540  1.0000
  C   C70       1.0  0.19630  0.19560  0.38460  1.0000
  C   C71       1.0  0.19630  0.30440  0.88460  1.0000
  C   C72       1.0  0.80370  0.80440  0.61540  1.0000
  H   H29       1.0  0.72790  0.67400  0.12180  1.0000
  H   H30       1.0  0.27210  0.17400  0.37820  1.0000
  H   H31       1.0  0.27210  0.32600  0.87820  1.0000
  H   H32       1.0  0.72790  0.82600  0.62180  1.0000
  C   C73       1.0  0.90520  0.70770  0.17560  1.0000
  C   C74       1.0  0.09480  0.20770  0.32440  1.0000
  C   C75       1.0  0.09480  0.29230  0.82440  1.0000
  C   C76       1.0  0.90520  0.79230  0.67560  1.0000
  H   H33       1.0  0.89830  0.69430  0.22240  1.0000
  H   H34       1.0  0.10170  0.19430  0.27760  1.0000
  H   H35       1.0  0.10170  0.30570  0.77760  1.0000
  H   H36       1.0  0.89830  0.80570  0.72240  1.0000
  C   C77       1.0  0.02160  0.74090  0.16670  1.0000
  C   C78       1.0  0.97840  0.24090  0.33330  1.0000
  C   C79       1.0  0.97840  0.25910  0.83330  1.0000
  C   C80       1.0  0.02160  0.75910  0.66670  1.0000
  C   C81       1.0  0.03120  0.76030  0.09830  1.0000
  C   C82       1.0  0.96880  0.26030  0.40170  1.0000
  C   C83       1.0  0.96880  0.23970  0.90170  1.0000
  C   C84       1.0  0.03120  0.73970  0.59830  1.0000
  H   H37       1.0  0.10730  0.78230  0.09310  1.0000
  H   H38       1.0  0.89270  0.28230  0.40690  1.0000
  H   H39       1.0  0.89270  0.21770  0.90690  1.0000
  H   H40       1.0  0.10730  0.71770  0.59310  1.0000
  C   C85       1.0  0.92710  0.74780  0.03390  1.0000
  C   C86       1.0  0.07290  0.24780  0.46610  1.0000
  C   C87       1.0  0.07290  0.25220  0.96610  1.0000
  C   C88       1.0  0.92710  0.75220  0.53390  1.0000
  C   C89       1.0  0.93620  0.76740  0.96180  1.0000
  C   C90       1.0  0.06380  0.26740  0.53820  1.0000
  C   C91       1.0  0.06380  0.23260  0.03820  1.0000
  C   C92       1.0  0.93620  0.73260  0.46180  1.0000
  H   H41       1.0  0.01190  0.78900  0.95530  1.0000
  H   H42       1.0  0.98810  0.28900  0.54470  1.0000
  H   H43       1.0  0.98810  0.21100  0.04470  1.0000
  H   H44       1.0  0.01190  0.71100  0.45530  1.0000
  C   C93       1.0  0.83370  0.75440  0.90210  1.0000
  C   C94       1.0  0.16630  0.25440  0.59790  1.0000
  C   C95       1.0  0.16630  0.24560  0.09790  1.0000
  C   C96       1.0  0.83370  0.74560  0.40210  1.0000
  H   H45       1.0  0.84080  0.76710  0.85510  1.0000
  H   H46       1.0  0.15920  0.26710  0.64490  1.0000
  H   H47       1.0  0.15920  0.23290  0.14490  1.0000
  H   H48       1.0  0.84080  0.73290  0.35510  1.0000
