data_image0
_chemical_formula_structural       Zn8P8O48C32H24
_chemical_formula_sum              "Zn8 P8 O48 C32 H24"
_cell_length_a       27.581
_cell_length_b       9.1114
_cell_length_c       9.9791
_cell_angle_alpha    90
_cell_angle_beta     92.213
_cell_angle_gamma    90

_space_group_name_H-M_alt    "P 1"
_space_group_IT_number       1

loop_
  _space_group_symop_operation_xyz
  'x, y, z'

loop_
  _atom_site_type_symbol
  _atom_site_label
  _atom_site_symmetry_multiplicity
  _atom_site_fract_x
  _atom_site_fract_y
  _atom_site_fract_z
  _atom_site_occupancy
  Zn  Zn1       1.0  0.95052  0.17781  0.40378  1.0000
  Zn  Zn2       1.0  0.95052  0.32219  0.90378  1.0000
  Zn  Zn3       1.0  0.04948  0.82219  0.59622  1.0000
  Zn  Zn4       1.0  0.04948  0.67781  0.09622  1.0000
  Zn  Zn5       1.0  0.54840  0.17815  0.41193  1.0000
  Zn  Zn6       1.0  0.54840  0.32185  0.91193  1.0000
  Zn  Zn7       1.0  0.45160  0.82185  0.58807  1.0000
  Zn  Zn8       1.0  0.45160  0.67815  0.08807  1.0000
  P   P1        1.0  0.97344  0.08033  0.69538  1.0000
  P   P2        1.0  0.97344  0.41967  0.19538  1.0000
  P   P3        1.0  0.02656  0.91967  0.30462  1.0000
  P   P4        1.0  0.02656  0.58033  0.80462  1.0000
  P   P5        1.0  0.52339  0.07746  0.69892  1.0000
  P   P6        1.0  0.52339  0.42254  0.19892  1.0000
  P   P7        1.0  0.47661  0.92254  0.30108  1.0000
  P   P8        1.0  0.47661  0.57746  0.80108  1.0000
  O   O1        1.0  0.96743  0.20310  0.59380  1.0000
  O   O2        1.0  0.96743  0.29690  0.09380  1.0000
  O   O3        1.0  0.03257  0.79690  0.40620  1.0000
  O   O4        1.0  0.03257  0.70310  0.90620  1.0000
  O   O5        1.0  0.97827  0.14310  0.83870  1.0000
  O   O6        1.0  0.97827  0.35690  0.33870  1.0000
  O   O7        1.0  0.02173  0.85690  0.16130  1.0000
  O   O8        1.0  0.02173  0.64310  0.66130  1.0000
  O   O9        1.0  0.01629  0.98480  0.67150  1.0000
  O   O10       1.0  0.01629  0.51520  0.17150  1.0000
  O   O11       1.0  0.98371  0.01520  0.32850  1.0000
  O   O12       1.0  0.98371  0.48480  0.82850  1.0000
  O   O13       1.0  0.92634  0.98090  0.68740  1.0000
  O   O14       1.0  0.92634  0.51910  0.18740  1.0000
  O   O15       1.0  0.07366  0.01910  0.31260  1.0000
  O   O16       1.0  0.07366  0.48090  0.81260  1.0000
  O   O17       1.0  0.53279  0.19740  0.59760  1.0000
  O   O18       1.0  0.53279  0.30260  0.09760  1.0000
  O   O19       1.0  0.46721  0.80260  0.40240  1.0000
  O   O20       1.0  0.46721  0.69740  0.90240  1.0000
  O   O21       1.0  0.47579  0.99810  0.67340  1.0000
  O   O22       1.0  0.47579  0.50190  0.17340  1.0000
  O   O23       1.0  0.52421  0.00190  0.32660  1.0000
  O   O24       1.0  0.52421  0.49810  0.82660  1.0000
  O   O25       1.0  0.52322  0.13790  0.84090  1.0000
  O   O26       1.0  0.52322  0.36210  0.34090  1.0000
  O   O27       1.0  0.47678  0.86210  0.15910  1.0000
  O   O28       1.0  0.47678  0.63790  0.65910  1.0000
  O   O29       1.0  0.56482  0.95960  0.68890  1.0000
  O   O30       1.0  0.56482  0.54040  0.18890  1.0000
  O   O31       1.0  0.43518  0.04040  0.31110  1.0000
  O   O32       1.0  0.43518  0.45960  0.81110  1.0000
  O   O33       1.0  0.88170  0.13250  0.38040  1.0000
  O   O34       1.0  0.88170  0.36750  0.88040  1.0000
  O   O35       1.0  0.11830  0.86750  0.61960  1.0000
  O   O36       1.0  0.11830  0.63250  0.11960  1.0000
  O   O37       1.0  0.61808  0.16570  0.38400  1.0000
  O   O38       1.0  0.61808  0.33430  0.88400  1.0000
  O   O39       1.0  0.38192  0.83430  0.61600  1.0000
  O   O40       1.0  0.38192  0.66570  0.11600  1.0000
  O   O41       1.0  0.85689  0.30540  0.23610  1.0000
  O   O42       1.0  0.85689  0.19460  0.73610  1.0000
  O   O43       1.0  0.14311  0.69460  0.76390  1.0000
  O   O44       1.0  0.14311  0.80540  0.26390  1.0000
  O   O45       1.0  0.64349  0.04080  0.56590  1.0000
  O   O46       1.0  0.64349  0.45920  0.06590  1.0000
  O   O47       1.0  0.35651  0.95920  0.43410  1.0000
  O   O48       1.0  0.35651  0.54080  0.93410  1.0000
  C   C1        1.0  0.84967  0.20440  0.31580  1.0000
  C   C2        1.0  0.84967  0.29560  0.81580  1.0000
  C   C3        1.0  0.15033  0.79560  0.68420  1.0000
  C   C4        1.0  0.15033  0.70440  0.18420  1.0000
  C   C5        1.0  0.79806  0.16450  0.34660  1.0000
  C   C6        1.0  0.79806  0.33550  0.84660  1.0000
  C   C7        1.0  0.20194  0.83550  0.65340  1.0000
  C   C8        1.0  0.20194  0.66450  0.15340  1.0000
  C   C9        1.0  0.76002  0.23200  0.27210  1.0000
  C   C10       1.0  0.76002  0.26800  0.77210  1.0000
  C   C11       1.0  0.23998  0.76800  0.72790  1.0000
  C   C12       1.0  0.23998  0.73200  0.22790  1.0000
  C   C13       1.0  0.71243  0.20880  0.30530  1.0000
  C   C14       1.0  0.71243  0.29120  0.80530  1.0000
  C   C15       1.0  0.28757  0.79120  0.69470  1.0000
  C   C16       1.0  0.28757  0.70880  0.19470  1.0000
  C   C17       1.0  0.70202  0.11910  0.41410  1.0000
  C   C18       1.0  0.70202  0.38090  0.91410  1.0000
  C   C19       1.0  0.29798  0.88090  0.58590  1.0000
  C   C20       1.0  0.29798  0.61910  0.08590  1.0000
  C   C21       1.0  0.73958  0.04560  0.48220  1.0000
  C   C22       1.0  0.73958  0.45440  0.98220  1.0000
  C   C23       1.0  0.26042  0.95440  0.51780  1.0000
  C   C24       1.0  0.26042  0.54560  0.01780  1.0000
  C   C25       1.0  0.78742  0.07000  0.44980  1.0000
  C   C26       1.0  0.78742  0.43000  0.94980  1.0000
  C   C27       1.0  0.21258  0.93000  0.55020  1.0000
  C   C28       1.0  0.21258  0.57000  0.05020  1.0000
  C   C29       1.0  0.65042  0.10560  0.45980  1.0000
  C   C30       1.0  0.65042  0.39440  0.95980  1.0000
  C   C31       1.0  0.34958  0.89440  0.54020  1.0000
  C   C32       1.0  0.34958  0.60560  0.04020  1.0000
  H   H1        1.0  0.76620  0.31040  0.18460  1.0000
  H   H2        1.0  0.76620  0.18960  0.68460  1.0000
  H   H3        1.0  0.23380  0.68960  0.81540  1.0000
  H   H4        1.0  0.23380  0.81040  0.31540  1.0000
  H   H5        1.0  0.67110  0.25760  0.28000  1.0000
  H   H6        1.0  0.67110  0.24240  0.78000  1.0000
  H   H7        1.0  0.32890  0.74240  0.72000  1.0000
  H   H8        1.0  0.32890  0.75760  0.22000  1.0000
  H   H9        1.0  0.90130  0.03490  0.70120  1.0000
  H   H10       1.0  0.90130  0.46510  0.20120  1.0000
  H   H11       1.0  0.09870  0.96510  0.29880  1.0000
  H   H12       1.0  0.09870  0.53490  0.79880  1.0000
  H   H13       1.0  0.73030  0.98360  0.56240  1.0000
  H   H14       1.0  0.73030  0.51640  0.06240  1.0000
  H   H15       1.0  0.26970  0.01640  0.43760  1.0000
  H   H16       1.0  0.26970  0.48360  0.93760  1.0000
  H   H17       1.0  0.82060  0.02400  0.51740  1.0000
  H   H18       1.0  0.82060  0.47600  0.01740  1.0000
  H   H19       1.0  0.17940  0.97600  0.48260  1.0000
  H   H20       1.0  0.17940  0.52400  0.98260  1.0000
  H   H21       1.0  0.58870  0.99760  0.64720  1.0000
  H   H22       1.0  0.58870  0.50240  0.14720  1.0000
  H   H23       1.0  0.41130  0.00240  0.35280  1.0000
  H   H24       1.0  0.41130  0.49760  0.85280  1.0000
