data_image0
_chemical_formula_structural       Cd2Cl4O4C6H2C2H2C2H2C6H2
_chemical_formula_sum              "Cd2 Cl4 O4 C16 H8"
_cell_length_a       7.2223
_cell_length_b       8.2583
_cell_length_c       11.575
_cell_angle_alpha    104.61
_cell_angle_beta     101.05
_cell_angle_gamma    99.64

_space_group_name_H-M_alt    "P 1"
_space_group_IT_number       1

loop_
  _space_group_symop_operation_xyz
  'x, y, z'

loop_
  _atom_site_type_symbol
  _atom_site_label
  _atom_site_symmetry_multiplicity
  _atom_site_fract_x
  _atom_site_fract_y
  _atom_site_fract_z
  _atom_site_occupancy
  Cd  Cd1       1.0  0.00000  0.00000  0.00000  1.0000
  Cd  Cd2       1.0  0.50000  0.00000  0.00000  1.0000
  Cl  Cl1       1.0  0.17674  0.78190  0.89479  1.0000
  Cl  Cl2       1.0  0.82326  0.21810  0.10521  1.0000
  Cl  Cl3       1.0  0.32828  0.12816  0.17193  1.0000
  Cl  Cl4       1.0  0.67172  0.87184  0.82807  1.0000
  O   O1        1.0  0.08970  0.17820  0.88470  1.0000
  O   O2        1.0  0.91030  0.82180  0.11530  1.0000
  O   O3        1.0  0.40200  0.18540  0.88890  1.0000
  O   O4        1.0  0.59800  0.81460  0.11110  1.0000
  C   C1        1.0  0.23680  0.20210  0.84290  1.0000
  C   C2        1.0  0.76320  0.79790  0.15710  1.0000
  C   C3        1.0  0.21060  0.25190  0.72570  1.0000
  C   C4        1.0  0.78940  0.74810  0.27430  1.0000
  C   C5        1.0  0.28320  0.41430  0.72470  1.0000
  C   C6        1.0  0.71680  0.58570  0.27530  1.0000
  H   H1        1.0  0.35240  0.49950  0.80080  1.0000
  H   H2        1.0  0.64760  0.50050  0.19920  1.0000
  C   C7        1.0  0.25670  0.46040  0.61340  1.0000
  C   C8        1.0  0.74330  0.53960  0.38660  1.0000
  H   H3        1.0  0.30910  0.57590  0.61470  1.0000
  H   H4        1.0  0.69090  0.42410  0.38530  1.0000
  C   C9        1.0  0.15830  0.34160  0.50570  1.0000
  C   C10       1.0  0.84170  0.65840  0.49430  1.0000
  H   H5        1.0  0.14340  0.37350  0.43090  1.0000
  H   H6        1.0  0.85660  0.62650  0.56910  1.0000
  C   C11       1.0  0.07830  0.16910  0.50140  1.0000
  C   C12       1.0  0.92170  0.83090  0.49860  1.0000
  C   C13       1.0  0.10520  0.12190  0.61260  1.0000
  C   C14       1.0  0.89480  0.87810  0.38740  1.0000
  C   C15       1.0  0.97280  0.04670  0.39110  1.0000
  C   C16       1.0  0.02720  0.95330  0.60890  1.0000
  H   H7        1.0  0.95400  0.07790  0.31860  1.0000
  H   H8        1.0  0.04600  0.92210  0.68140  1.0000
