data_image0
_chemical_formula_structural       W4Fe4N64C40H8C8H8C8H8C16H8C8H8C16H8C8H8C8H8C8H8C8H8
_chemical_formula_sum              "W4 Fe4 N64 C128 H80"
_cell_length_a       21.197
_cell_length_b       11.4973
_cell_length_c       19.052
_cell_angle_alpha    90
_cell_angle_beta     106.369
_cell_angle_gamma    90

_space_group_name_H-M_alt    "P 1"
_space_group_IT_number       1

loop_
  _space_group_symop_operation_xyz
  'x, y, z'

loop_
  _atom_site_type_symbol
  _atom_site_label
  _atom_site_symmetry_multiplicity
  _atom_site_fract_x
  _atom_site_fract_y
  _atom_site_fract_z
  _atom_site_occupancy
  W   W1        1.0  0.50000  0.71156  0.75000  1.0000
  W   W2        1.0  0.00000  0.21156  0.75000  1.0000
  W   W3        1.0  0.50000  0.28844  0.25000  1.0000
  W   W4        1.0  0.00000  0.78844  0.25000  1.0000
  Fe  Fe1       1.0  0.50000  0.50000  0.50000  1.0000
  Fe  Fe2       1.0  0.50000  0.50000  0.00000  1.0000
  Fe  Fe3       1.0  0.00000  0.00000  0.50000  1.0000
  Fe  Fe4       1.0  0.00000  0.00000  0.00000  1.0000
  N   N1        1.0  0.48780  0.57040  0.59650  1.0000
  N   N2        1.0  0.51220  0.57040  0.90350  1.0000
  N   N3        1.0  0.98780  0.07040  0.59650  1.0000
  N   N4        1.0  0.01220  0.07040  0.90350  1.0000
  N   N5        1.0  0.51220  0.42960  0.40350  1.0000
  N   N6        1.0  0.48780  0.42960  0.09650  1.0000
  N   N7        1.0  0.01220  0.92960  0.40350  1.0000
  N   N8        1.0  0.98780  0.92960  0.09650  1.0000
  N   N9        1.0  0.36790  0.54720  0.73260  1.0000
  N   N10       1.0  0.63210  0.54720  0.76740  1.0000
  N   N11       1.0  0.86790  0.04720  0.73260  1.0000
  N   N12       1.0  0.13210  0.04720  0.76740  1.0000
  N   N13       1.0  0.63210  0.45280  0.26740  1.0000
  N   N14       1.0  0.36790  0.45280  0.23260  1.0000
  N   N15       1.0  0.13210  0.95280  0.26740  1.0000
  N   N16       1.0  0.86790  0.95280  0.23260  1.0000
  N   N17       1.0  0.62030  0.84780  0.87180  1.0000
  N   N18       1.0  0.37970  0.84780  0.62820  1.0000
  N   N19       1.0  0.12030  0.34780  0.87180  1.0000
  N   N20       1.0  0.87970  0.34780  0.62820  1.0000
  N   N21       1.0  0.37970  0.15220  0.12820  1.0000
  N   N22       1.0  0.62030  0.15220  0.37180  1.0000
  N   N23       1.0  0.87970  0.65220  0.12820  1.0000
  N   N24       1.0  0.12030  0.65220  0.37180  1.0000
  N   N25       1.0  0.57150  0.87080  0.64920  1.0000
  N   N26       1.0  0.42850  0.87080  0.85080  1.0000
  N   N27       1.0  0.07150  0.37080  0.64920  1.0000
  N   N28       1.0  0.92850  0.37080  0.85080  1.0000
  N   N29       1.0  0.42850  0.12920  0.35080  1.0000
  N   N30       1.0  0.57150  0.12920  0.14920  1.0000
  N   N31       1.0  0.92850  0.62920  0.35080  1.0000
  N   N32       1.0  0.07150  0.62920  0.14920  1.0000
  N   N33       1.0  0.45800  0.65430  0.44180  1.0000
  N   N34       1.0  0.54200  0.65430  0.05820  1.0000
  N   N35       1.0  0.95800  0.15430  0.44180  1.0000
  N   N36       1.0  0.04200  0.15430  0.05820  1.0000
  N   N37       1.0  0.54200  0.34570  0.55820  1.0000
  N   N38       1.0  0.45800  0.34570  0.94180  1.0000
  N   N39       1.0  0.04200  0.84570  0.55820  1.0000
  N   N40       1.0  0.95800  0.84570  0.94180  1.0000
  N   N41       1.0  0.38860  0.76240  0.35910  1.0000
  N   N42       1.0  0.61140  0.76240  0.14090  1.0000
  N   N43       1.0  0.88860  0.26240  0.35910  1.0000
  N   N44       1.0  0.11140  0.26240  0.14090  1.0000
  N   N45       1.0  0.61140  0.23760  0.64090  1.0000
  N   N46       1.0  0.38860  0.23760  0.85910  1.0000
  N   N47       1.0  0.11140  0.73760  0.64090  1.0000
  N   N48       1.0  0.88860  0.73760  0.85910  1.0000
  N   N49       1.0  0.19720  0.90580  0.10540  1.0000
  N   N50       1.0  0.80280  0.90580  0.39460  1.0000
  N   N51       1.0  0.69720  0.40580  0.10540  1.0000
  N   N52       1.0  0.30280  0.40580  0.39460  1.0000
  N   N53       1.0  0.80280  0.09420  0.89460  1.0000
  N   N54       1.0  0.19720  0.09420  0.60540  1.0000
  N   N55       1.0  0.30280  0.59420  0.89460  1.0000
  N   N56       1.0  0.69720  0.59420  0.60540  1.0000
  N   N57       1.0  0.10060  0.93990  0.02740  1.0000
  N   N58       1.0  0.89940  0.93990  0.47260  1.0000
  N   N59       1.0  0.60060  0.43990  0.02740  1.0000
  N   N60       1.0  0.39940  0.43990  0.47260  1.0000
  N   N61       1.0  0.89940  0.06010  0.97260  1.0000
  N   N62       1.0  0.10060  0.06010  0.52740  1.0000
  N   N63       1.0  0.39940  0.56010  0.97260  1.0000
  N   N64       1.0  0.60060  0.56010  0.52740  1.0000
  C   C1        1.0  0.48910  0.61600  0.64960  1.0000
  C   C2        1.0  0.51090  0.61600  0.85040  1.0000
  C   C3        1.0  0.98910  0.11600  0.64960  1.0000
  C   C4        1.0  0.01090  0.11600  0.85040  1.0000
  C   C5        1.0  0.51090  0.38400  0.35040  1.0000
  C   C6        1.0  0.48910  0.38400  0.14960  1.0000
  C   C7        1.0  0.01090  0.88400  0.35040  1.0000
  C   C8        1.0  0.98910  0.88400  0.14960  1.0000
  C   C9        1.0  0.41350  0.60490  0.73930  1.0000
  C   C10       1.0  0.58650  0.60490  0.76070  1.0000
  C   C11       1.0  0.91350  0.10490  0.73930  1.0000
  C   C12       1.0  0.08650  0.10490  0.76070  1.0000
  C   C13       1.0  0.58650  0.39510  0.26070  1.0000
  C   C14       1.0  0.41350  0.39510  0.23930  1.0000
  C   C15       1.0  0.08650  0.89510  0.26070  1.0000
  C   C16       1.0  0.91350  0.89510  0.23930  1.0000
  C   C17       1.0  0.57800  0.80170  0.83000  1.0000
  C   C18       1.0  0.42200  0.80170  0.67000  1.0000
  C   C19       1.0  0.07800  0.30170  0.83000  1.0000
  C   C20       1.0  0.92200  0.30170  0.67000  1.0000
  C   C21       1.0  0.42200  0.19830  0.17000  1.0000
  C   C22       1.0  0.57800  0.19830  0.33000  1.0000
  C   C23       1.0  0.92200  0.69830  0.17000  1.0000
  C   C24       1.0  0.07800  0.69830  0.33000  1.0000
  C   C25       1.0  0.54830  0.81900  0.68690  1.0000
  C   C26       1.0  0.45170  0.81900  0.81310  1.0000
  C   C27       1.0  0.04830  0.31900  0.68690  1.0000
  C   C28       1.0  0.95170  0.31900  0.81310  1.0000
  C   C29       1.0  0.45170  0.18100  0.31310  1.0000
  C   C30       1.0  0.54830  0.18100  0.18690  1.0000
  C   C31       1.0  0.95170  0.68100  0.31310  1.0000
  C   C32       1.0  0.04830  0.68100  0.18690  1.0000
  C   C33       1.0  0.41420  0.65520  0.37730  1.0000
  C   C34       1.0  0.58580  0.65520  0.12270  1.0000
  C   C35       1.0  0.91420  0.15520  0.37730  1.0000
  C   C36       1.0  0.08580  0.15520  0.12270  1.0000
  C   C37       1.0  0.58580  0.34480  0.62270  1.0000
  C   C38       1.0  0.41420  0.34480  0.87730  1.0000
  C   C39       1.0  0.08580  0.84480  0.62270  1.0000
  C   C40       1.0  0.91420  0.84480  0.87730  1.0000
  H   H1        1.0  0.40234  0.58994  0.34772  1.0000
  H   H2        1.0  0.59766  0.58994  0.15228  1.0000
  H   H3        1.0  0.90234  0.08994  0.34772  1.0000
  H   H4        1.0  0.09766  0.08994  0.15228  1.0000
  H   H5        1.0  0.59766  0.41006  0.65228  1.0000
  H   H6        1.0  0.40234  0.41006  0.84772  1.0000
  H   H7        1.0  0.09766  0.91006  0.65228  1.0000
  H   H8        1.0  0.90234  0.91006  0.84772  1.0000
  C   C41       1.0  0.46150  0.76760  0.46730  1.0000
  C   C42       1.0  0.53850  0.76760  0.03270  1.0000
  C   C43       1.0  0.96150  0.26760  0.46730  1.0000
  C   C44       1.0  0.03850  0.26760  0.03270  1.0000
  C   C45       1.0  0.53850  0.23240  0.53270  1.0000
  C   C46       1.0  0.46150  0.23240  0.96730  1.0000
  C   C47       1.0  0.03850  0.73240  0.53270  1.0000
  C   C48       1.0  0.96150  0.73240  0.96730  1.0000
  H   H9        1.0  0.48817  0.79313  0.51217  1.0000
  H   H10       1.0  0.51183  0.79313  0.98783  1.0000
  H   H11       1.0  0.98817  0.29313  0.51217  1.0000
  H   H12       1.0  0.01183  0.29313  0.98783  1.0000
  H   H13       1.0  0.51183  0.20687  0.48783  1.0000
  H   H14       1.0  0.48817  0.20687  0.01217  1.0000
  H   H15       1.0  0.01183  0.70687  0.48783  1.0000
  H   H16       1.0  0.98817  0.70687  0.01217  1.0000
  C   C49       1.0  0.41970  0.83570  0.41640  1.0000
  C   C50       1.0  0.58030  0.83570  0.08360  1.0000
  C   C51       1.0  0.91970  0.33570  0.41640  1.0000
  C   C52       1.0  0.08030  0.33570  0.08360  1.0000
  C   C53       1.0  0.58030  0.16430  0.58360  1.0000
  C   C54       1.0  0.41970  0.16430  0.91640  1.0000
  C   C55       1.0  0.08030  0.66430  0.58360  1.0000
  C   C56       1.0  0.91970  0.66430  0.91640  1.0000
  H   H17       1.0  0.41331  0.91532  0.41943  1.0000
  H   H18       1.0  0.58669  0.91532  0.08057  1.0000
  H   H19       1.0  0.91331  0.41532  0.41943  1.0000
  H   H20       1.0  0.08669  0.41532  0.08057  1.0000
  H   H21       1.0  0.58669  0.08468  0.58057  1.0000
  H   H22       1.0  0.41331  0.08468  0.91943  1.0000
  H   H23       1.0  0.08669  0.58468  0.58057  1.0000
  H   H24       1.0  0.91331  0.58468  0.91943  1.0000
  C   C57       1.0  0.34020  0.79520  0.29380  1.0000
  C   C58       1.0  0.65980  0.79520  0.20620  1.0000
  C   C59       1.0  0.84020  0.29520  0.29380  1.0000
  C   C60       1.0  0.15980  0.29520  0.20620  1.0000
  C   C61       1.0  0.65980  0.20480  0.70620  1.0000
  C   C62       1.0  0.34020  0.20480  0.79380  1.0000
  C   C63       1.0  0.15980  0.70480  0.70620  1.0000
  C   C64       1.0  0.84020  0.70480  0.79380  1.0000
  C   C65       1.0  0.34350  0.90640  0.26600  1.0000
  C   C66       1.0  0.65650  0.90640  0.23400  1.0000
  C   C67       1.0  0.84350  0.40640  0.26600  1.0000
  C   C68       1.0  0.15650  0.40640  0.23400  1.0000
  C   C69       1.0  0.65650  0.09360  0.73400  1.0000
  C   C70       1.0  0.34350  0.09360  0.76600  1.0000
  C   C71       1.0  0.15650  0.59360  0.73400  1.0000
  C   C72       1.0  0.84350  0.59360  0.76600  1.0000
  H   H25       1.0  0.37712  0.95690  0.28945  1.0000
  H   H26       1.0  0.62288  0.95690  0.21055  1.0000
  H   H27       1.0  0.87712  0.45690  0.28945  1.0000
  H   H28       1.0  0.12288  0.45690  0.21055  1.0000
  H   H29       1.0  0.62288  0.04310  0.71055  1.0000
  H   H30       1.0  0.37712  0.04310  0.78945  1.0000
  H   H31       1.0  0.12288  0.54310  0.71055  1.0000
  H   H32       1.0  0.87712  0.54310  0.78945  1.0000
  C   C73       1.0  0.29610  0.94140  0.20300  1.0000
  C   C74       1.0  0.70390  0.94140  0.29700  1.0000
  C   C75       1.0  0.79610  0.44140  0.20300  1.0000
  C   C76       1.0  0.20390  0.44140  0.29700  1.0000
  C   C77       1.0  0.70390  0.05860  0.79700  1.0000
  C   C78       1.0  0.29610  0.05860  0.70300  1.0000
  C   C79       1.0  0.20390  0.55860  0.79700  1.0000
  C   C80       1.0  0.79610  0.55860  0.70300  1.0000
  H   H33       1.0  0.29822  0.01509  0.18367  1.0000
  H   H34       1.0  0.70178  0.01509  0.31633  1.0000
  H   H35       1.0  0.79822  0.51509  0.18367  1.0000
  H   H36       1.0  0.20178  0.51509  0.31633  1.0000
  H   H37       1.0  0.70178  0.98491  0.81633  1.0000
  H   H38       1.0  0.29822  0.98491  0.68367  1.0000
  H   H39       1.0  0.20178  0.48491  0.81633  1.0000
  H   H40       1.0  0.79822  0.48491  0.68367  1.0000
  C   C81       1.0  0.24570  0.86610  0.16910  1.0000
  C   C82       1.0  0.75430  0.86610  0.33090  1.0000
  C   C83       1.0  0.74570  0.36610  0.16910  1.0000
  C   C84       1.0  0.25430  0.36610  0.33090  1.0000
  C   C85       1.0  0.75430  0.13390  0.83090  1.0000
  C   C86       1.0  0.24570  0.13390  0.66910  1.0000
  C   C87       1.0  0.25430  0.63390  0.83090  1.0000
  C   C88       1.0  0.74570  0.63390  0.66910  1.0000
  C   C89       1.0  0.24260  0.75480  0.19640  1.0000
  C   C90       1.0  0.75740  0.75480  0.30360  1.0000
  C   C91       1.0  0.74260  0.25480  0.19640  1.0000
  C   C92       1.0  0.25740  0.25480  0.30360  1.0000
  C   C93       1.0  0.75740  0.24520  0.80360  1.0000
  C   C94       1.0  0.24260  0.24520  0.69640  1.0000
  C   C95       1.0  0.25740  0.74520  0.80360  1.0000
  C   C96       1.0  0.74260  0.74520  0.69640  1.0000
  H   H41       1.0  0.20905  0.70421  0.17282  1.0000
  H   H42       1.0  0.79095  0.70421  0.32718  1.0000
  H   H43       1.0  0.70905  0.20421  0.17282  1.0000
  H   H44       1.0  0.29095  0.20421  0.32718  1.0000
  H   H45       1.0  0.79095  0.29579  0.82718  1.0000
  H   H46       1.0  0.20905  0.29579  0.67282  1.0000
  H   H47       1.0  0.29095  0.79579  0.82718  1.0000
  H   H48       1.0  0.70905  0.79579  0.67282  1.0000
  C   C97       1.0  0.29010  0.72000  0.25920  1.0000
  C   C98       1.0  0.70990  0.72000  0.24080  1.0000
  C   C99       1.0  0.79010  0.22000  0.25920  1.0000
  C   C100      1.0  0.20990  0.22000  0.24080  1.0000
  C   C101      1.0  0.70990  0.28000  0.74080  1.0000
  C   C102      1.0  0.29010  0.28000  0.75920  1.0000
  C   C103      1.0  0.20990  0.78000  0.74080  1.0000
  C   C104      1.0  0.79010  0.78000  0.75920  1.0000
  H   H49       1.0  0.28830  0.64592  0.27807  1.0000
  H   H50       1.0  0.71170  0.64592  0.22193  1.0000
  H   H51       1.0  0.78830  0.14592  0.27807  1.0000
  H   H52       1.0  0.21170  0.14592  0.22193  1.0000
  H   H53       1.0  0.71170  0.35408  0.72193  1.0000
  H   H54       1.0  0.28830  0.35408  0.77807  1.0000
  H   H55       1.0  0.21170  0.85408  0.72193  1.0000
  H   H56       1.0  0.78830  0.85408  0.77807  1.0000
  C   C105      1.0  0.13240  0.88130  0.08580  1.0000
  C   C106      1.0  0.86760  0.88130  0.41420  1.0000
  C   C107      1.0  0.63240  0.38130  0.08580  1.0000
  C   C108      1.0  0.36760  0.38130  0.41420  1.0000
  C   C109      1.0  0.86760  0.11870  0.91420  1.0000
  C   C110      1.0  0.13240  0.11870  0.58580  1.0000
  C   C111      1.0  0.36760  0.61870  0.91420  1.0000
  C   C112      1.0  0.63240  0.61870  0.58580  1.0000
  H   H57       1.0  0.11273  0.82927  0.11051  1.0000
  H   H58       1.0  0.88727  0.82927  0.38949  1.0000
  H   H59       1.0  0.61273  0.32927  0.11051  1.0000
  H   H60       1.0  0.38727  0.32927  0.38949  1.0000
  H   H61       1.0  0.88727  0.17073  0.88949  1.0000
  H   H62       1.0  0.11273  0.17073  0.61051  1.0000
  H   H63       1.0  0.38727  0.67073  0.88949  1.0000
  H   H64       1.0  0.61273  0.67073  0.61051  1.0000
  C   C113      1.0  0.20740  0.98600  0.05600  1.0000
  C   C114      1.0  0.79260  0.98600  0.44400  1.0000
  C   C115      1.0  0.70740  0.48600  0.05600  1.0000
  C   C116      1.0  0.29260  0.48600  0.44400  1.0000
  C   C117      1.0  0.79260  0.01400  0.94400  1.0000
  C   C118      1.0  0.20740  0.01400  0.55600  1.0000
  C   C119      1.0  0.29260  0.51400  0.94400  1.0000
  C   C120      1.0  0.70740  0.51400  0.55600  1.0000
  H   H65       1.0  0.24730  0.01944  0.05567  1.0000
  H   H66       1.0  0.75270  0.01944  0.44433  1.0000
  H   H67       1.0  0.74730  0.51944  0.05567  1.0000
  H   H68       1.0  0.25270  0.51944  0.44433  1.0000
  H   H69       1.0  0.75270  0.98056  0.94433  1.0000
  H   H70       1.0  0.24730  0.98056  0.55567  1.0000
  H   H71       1.0  0.25270  0.48056  0.94433  1.0000
  H   H72       1.0  0.74730  0.48056  0.55567  1.0000
  C   C121      1.0  0.14850  0.00620  0.00860  1.0000
  C   C122      1.0  0.85150  0.00620  0.49140  1.0000
  C   C123      1.0  0.64850  0.50620  0.00860  1.0000
  C   C124      1.0  0.35150  0.50620  0.49140  1.0000
  C   C125      1.0  0.85150  0.99380  0.99140  1.0000
  C   C126      1.0  0.14850  0.99380  0.50860  1.0000
  C   C127      1.0  0.35150  0.49380  0.99140  1.0000
  C   C128      1.0  0.64850  0.49380  0.50860  1.0000
  H   H73       1.0  0.14067  0.05685  0.96902  1.0000
  H   H74       1.0  0.85933  0.05685  0.53098  1.0000
  H   H75       1.0  0.64067  0.55685  0.96902  1.0000
  H   H76       1.0  0.35933  0.55685  0.53098  1.0000
  H   H77       1.0  0.85933  0.94315  0.03098  1.0000
  H   H78       1.0  0.14067  0.94315  0.46902  1.0000
  H   H79       1.0  0.35933  0.44315  0.03098  1.0000
  H   H80       1.0  0.64067  0.44315  0.46902  1.0000
