data_image0
_chemical_formula_structural       W4Fe4N64C40H8C8H8C8H8C16H8C8H8C16H8C8H8C8H8C8H8C8H8
_chemical_formula_sum              "W4 Fe4 N64 C128 H80"
_cell_length_a       21.3535
_cell_length_b       11.6042
_cell_length_c       19.2572
_cell_angle_alpha    90
_cell_angle_beta     106.907
_cell_angle_gamma    90

_space_group_name_H-M_alt    "P 1"
_space_group_IT_number       1

loop_
  _space_group_symop_operation_xyz
  'x, y, z'

loop_
  _atom_site_type_symbol
  _atom_site_label
  _atom_site_symmetry_multiplicity
  _atom_site_fract_x
  _atom_site_fract_y
  _atom_site_fract_z
  _atom_site_occupancy
  W   W1        1.0  0.50000  0.70985  0.75000  1.0000
  W   W2        1.0  0.00000  0.20985  0.75000  1.0000
  W   W3        1.0  0.50000  0.29015  0.25000  1.0000
  W   W4        1.0  0.00000  0.79015  0.25000  1.0000
  Fe  Fe1       1.0  0.50000  0.50000  0.50000  1.0000
  Fe  Fe2       1.0  0.50000  0.50000  0.00000  1.0000
  Fe  Fe3       1.0  0.00000  0.00000  0.50000  1.0000
  Fe  Fe4       1.0  0.00000  0.00000  0.00000  1.0000
  N   N1        1.0  0.48723  0.56980  0.59765  1.0000
  N   N2        1.0  0.51277  0.56980  0.90235  1.0000
  N   N3        1.0  0.98723  0.06980  0.59765  1.0000
  N   N4        1.0  0.01277  0.06980  0.90235  1.0000
  N   N5        1.0  0.51277  0.43020  0.40235  1.0000
  N   N6        1.0  0.48723  0.43020  0.09765  1.0000
  N   N7        1.0  0.01277  0.93020  0.40235  1.0000
  N   N8        1.0  0.98723  0.93020  0.09765  1.0000
  N   N9        1.0  0.62013  0.84700  0.87021  1.0000
  N   N10       1.0  0.37987  0.84700  0.62979  1.0000
  N   N11       1.0  0.12013  0.34700  0.87021  1.0000
  N   N12       1.0  0.87987  0.34700  0.62979  1.0000
  N   N13       1.0  0.37987  0.15300  0.12979  1.0000
  N   N14       1.0  0.62013  0.15300  0.37021  1.0000
  N   N15       1.0  0.87987  0.65300  0.12979  1.0000
  N   N16       1.0  0.12013  0.65300  0.37021  1.0000
  N   N17       1.0  0.42836  0.86730  0.84833  1.0000
  N   N18       1.0  0.57164  0.86730  0.65167  1.0000
  N   N19       1.0  0.92836  0.36730  0.84833  1.0000
  N   N20       1.0  0.07164  0.36730  0.65167  1.0000
  N   N21       1.0  0.57164  0.13270  0.15167  1.0000
  N   N22       1.0  0.42836  0.13270  0.34833  1.0000
  N   N23       1.0  0.07164  0.63270  0.15167  1.0000
  N   N24       1.0  0.92836  0.63270  0.34833  1.0000
  N   N25       1.0  0.37032  0.54310  0.73228  1.0000
  N   N26       1.0  0.62968  0.54310  0.76772  1.0000
  N   N27       1.0  0.87032  0.04310  0.73228  1.0000
  N   N28       1.0  0.12968  0.04310  0.76772  1.0000
  N   N29       1.0  0.62968  0.45690  0.26772  1.0000
  N   N30       1.0  0.37032  0.45690  0.23228  1.0000
  N   N31       1.0  0.12968  0.95690  0.26772  1.0000
  N   N32       1.0  0.87032  0.95690  0.23228  1.0000
  N   N33       1.0  0.54130  0.34350  0.55791  1.0000
  N   N34       1.0  0.45870  0.34350  0.94209  1.0000
  N   N35       1.0  0.04130  0.84350  0.55791  1.0000
  N   N36       1.0  0.95870  0.84350  0.94209  1.0000
  N   N37       1.0  0.45870  0.65650  0.44209  1.0000
  N   N38       1.0  0.54130  0.65650  0.05791  1.0000
  N   N39       1.0  0.95870  0.15650  0.44209  1.0000
  N   N40       1.0  0.04130  0.15650  0.05791  1.0000
  N   N41       1.0  0.61024  0.23610  0.63978  1.0000
  N   N42       1.0  0.38976  0.23610  0.86022  1.0000
  N   N43       1.0  0.11024  0.73610  0.63978  1.0000
  N   N44       1.0  0.88976  0.73610  0.86022  1.0000
  N   N45       1.0  0.38976  0.76390  0.36022  1.0000
  N   N46       1.0  0.61024  0.76390  0.13978  1.0000
  N   N47       1.0  0.88976  0.26390  0.36022  1.0000
  N   N48       1.0  0.11024  0.26390  0.13978  1.0000
  N   N49       1.0  0.80171  0.09280  0.89181  1.0000
  N   N50       1.0  0.19829  0.09280  0.60819  1.0000
  N   N51       1.0  0.30171  0.59280  0.89181  1.0000
  N   N52       1.0  0.69829  0.59280  0.60819  1.0000
  N   N53       1.0  0.19829  0.90720  0.10819  1.0000
  N   N54       1.0  0.80171  0.90720  0.39181  1.0000
  N   N55       1.0  0.69829  0.40720  0.10819  1.0000
  N   N56       1.0  0.30171  0.40720  0.39181  1.0000
  N   N57       1.0  0.89819  0.05980  0.97050  1.0000
  N   N58       1.0  0.10181  0.05980  0.52950  1.0000
  N   N59       1.0  0.39819  0.55980  0.97050  1.0000
  N   N60       1.0  0.60181  0.55980  0.52950  1.0000
  N   N61       1.0  0.10181  0.94020  0.02950  1.0000
  N   N62       1.0  0.89819  0.94020  0.47050  1.0000
  N   N63       1.0  0.60181  0.44020  0.02950  1.0000
  N   N64       1.0  0.39819  0.44020  0.47050  1.0000
  C   C1        1.0  0.48831  0.61690  0.65010  1.0000
  C   C2        1.0  0.51169  0.61690  0.84990  1.0000
  C   C3        1.0  0.98831  0.11690  0.65010  1.0000
  C   C4        1.0  0.01169  0.11690  0.84990  1.0000
  C   C5        1.0  0.51169  0.38310  0.34990  1.0000
  C   C6        1.0  0.48831  0.38310  0.15010  1.0000
  C   C7        1.0  0.01169  0.88310  0.34990  1.0000
  C   C8        1.0  0.98831  0.88310  0.15010  1.0000
  C   C9        1.0  0.57811  0.79980  0.82922  1.0000
  C   C10       1.0  0.42189  0.79980  0.67078  1.0000
  C   C11       1.0  0.07811  0.29980  0.82922  1.0000
  C   C12       1.0  0.92189  0.29980  0.67078  1.0000
  C   C13       1.0  0.42189  0.20020  0.17078  1.0000
  C   C14       1.0  0.57811  0.20020  0.32922  1.0000
  C   C15       1.0  0.92189  0.70020  0.17078  1.0000
  C   C16       1.0  0.07811  0.70020  0.32922  1.0000
  C   C17       1.0  0.45179  0.81620  0.81166  1.0000
  C   C18       1.0  0.54821  0.81620  0.68834  1.0000
  C   C19       1.0  0.95179  0.31620  0.81166  1.0000
  C   C20       1.0  0.04821  0.31620  0.68834  1.0000
  C   C21       1.0  0.54821  0.18380  0.18834  1.0000
  C   C22       1.0  0.45179  0.18380  0.31166  1.0000
  C   C23       1.0  0.04821  0.68380  0.18834  1.0000
  C   C24       1.0  0.95179  0.68380  0.31166  1.0000
  C   C25       1.0  0.41459  0.60210  0.73873  1.0000
  C   C26       1.0  0.58541  0.60210  0.76127  1.0000
  C   C27       1.0  0.91459  0.10210  0.73873  1.0000
  C   C28       1.0  0.08541  0.10210  0.76127  1.0000
  C   C29       1.0  0.58541  0.39790  0.26127  1.0000
  C   C30       1.0  0.41459  0.39790  0.23873  1.0000
  C   C31       1.0  0.08541  0.89790  0.26127  1.0000
  C   C32       1.0  0.91459  0.89790  0.23873  1.0000
  C   C33       1.0  0.58516  0.34210  0.62266  1.0000
  C   C34       1.0  0.41484  0.34210  0.87734  1.0000
  C   C35       1.0  0.08516  0.84210  0.62266  1.0000
  C   C36       1.0  0.91484  0.84210  0.87734  1.0000
  C   C37       1.0  0.41484  0.65790  0.37734  1.0000
  C   C38       1.0  0.58516  0.65790  0.12266  1.0000
  C   C39       1.0  0.91484  0.15790  0.37734  1.0000
  C   C40       1.0  0.08516  0.15790  0.12266  1.0000
  H   H1        1.0  0.59709  0.40635  0.65248  1.0000
  H   H2        1.0  0.40291  0.40635  0.84752  1.0000
  H   H3        1.0  0.09709  0.90635  0.65248  1.0000
  H   H4        1.0  0.90291  0.90635  0.84752  1.0000
  H   H5        1.0  0.40291  0.59365  0.34752  1.0000
  H   H6        1.0  0.59709  0.59365  0.15248  1.0000
  H   H7        1.0  0.90291  0.09365  0.34752  1.0000
  H   H8        1.0  0.09709  0.09365  0.15248  1.0000
  C   C41       1.0  0.53802  0.23200  0.53255  1.0000
  C   C42       1.0  0.46198  0.23200  0.96745  1.0000
  C   C43       1.0  0.03802  0.73200  0.53255  1.0000
  C   C44       1.0  0.96198  0.73200  0.96745  1.0000
  C   C45       1.0  0.46198  0.76800  0.46745  1.0000
  C   C46       1.0  0.53802  0.76800  0.03255  1.0000
  C   C47       1.0  0.96198  0.26800  0.46745  1.0000
  C   C48       1.0  0.03802  0.26800  0.03255  1.0000
  H   H9        1.0  0.51119  0.20699  0.48792  1.0000
  H   H10       1.0  0.48881  0.20699  0.01208  1.0000
  H   H11       1.0  0.01119  0.70699  0.48792  1.0000
  H   H12       1.0  0.98881  0.70699  0.01208  1.0000
  H   H13       1.0  0.48881  0.79301  0.51208  1.0000
  H   H14       1.0  0.51119  0.79301  0.98792  1.0000
  H   H15       1.0  0.98881  0.29301  0.51208  1.0000
  H   H16       1.0  0.01119  0.29301  0.98792  1.0000
  C   C49       1.0  0.57986  0.16430  0.58252  1.0000
  C   C50       1.0  0.42014  0.16430  0.91748  1.0000
  C   C51       1.0  0.07986  0.66430  0.58252  1.0000
  C   C52       1.0  0.92014  0.66430  0.91748  1.0000
  C   C53       1.0  0.42014  0.83570  0.41748  1.0000
  C   C54       1.0  0.57986  0.83570  0.08252  1.0000
  C   C55       1.0  0.92014  0.33570  0.41748  1.0000
  C   C56       1.0  0.07986  0.33570  0.08252  1.0000
  H   H17       1.0  0.58671  0.08563  0.57900  1.0000
  H   H18       1.0  0.41329  0.08563  0.92100  1.0000
  H   H19       1.0  0.08671  0.58563  0.57900  1.0000
  H   H20       1.0  0.91329  0.58563  0.92100  1.0000
  H   H21       1.0  0.41329  0.91437  0.42100  1.0000
  H   H22       1.0  0.58671  0.91437  0.07900  1.0000
  H   H23       1.0  0.91329  0.41437  0.42100  1.0000
  H   H24       1.0  0.08671  0.41437  0.07900  1.0000
  C   C57       1.0  0.65905  0.20240  0.70473  1.0000
  C   C58       1.0  0.34095  0.20240  0.79527  1.0000
  C   C59       1.0  0.15905  0.70240  0.70473  1.0000
  C   C60       1.0  0.84095  0.70240  0.79527  1.0000
  C   C61       1.0  0.34095  0.79760  0.29527  1.0000
  C   C62       1.0  0.65905  0.79760  0.20473  1.0000
  C   C63       1.0  0.84095  0.29760  0.29527  1.0000
  C   C64       1.0  0.15905  0.29760  0.20473  1.0000
  C   C65       1.0  0.65624  0.09310  0.73184  1.0000
  C   C66       1.0  0.34376  0.09310  0.76816  1.0000
  C   C67       1.0  0.15624  0.59310  0.73184  1.0000
  C   C68       1.0  0.84376  0.59310  0.76816  1.0000
  C   C69       1.0  0.34376  0.90690  0.26816  1.0000
  C   C70       1.0  0.65624  0.90690  0.23184  1.0000
  C   C71       1.0  0.84376  0.40690  0.26816  1.0000
  C   C72       1.0  0.15624  0.40690  0.23184  1.0000
  H   H25       1.0  0.62260  0.04335  0.70842  1.0000
  H   H26       1.0  0.37740  0.04335  0.79158  1.0000
  H   H27       1.0  0.12260  0.54335  0.70842  1.0000
  H   H28       1.0  0.87740  0.54335  0.79158  1.0000
  H   H29       1.0  0.37740  0.95665  0.29158  1.0000
  H   H30       1.0  0.62260  0.95665  0.20842  1.0000
  H   H31       1.0  0.87740  0.45665  0.29158  1.0000
  H   H32       1.0  0.12260  0.45665  0.20842  1.0000
  C   C73       1.0  0.70345  0.05770  0.79384  1.0000
  C   C74       1.0  0.29655  0.05770  0.70616  1.0000
  C   C75       1.0  0.20345  0.55770  0.79384  1.0000
  C   C76       1.0  0.79655  0.55770  0.70616  1.0000
  C   C77       1.0  0.29655  0.94230  0.20616  1.0000
  C   C78       1.0  0.70345  0.94230  0.29384  1.0000
  C   C79       1.0  0.79655  0.44230  0.20616  1.0000
  C   C80       1.0  0.20345  0.44230  0.29384  1.0000
  H   H33       1.0  0.70168  0.98403  0.81225  1.0000
  H   H34       1.0  0.29832  0.98403  0.68775  1.0000
  H   H35       1.0  0.20168  0.48403  0.81225  1.0000
  H   H36       1.0  0.79832  0.48403  0.68775  1.0000
  H   H37       1.0  0.29832  0.01597  0.18775  1.0000
  H   H38       1.0  0.70168  0.01597  0.31225  1.0000
  H   H39       1.0  0.79832  0.51597  0.18775  1.0000
  H   H40       1.0  0.20168  0.51597  0.31225  1.0000
  C   C81       1.0  0.75306  0.13180  0.82817  1.0000
  C   C82       1.0  0.24694  0.13180  0.67183  1.0000
  C   C83       1.0  0.25306  0.63180  0.82817  1.0000
  C   C84       1.0  0.74694  0.63180  0.67183  1.0000
  C   C85       1.0  0.24694  0.86820  0.17183  1.0000
  C   C86       1.0  0.75306  0.86820  0.32817  1.0000
  C   C87       1.0  0.74694  0.36820  0.17183  1.0000
  C   C88       1.0  0.25306  0.36820  0.32817  1.0000
  C   C89       1.0  0.75631  0.24240  0.80158  1.0000
  C   C90       1.0  0.24369  0.24240  0.69842  1.0000
  C   C91       1.0  0.25631  0.74240  0.80158  1.0000
  C   C92       1.0  0.74369  0.74240  0.69842  1.0000
  C   C93       1.0  0.24369  0.75760  0.19842  1.0000
  C   C94       1.0  0.75631  0.75760  0.30158  1.0000
  C   C95       1.0  0.74369  0.25760  0.19842  1.0000
  C   C96       1.0  0.25631  0.25760  0.30158  1.0000
  H   H41       1.0  0.78988  0.29218  0.82521  1.0000
  H   H42       1.0  0.21012  0.29218  0.67479  1.0000
  H   H43       1.0  0.28988  0.79218  0.82521  1.0000
  H   H44       1.0  0.71012  0.79218  0.67479  1.0000
  H   H45       1.0  0.21012  0.70782  0.17479  1.0000
  H   H46       1.0  0.78988  0.70782  0.32521  1.0000
  H   H47       1.0  0.71012  0.20782  0.17479  1.0000
  H   H48       1.0  0.28988  0.20782  0.32521  1.0000
  C   C97       1.0  0.70879  0.27750  0.73930  1.0000
  C   C98       1.0  0.29121  0.27750  0.76070  1.0000
  C   C99       1.0  0.20879  0.77750  0.73930  1.0000
  C   C100      1.0  0.79121  0.77750  0.76070  1.0000
  C   C101      1.0  0.29121  0.72250  0.26070  1.0000
  C   C102      1.0  0.70879  0.72250  0.23930  1.0000
  C   C103      1.0  0.79121  0.22250  0.26070  1.0000
  C   C104      1.0  0.20879  0.22250  0.23930  1.0000
  H   H49       1.0  0.71033  0.35115  0.72083  1.0000
  H   H50       1.0  0.28967  0.35115  0.77917  1.0000
  H   H51       1.0  0.21033  0.85115  0.72083  1.0000
  H   H52       1.0  0.78967  0.85115  0.77917  1.0000
  H   H53       1.0  0.28967  0.64885  0.27917  1.0000
  H   H54       1.0  0.71033  0.64885  0.22083  1.0000
  H   H55       1.0  0.78967  0.14885  0.27917  1.0000
  H   H56       1.0  0.21033  0.14885  0.22083  1.0000
  C   C105      1.0  0.86639  0.11790  0.91184  1.0000
  C   C106      1.0  0.13361  0.11790  0.58816  1.0000
  C   C107      1.0  0.36639  0.61790  0.91184  1.0000
  C   C108      1.0  0.63361  0.61790  0.58816  1.0000
  C   C109      1.0  0.13361  0.88210  0.08816  1.0000
  C   C110      1.0  0.86639  0.88210  0.41184  1.0000
  C   C111      1.0  0.63361  0.38210  0.08816  1.0000
  C   C112      1.0  0.36639  0.38210  0.41184  1.0000
  H   H57       1.0  0.88592  0.16947  0.88749  1.0000
  H   H58       1.0  0.11408  0.16947  0.61251  1.0000
  H   H59       1.0  0.38592  0.66947  0.88749  1.0000
  H   H60       1.0  0.61408  0.66947  0.61251  1.0000
  H   H61       1.0  0.11408  0.83053  0.11251  1.0000
  H   H62       1.0  0.88592  0.83053  0.38749  1.0000
  H   H63       1.0  0.61408  0.33053  0.11251  1.0000
  H   H64       1.0  0.38592  0.33053  0.38749  1.0000
  C   C113      1.0  0.79174  0.01320  0.94084  1.0000
  C   C114      1.0  0.20826  0.01320  0.55916  1.0000
  C   C115      1.0  0.29174  0.51320  0.94084  1.0000
  C   C116      1.0  0.70826  0.51320  0.55916  1.0000
  C   C117      1.0  0.20826  0.98680  0.05916  1.0000
  C   C118      1.0  0.79174  0.98680  0.44084  1.0000
  C   C119      1.0  0.70826  0.48680  0.05916  1.0000
  C   C120      1.0  0.29174  0.48680  0.44084  1.0000
  H   H65       1.0  0.75231  0.97911  0.94078  1.0000
  H   H66       1.0  0.24769  0.97911  0.55922  1.0000
  H   H67       1.0  0.25231  0.47911  0.94078  1.0000
  H   H68       1.0  0.74769  0.47911  0.55922  1.0000
  H   H69       1.0  0.24769  0.02089  0.05922  1.0000
  H   H70       1.0  0.75231  0.02089  0.44078  1.0000
  H   H71       1.0  0.74769  0.52089  0.05922  1.0000
  H   H72       1.0  0.25231  0.52089  0.44078  1.0000
  C   C121      1.0  0.85109  0.99510  0.98892  1.0000
  C   C122      1.0  0.14891  0.99510  0.51108  1.0000
  C   C123      1.0  0.35109  0.49510  0.98892  1.0000
  C   C124      1.0  0.64891  0.49510  0.51108  1.0000
  C   C125      1.0  0.14891  0.00490  0.01108  1.0000
  C   C126      1.0  0.85109  0.00490  0.48892  1.0000
  C   C127      1.0  0.64891  0.50490  0.01108  1.0000
  C   C128      1.0  0.35109  0.50490  0.48892  1.0000
  H   H73       1.0  0.85910  0.94602  0.02874  1.0000
  H   H74       1.0  0.14090  0.94602  0.47126  1.0000
  H   H75       1.0  0.35910  0.44602  0.02874  1.0000
  H   H76       1.0  0.64090  0.44602  0.47126  1.0000
  H   H77       1.0  0.14090  0.05398  0.97126  1.0000
  H   H78       1.0  0.85910  0.05398  0.52874  1.0000
  H   H79       1.0  0.64090  0.55398  0.97126  1.0000
  H   H80       1.0  0.35910  0.55398  0.52874  1.0000
