data_image0
_chemical_formula_structural       Zn4C4H4C4H4C4H8C4H4C4H4C8H4C8H4C8H4C8N24O28S4
_chemical_formula_sum              "Zn4 C52 H36 N24 O28 S4"
_cell_length_a       10.2611
_cell_length_b       16.9967
_cell_length_c       11.4808
_cell_angle_alpha    90
_cell_angle_beta     93.812
_cell_angle_gamma    90

_space_group_name_H-M_alt    "P 1"
_space_group_IT_number       1

loop_
  _space_group_symop_operation_xyz
  'x, y, z'

loop_
  _atom_site_type_symbol
  _atom_site_label
  _atom_site_symmetry_multiplicity
  _atom_site_fract_x
  _atom_site_fract_y
  _atom_site_fract_z
  _atom_site_occupancy
  Zn  Zn1       1.0  0.94759  0.44539  0.65524  1.0000
  Zn  Zn2       1.0  0.05241  0.94539  0.84476  1.0000
  Zn  Zn3       1.0  0.05241  0.55461  0.34476  1.0000
  Zn  Zn4       1.0  0.94759  0.05461  0.15524  1.0000
  C   C1        1.0  0.89710  0.58440  0.80590  1.0000
  C   C2        1.0  0.10290  0.08440  0.69410  1.0000
  C   C3        1.0  0.10290  0.41560  0.19410  1.0000
  C   C4        1.0  0.89710  0.91560  0.30590  1.0000
  H   H1        1.0  0.83110  0.55830  0.84200  1.0000
  H   H2        1.0  0.16890  0.05830  0.65800  1.0000
  H   H3        1.0  0.16890  0.44170  0.15800  1.0000
  H   H4        1.0  0.83110  0.94170  0.34200  1.0000
  C   C5        1.0  0.04320  0.61570  0.69590  1.0000
  C   C6        1.0  0.95680  0.11570  0.80410  1.0000
  C   C7        1.0  0.95680  0.38430  0.30410  1.0000
  C   C8        1.0  0.04320  0.88430  0.19590  1.0000
  H   H5        1.0  0.10130  0.61290  0.63720  1.0000
  H   H6        1.0  0.89870  0.11290  0.86280  1.0000
  H   H7        1.0  0.89870  0.38710  0.36280  1.0000
  H   H8        1.0  0.10130  0.88710  0.13720  1.0000
  C   C9        1.0  0.90850  0.70630  0.93100  1.0000
  C   C10       1.0  0.09150  0.20630  0.56900  1.0000
  C   C11       1.0  0.09150  0.29370  0.06900  1.0000
  C   C12       1.0  0.90850  0.79370  0.43100  1.0000
  H   H9        1.0  0.92740  0.76060  0.91230  1.0000
  H   H10       1.0  0.07260  0.26060  0.58770  1.0000
  H   H11       1.0  0.07260  0.23940  0.08770  1.0000
  H   H12       1.0  0.92740  0.73940  0.41230  1.0000
  H   H13       1.0  0.81590  0.70200  0.94180  1.0000
  H   H14       1.0  0.18410  0.20200  0.55820  1.0000
  H   H15       1.0  0.18410  0.29800  0.05820  1.0000
  H   H16       1.0  0.81590  0.79800  0.44180  1.0000
  C   C13       1.0  0.94740  0.63840  0.12450  1.0000
  C   C14       1.0  0.05260  0.13840  0.37550  1.0000
  C   C15       1.0  0.05260  0.36160  0.87550  1.0000
  C   C16       1.0  0.94740  0.86160  0.62450  1.0000
  H   H17       1.0  0.86450  0.61720  0.13010  1.0000
  H   H18       1.0  0.13550  0.11720  0.36990  1.0000
  H   H19       1.0  0.13550  0.38280  0.86990  1.0000
  H   H20       1.0  0.86450  0.88280  0.63010  1.0000
  C   C17       1.0  0.14390  0.67120  0.15620  1.0000
  C   C18       1.0  0.85610  0.17120  0.34380  1.0000
  C   C19       1.0  0.85610  0.32880  0.84380  1.0000
  C   C20       1.0  0.14390  0.82880  0.65620  1.0000
  H   H21       1.0  0.22700  0.67610  0.19300  1.0000
  H   H22       1.0  0.77300  0.17610  0.30700  1.0000
  H   H23       1.0  0.77300  0.32390  0.80700  1.0000
  H   H24       1.0  0.22700  0.82390  0.69300  1.0000
  C   C21       1.0  0.32700  0.40470  0.55890  1.0000
  C   C22       1.0  0.67300  0.90470  0.94110  1.0000
  C   C23       1.0  0.67300  0.59530  0.44110  1.0000
  C   C24       1.0  0.32700  0.09530  0.05890  1.0000
  C   C25       1.0  0.31750  0.35430  0.46240  1.0000
  C   C26       1.0  0.68250  0.85430  0.03760  1.0000
  C   C27       1.0  0.68250  0.64570  0.53760  1.0000
  C   C28       1.0  0.31750  0.14570  0.96240  1.0000
  H   H25       1.0  0.23620  0.33800  0.43080  1.0000
  H   H26       1.0  0.76380  0.83800  0.06920  1.0000
  H   H27       1.0  0.76380  0.66200  0.56920  1.0000
  H   H28       1.0  0.23620  0.16200  0.93080  1.0000
  C   C29       1.0  0.43030  0.32890  0.41440  1.0000
  C   C30       1.0  0.56970  0.82890  0.08560  1.0000
  C   C31       1.0  0.56970  0.67110  0.58560  1.0000
  C   C32       1.0  0.43030  0.17110  0.91440  1.0000
  C   C33       1.0  0.55170  0.35370  0.45840  1.0000
  C   C34       1.0  0.44830  0.85370  0.04160  1.0000
  C   C35       1.0  0.44830  0.64630  0.54160  1.0000
  C   C36       1.0  0.55170  0.14630  0.95840  1.0000
  H   H29       1.0  0.62650  0.33640  0.42470  1.0000
  H   H30       1.0  0.37350  0.83640  0.07530  1.0000
  H   H31       1.0  0.37350  0.66360  0.57530  1.0000
  H   H32       1.0  0.62650  0.16360  0.92470  1.0000
  C   C37       1.0  0.56140  0.40450  0.55310  1.0000
  C   C38       1.0  0.43860  0.90450  0.94690  1.0000
  C   C39       1.0  0.43860  0.59550  0.44690  1.0000
  C   C40       1.0  0.56140  0.09550  0.05310  1.0000
  C   C41       1.0  0.45120  0.42860  0.60350  1.0000
  C   C42       1.0  0.54880  0.92860  0.89650  1.0000
  C   C43       1.0  0.54880  0.57140  0.39650  1.0000
  C   C44       1.0  0.45120  0.07140  0.10350  1.0000
  H   H33       1.0  0.45870  0.46140  0.66850  1.0000
  H   H34       1.0  0.54130  0.96140  0.83150  1.0000
  H   H35       1.0  0.54130  0.53860  0.33150  1.0000
  H   H36       1.0  0.45870  0.03860  0.16850  1.0000
  C   C45       1.0  0.20810  0.43140  0.61710  1.0000
  C   C46       1.0  0.79190  0.93140  0.88290  1.0000
  C   C47       1.0  0.79190  0.56860  0.38290  1.0000
  C   C48       1.0  0.20810  0.06860  0.11710  1.0000
  C   C49       1.0  0.69400  0.42960  0.60510  1.0000
  C   C50       1.0  0.30600  0.92960  0.89490  1.0000
  C   C51       1.0  0.30600  0.57040  0.39490  1.0000
  C   C52       1.0  0.69400  0.07040  0.10510  1.0000
  N   N1        1.0  0.95940  0.55630  0.71850  1.0000
  N   N2        1.0  0.04060  0.05630  0.78150  1.0000
  N   N3        1.0  0.04060  0.44370  0.28150  1.0000
  N   N4        1.0  0.95940  0.94370  0.21850  1.0000
  N   N5        1.0  0.94200  0.65560  0.83510  1.0000
  N   N6        1.0  0.05800  0.15560  0.66490  1.0000
  N   N7        1.0  0.05800  0.34440  0.16490  1.0000
  N   N8        1.0  0.94200  0.84440  0.33510  1.0000
  N   N9        1.0  0.03510  0.67680  0.76360  1.0000
  N   N10       1.0  0.96490  0.17680  0.73640  1.0000
  N   N11       1.0  0.96490  0.32320  0.23640  1.0000
  N   N12       1.0  0.03510  0.82320  0.26360  1.0000
  N   N13       1.0  0.98270  0.68390  0.03790  1.0000
  N   N14       1.0  0.01730  0.18390  0.46210  1.0000
  N   N15       1.0  0.01730  0.31610  0.96210  1.0000
  N   N16       1.0  0.98270  0.81610  0.53790  1.0000
  N   N17       1.0  0.10970  0.70490  0.05730  1.0000
  N   N18       1.0  0.89030  0.20490  0.44270  1.0000
  N   N19       1.0  0.89030  0.29510  0.94270  1.0000
  N   N20       1.0  0.10970  0.79510  0.55730  1.0000
  N   N21       1.0  0.04710  0.62780  0.20150  1.0000
  N   N22       1.0  0.95290  0.12780  0.29850  1.0000
  N   N23       1.0  0.95290  0.37220  0.79850  1.0000
  N   N24       1.0  0.04710  0.87220  0.70150  1.0000
  O   O1        1.0  0.09570  0.41350  0.56580  1.0000
  O   O2        1.0  0.90430  0.91350  0.93420  1.0000
  O   O3        1.0  0.90430  0.58650  0.43420  1.0000
  O   O4        1.0  0.09570  0.08650  0.06580  1.0000
  O   O5        1.0  0.21900  0.46620  0.71260  1.0000
  O   O6        1.0  0.78100  0.96620  0.78740  1.0000
  O   O7        1.0  0.78100  0.53380  0.28740  1.0000
  O   O8        1.0  0.21900  0.03380  0.21260  1.0000
  O   O9        1.0  0.70360  0.46640  0.69940  1.0000
  O   O10       1.0  0.29640  0.96640  0.80060  1.0000
  O   O11       1.0  0.29640  0.53360  0.30060  1.0000
  O   O12       1.0  0.70360  0.03360  0.19940  1.0000
  O   O13       1.0  0.79440  0.41180  0.55110  1.0000
  O   O14       1.0  0.20560  0.91180  0.94890  1.0000
  O   O15       1.0  0.20560  0.58820  0.44890  1.0000
  O   O16       1.0  0.79440  0.08820  0.05110  1.0000
  O   O17       1.0  0.32520  0.19970  0.33490  1.0000
  O   O18       1.0  0.67480  0.69970  0.16510  1.0000
  O   O19       1.0  0.67480  0.80030  0.66510  1.0000
  O   O20       1.0  0.32520  0.30030  0.83490  1.0000
  O   O21       1.0  0.36640  0.30240  0.19580  1.0000
  O   O22       1.0  0.63360  0.80240  0.30420  1.0000
  O   O23       1.0  0.63360  0.69760  0.80420  1.0000
  O   O24       1.0  0.36640  0.19760  0.69580  1.0000
  O   O25       1.0  0.54570  0.22770  0.28700  1.0000
  O   O26       1.0  0.45430  0.72770  0.21300  1.0000
  O   O27       1.0  0.45430  0.77230  0.71300  1.0000
  O   O28       1.0  0.54570  0.27230  0.78700  1.0000
  S   S1        1.0  0.41635  0.25941  0.29848  1.0000
  S   S2        1.0  0.58365  0.75941  0.20152  1.0000
  S   S3        1.0  0.58365  0.74059  0.70152  1.0000
  S   S4        1.0  0.41635  0.24059  0.79848  1.0000
