data_image0
_chemical_formula_structural       In4O40C32H32
_chemical_formula_sum              "In4 O40 C32 H32"
_cell_length_a       9.5034
_cell_length_b       18.645
_cell_length_c       8.1222
_cell_angle_alpha    90
_cell_angle_beta     100.062
_cell_angle_gamma    90

_space_group_name_H-M_alt    "P 1"
_space_group_IT_number       1

loop_
  _space_group_symop_operation_xyz
  'x, y, z'

loop_
  _atom_site_type_symbol
  _atom_site_label
  _atom_site_symmetry_multiplicity
  _atom_site_fract_x
  _atom_site_fract_y
  _atom_site_fract_z
  _atom_site_occupancy
  In  In1       1.0  0.19634  0.47100  0.30504  1.0000
  In  In2       1.0  0.80366  0.97100  0.19496  1.0000
  In  In3       1.0  0.80366  0.52900  0.69496  1.0000
  In  In4       1.0  0.19634  0.02900  0.80504  1.0000
  O   O1        1.0  0.26430  0.37508  0.45730  1.0000
  O   O2        1.0  0.73570  0.87508  0.04270  1.0000
  O   O3        1.0  0.73570  0.62492  0.54270  1.0000
  O   O4        1.0  0.26430  0.12492  0.95730  1.0000
  O   O5        1.0  0.29510  0.32324  0.70800  1.0000
  O   O6        1.0  0.70490  0.82324  0.79200  1.0000
  O   O7        1.0  0.70490  0.67676  0.29200  1.0000
  O   O8        1.0  0.29510  0.17676  0.20800  1.0000
  O   O9        1.0  0.22430  0.50252  0.57360  1.0000
  O   O10       1.0  0.77570  0.00252  0.92640  1.0000
  O   O11       1.0  0.77570  0.49748  0.42640  1.0000
  O   O12       1.0  0.22430  0.99748  0.07360  1.0000
  O   O13       1.0  0.59100  0.53287  0.74850  1.0000
  O   O14       1.0  0.40900  0.03287  0.75150  1.0000
  O   O15       1.0  0.40900  0.46713  0.25150  1.0000
  O   O16       1.0  0.59100  0.96713  0.24850  1.0000
  O   O17       1.0  0.56960  0.41802  0.68570  1.0000
  O   O18       1.0  0.43040  0.91802  0.81430  1.0000
  O   O19       1.0  0.43040  0.58198  0.31430  1.0000
  O   O20       1.0  0.56960  0.08198  0.18570  1.0000
  O   O21       1.0  0.02070  0.56896  0.70220  1.0000
  O   O22       1.0  0.97930  0.06896  0.79780  1.0000
  O   O23       1.0  0.97930  0.43104  0.29780  1.0000
  O   O24       1.0  0.02070  0.93104  0.20220  1.0000
  O   O25       1.0  0.18430  0.65027  0.80170  1.0000
  O   O26       1.0  0.81570  0.15027  0.69830  1.0000
  O   O27       1.0  0.81570  0.34973  0.19830  1.0000
  O   O28       1.0  0.18430  0.84973  0.30170  1.0000
  O   O29       1.0  0.84160  0.61085  0.89650  1.0000
  O   O30       1.0  0.15840  0.11085  0.60350  1.0000
  O   O31       1.0  0.15840  0.38915  0.10350  1.0000
  O   O32       1.0  0.84160  0.88915  0.39650  1.0000
  O   O33       1.0  0.14110  0.54612  0.08340  1.0000
  O   O34       1.0  0.85890  0.04612  0.41660  1.0000
  O   O35       1.0  0.85890  0.45388  0.91660  1.0000
  O   O36       1.0  0.14110  0.95388  0.58340  1.0000
  O   O37       1.0  0.09570  0.58279  0.32110  1.0000
  O   O38       1.0  0.90430  0.08279  0.17890  1.0000
  O   O39       1.0  0.90430  0.41721  0.67890  1.0000
  O   O40       1.0  0.09570  0.91721  0.82110  1.0000
  C   C1        1.0  0.27410  0.37631  0.61490  1.0000
  C   C2        1.0  0.72590  0.87631  0.88510  1.0000
  C   C3        1.0  0.72590  0.62369  0.38510  1.0000
  C   C4        1.0  0.27410  0.12369  0.11490  1.0000
  C   C5        1.0  0.25930  0.44807  0.69950  1.0000
  C   C6        1.0  0.74070  0.94807  0.80050  1.0000
  C   C7        1.0  0.74070  0.55193  0.30050  1.0000
  C   C8        1.0  0.25930  0.05193  0.19950  1.0000
  C   C9        1.0  0.39170  0.47030  0.82230  1.0000
  C   C10       1.0  0.60830  0.97030  0.67770  1.0000
  C   C11       1.0  0.60830  0.52970  0.17770  1.0000
  C   C12       1.0  0.39170  0.02970  0.32230  1.0000
  C   C13       1.0  0.52630  0.47350  0.74480  1.0000
  C   C14       1.0  0.47370  0.97350  0.75520  1.0000
  C   C15       1.0  0.47370  0.52650  0.25520  1.0000
  C   C16       1.0  0.52630  0.02650  0.24480  1.0000
  C   C17       1.0  0.06680  0.62165  0.79670  1.0000
  C   C18       1.0  0.93320  0.12165  0.70330  1.0000
  C   C19       1.0  0.93320  0.37835  0.20330  1.0000
  C   C20       1.0  0.06680  0.87835  0.29670  1.0000
  C   C21       1.0  0.96650  0.65436  0.90500  1.0000
  C   C22       1.0  0.03350  0.15436  0.59500  1.0000
  C   C23       1.0  0.03350  0.34564  0.09500  1.0000
  C   C24       1.0  0.96650  0.84564  0.40500  1.0000
  C   C25       1.0  0.03600  0.66298  0.08800  1.0000
  C   C26       1.0  0.96400  0.16298  0.41200  1.0000
  C   C27       1.0  0.96400  0.33702  0.91200  1.0000
  C   C28       1.0  0.03600  0.83702  0.58800  1.0000
  C   C29       1.0  0.09450  0.59360  0.16850  1.0000
  C   C30       1.0  0.90550  0.09360  0.33150  1.0000
  C   C31       1.0  0.90550  0.40640  0.83150  1.0000
  C   C32       1.0  0.09450  0.90640  0.66850  1.0000
  H   H1        1.0  0.18080  0.44420  0.76050  1.0000
  H   H2        1.0  0.81920  0.94420  0.73950  1.0000
  H   H3        1.0  0.81920  0.55580  0.23950  1.0000
  H   H4        1.0  0.18080  0.05580  0.26050  1.0000
  H   H5        1.0  0.40710  0.43620  0.91270  1.0000
  H   H6        1.0  0.59290  0.93620  0.58730  1.0000
  H   H7        1.0  0.59290  0.56380  0.08730  1.0000
  H   H8        1.0  0.40710  0.06380  0.41270  1.0000
  H   H9        1.0  0.37340  0.51770  0.86380  1.0000
  H   H10       1.0  0.62660  0.01770  0.63620  1.0000
  H   H11       1.0  0.62660  0.48230  0.13620  1.0000
  H   H12       1.0  0.37340  0.98230  0.36380  1.0000
  H   H13       1.0  0.93710  0.70140  0.85950  1.0000
  H   H14       1.0  0.06290  0.20140  0.64050  1.0000
  H   H15       1.0  0.06290  0.29860  0.14050  1.0000
  H   H16       1.0  0.93710  0.79860  0.35950  1.0000
  H   H17       1.0  0.96600  0.68160  0.14990  1.0000
  H   H18       1.0  0.03400  0.18160  0.35010  1.0000
  H   H19       1.0  0.03400  0.31840  0.85010  1.0000
  H   H20       1.0  0.96600  0.81840  0.64990  1.0000
  H   H21       1.0  0.11280  0.69660  0.09780  1.0000
  H   H22       1.0  0.88720  0.19660  0.40220  1.0000
  H   H23       1.0  0.88720  0.30340  0.90220  1.0000
  H   H24       1.0  0.11280  0.80340  0.59780  1.0000
  H   H25       1.0  0.76760  0.63410  0.88150  1.0000
  H   H26       1.0  0.23240  0.13410  0.61850  1.0000
  H   H27       1.0  0.23240  0.36590  0.11850  1.0000
  H   H28       1.0  0.76760  0.86590  0.38150  1.0000
  H   H29       1.0  0.16290  0.52940  0.59860  1.0000
  H   H30       1.0  0.83710  0.02940  0.90140  1.0000
  H   H31       1.0  0.83710  0.47060  0.40140  1.0000
  H   H32       1.0  0.16290  0.97060  0.09860  1.0000
