data_image0
_chemical_formula_structural       U4S8O40C8H4C4H4C20H4C4H4C12
_chemical_formula_sum              "U4 S8 O40 C48 H16"
_cell_length_a       19.8821
_cell_length_b       9.7129
_cell_length_c       18.0419
_cell_angle_alpha    90
_cell_angle_beta     93.3551
_cell_angle_gamma    90

_space_group_name_H-M_alt    "P 1"
_space_group_IT_number       1

loop_
  _space_group_symop_operation_xyz
  'x, y, z'

loop_
  _atom_site_type_symbol
  _atom_site_label
  _atom_site_symmetry_multiplicity
  _atom_site_fract_x
  _atom_site_fract_y
  _atom_site_fract_z
  _atom_site_occupancy
  U   U1        1.0  0.59313  0.70999  0.25154  1.0000
  U   U2        1.0  0.59313  0.29001  0.75154  1.0000
  U   U3        1.0  0.09313  0.20999  0.25154  1.0000
  U   U4        1.0  0.09313  0.79001  0.75154  1.0000
  S   S1        1.0  0.54628  0.41206  0.49359  1.0000
  S   S2        1.0  0.54628  0.58794  0.99359  1.0000
  S   S3        1.0  0.04628  0.91206  0.49359  1.0000
  S   S4        1.0  0.04628  0.08794  0.99359  1.0000
  S   S5        1.0  0.73850  0.97038  0.51889  1.0000
  S   S6        1.0  0.73850  0.02962  0.01889  1.0000
  S   S7        1.0  0.23850  0.47038  0.51889  1.0000
  S   S8        1.0  0.23850  0.52962  0.01889  1.0000
  O   O1        1.0  0.53644  0.82930  0.28943  1.0000
  O   O2        1.0  0.53644  0.17070  0.78943  1.0000
  O   O3        1.0  0.03644  0.32930  0.28943  1.0000
  O   O4        1.0  0.03644  0.67070  0.78943  1.0000
  O   O5        1.0  0.64972  0.58730  0.21643  1.0000
  O   O6        1.0  0.64972  0.41270  0.71643  1.0000
  O   O7        1.0  0.14972  0.08730  0.21643  1.0000
  O   O8        1.0  0.14972  0.91270  0.71643  1.0000
  O   O9        1.0  0.59482  0.57770  0.36892  1.0000
  O   O10       1.0  0.59482  0.42230  0.86892  1.0000
  O   O11       1.0  0.09482  0.07770  0.36892  1.0000
  O   O12       1.0  0.09482  0.92230  0.86892  1.0000
  O   O13       1.0  0.51019  0.53550  0.28777  1.0000
  O   O14       1.0  0.51019  0.46450  0.78777  1.0000
  O   O15       1.0  0.01019  0.03550  0.28777  1.0000
  O   O16       1.0  0.01019  0.96450  0.78777  1.0000
  O   O17       1.0  0.52348  0.32390  0.64571  1.0000
  O   O18       1.0  0.52348  0.67610  0.14571  1.0000
  O   O19       1.0  0.02348  0.82390  0.64571  1.0000
  O   O20       1.0  0.02348  0.17610  0.14571  1.0000
  O   O21       1.0  0.45092  0.15480  0.61265  1.0000
  O   O22       1.0  0.45092  0.84520  0.11265  1.0000
  O   O23       1.0  0.95092  0.65480  0.61265  1.0000
  O   O24       1.0  0.95092  0.34520  0.11265  1.0000
  O   O25       1.0  0.67778  0.80710  0.32773  1.0000
  O   O26       1.0  0.67778  0.19290  0.82773  1.0000
  O   O27       1.0  0.17778  0.30710  0.32773  1.0000
  O   O28       1.0  0.17778  0.69290  0.82773  1.0000
  O   O29       1.0  0.77362  0.78090  0.39705  1.0000
  O   O30       1.0  0.77362  0.21910  0.89705  1.0000
  O   O31       1.0  0.27362  0.28090  0.39705  1.0000
  O   O32       1.0  0.27362  0.71910  0.89705  1.0000
  O   O33       1.0  0.62784  0.12320  0.67078  1.0000
  O   O34       1.0  0.62784  0.87680  0.17078  1.0000
  O   O35       1.0  0.12784  0.62320  0.67078  1.0000
  O   O36       1.0  0.12784  0.37680  0.17078  1.0000
  O   O37       1.0  0.73965  0.12310  0.65991  1.0000
  O   O38       1.0  0.73965  0.87690  0.15991  1.0000
  O   O39       1.0  0.23965  0.62310  0.65991  1.0000
  O   O40       1.0  0.23965  0.37690  0.15991  1.0000
  C   C1        1.0  0.50428  0.44340  0.40929  1.0000
  C   C2        1.0  0.50428  0.55660  0.90929  1.0000
  C   C3        1.0  0.00428  0.94340  0.40929  1.0000
  C   C4        1.0  0.00428  0.05660  0.90929  1.0000
  C   C5        1.0  0.44050  0.38820  0.40530  1.0000
  C   C6        1.0  0.44050  0.61180  0.90530  1.0000
  C   C7        1.0  0.94050  0.88820  0.40530  1.0000
  C   C8        1.0  0.94050  0.11180  0.90530  1.0000
  H   H1        1.0  0.40947  0.39720  0.36349  1.0000
  H   H2        1.0  0.40947  0.60280  0.86349  1.0000
  H   H3        1.0  0.90947  0.89720  0.36349  1.0000
  H   H4        1.0  0.90947  0.10280  0.86349  1.0000
  C   C9        1.0  0.42641  0.31660  0.47090  1.0000
  C   C10       1.0  0.42641  0.68340  0.97090  1.0000
  C   C11       1.0  0.92641  0.81660  0.47090  1.0000
  C   C12       1.0  0.92641  0.18340  0.97090  1.0000
  H   H5        1.0  0.38501  0.27086  0.47789  1.0000
  H   H6        1.0  0.38501  0.72914  0.97789  1.0000
  H   H7        1.0  0.88501  0.77086  0.47789  1.0000
  H   H8        1.0  0.88501  0.22914  0.97789  1.0000
  C   C13       1.0  0.47899  0.32030  0.52310  1.0000
  C   C14       1.0  0.47899  0.67970  0.02310  1.0000
  C   C15       1.0  0.97899  0.82030  0.52310  1.0000
  C   C16       1.0  0.97899  0.17970  0.02310  1.0000
  C   C17       1.0  0.53780  0.52190  0.35190  1.0000
  C   C18       1.0  0.53780  0.47810  0.85190  1.0000
  C   C19       1.0  0.03780  0.02190  0.35190  1.0000
  C   C20       1.0  0.03780  0.97810  0.85190  1.0000
  C   C21       1.0  0.48397  0.25900  0.59940  1.0000
  C   C22       1.0  0.48397  0.74100  0.09940  1.0000
  C   C23       1.0  0.98397  0.75900  0.59940  1.0000
  C   C24       1.0  0.98397  0.24100  0.09940  1.0000
  C   C25       1.0  0.68743  0.91470  0.44460  1.0000
  C   C26       1.0  0.68743  0.08530  0.94460  1.0000
  C   C27       1.0  0.18743  0.41470  0.44460  1.0000
  C   C28       1.0  0.18743  0.58530  0.94460  1.0000
  C   C29       1.0  0.62136  0.94820  0.45210  1.0000
  C   C30       1.0  0.62136  0.05180  0.95210  1.0000
  C   C31       1.0  0.12136  0.44820  0.45210  1.0000
  C   C32       1.0  0.12136  0.55180  0.95210  1.0000
  H   H9        1.0  0.58610  0.92672  0.41611  1.0000
  H   H10       1.0  0.58610  0.07328  0.91611  1.0000
  H   H11       1.0  0.08610  0.42672  0.41611  1.0000
  H   H12       1.0  0.08610  0.57328  0.91611  1.0000
  C   C33       1.0  0.61130  0.01850  0.51920  1.0000
  C   C34       1.0  0.61130  0.98150  0.01920  1.0000
  C   C35       1.0  0.11130  0.51850  0.51920  1.0000
  C   C36       1.0  0.11130  0.48150  0.01920  1.0000
  H   H13       1.0  0.56862  0.04932  0.53362  1.0000
  H   H14       1.0  0.56862  0.95068  0.03362  1.0000
  H   H15       1.0  0.06862  0.54932  0.53362  1.0000
  H   H16       1.0  0.06862  0.45068  0.03362  1.0000
  C   C37       1.0  0.67040  0.03700  0.56110  1.0000
  C   C38       1.0  0.67040  0.96300  0.06110  1.0000
  C   C39       1.0  0.17040  0.53700  0.56110  1.0000
  C   C40       1.0  0.17040  0.46300  0.06110  1.0000
  C   C41       1.0  0.71570  0.82930  0.38660  1.0000
  C   C42       1.0  0.71570  0.17070  0.88660  1.0000
  C   C43       1.0  0.21570  0.32930  0.38660  1.0000
  C   C44       1.0  0.21570  0.67070  0.88660  1.0000
  C   C45       1.0  0.68113  0.10040  0.63630  1.0000
  C   C46       1.0  0.68113  0.89960  0.13630  1.0000
  C   C47       1.0  0.18113  0.60040  0.63630  1.0000
  C   C48       1.0  0.18113  0.39960  0.13630  1.0000
