data_image0
_chemical_formula_structural       U16S24O128C16H8C8H8C40H8C8H8C40H8C8H8C24
_chemical_formula_sum              "U16 S24 O128 C144 H48"
_cell_length_a       17.8772
_cell_length_b       18.2236
_cell_length_c       39.4417
_cell_angle_alpha    90
_cell_angle_beta     90
_cell_angle_gamma    90

_space_group_name_H-M_alt    "P 1"
_space_group_IT_number       1

loop_
  _space_group_symop_operation_xyz
  'x, y, z'

loop_
  _atom_site_type_symbol
  _atom_site_label
  _atom_site_symmetry_multiplicity
  _atom_site_fract_x
  _atom_site_fract_y
  _atom_site_fract_z
  _atom_site_occupancy
  U   U1        1.0  0.59396  0.88767  0.80524  1.0000
  U   U2        1.0  0.90604  0.11233  0.30524  1.0000
  U   U3        1.0  0.09396  0.61233  0.19476  1.0000
  U   U4        1.0  0.40604  0.38767  0.69476  1.0000
  U   U5        1.0  0.40604  0.11233  0.19476  1.0000
  U   U6        1.0  0.09396  0.88767  0.69476  1.0000
  U   U7        1.0  0.90604  0.38767  0.80524  1.0000
  U   U8        1.0  0.59396  0.61233  0.30524  1.0000
  U   U9        1.0  0.09267  0.94182  0.94637  1.0000
  U   U10       1.0  0.40733  0.05818  0.44637  1.0000
  U   U11       1.0  0.59267  0.55818  0.05363  1.0000
  U   U12       1.0  0.90733  0.44182  0.55363  1.0000
  U   U13       1.0  0.90733  0.05818  0.05363  1.0000
  U   U14       1.0  0.59267  0.94182  0.55363  1.0000
  U   U15       1.0  0.40733  0.44182  0.94637  1.0000
  U   U16       1.0  0.09267  0.55818  0.44637  1.0000
  S   S1        1.0  0.82657  0.91263  0.89361  1.0000
  S   S2        1.0  0.67343  0.08737  0.39361  1.0000
  S   S3        1.0  0.32657  0.58737  0.10639  1.0000
  S   S4        1.0  0.17343  0.41263  0.60639  1.0000
  S   S5        1.0  0.17343  0.08737  0.10639  1.0000
  S   S6        1.0  0.32657  0.91263  0.60639  1.0000
  S   S7        1.0  0.67343  0.41263  0.89361  1.0000
  S   S8        1.0  0.82657  0.58737  0.39361  1.0000
  S   S9        1.0  0.50421  0.63381  0.75282  1.0000
  S   S10       1.0  0.99579  0.36619  0.25282  1.0000
  S   S11       1.0  0.00421  0.86619  0.24718  1.0000
  S   S12       1.0  0.49579  0.13381  0.74718  1.0000
  S   S13       1.0  0.49579  0.36619  0.24718  1.0000
  S   S14       1.0  0.00421  0.63381  0.74718  1.0000
  S   S15       1.0  0.99579  0.13381  0.75282  1.0000
  S   S16       1.0  0.50421  0.86619  0.25282  1.0000
  S   S17       1.0  0.24963  0.69267  0.94434  1.0000
  S   S18       1.0  0.25037  0.30733  0.44434  1.0000
  S   S19       1.0  0.74963  0.80733  0.05566  1.0000
  S   S20       1.0  0.75037  0.19267  0.55566  1.0000
  S   S21       1.0  0.75037  0.30733  0.05566  1.0000
  S   S22       1.0  0.74963  0.69267  0.55566  1.0000
  S   S23       1.0  0.25037  0.19267  0.94434  1.0000
  S   S24       1.0  0.24963  0.80733  0.44434  1.0000
  O   O1        1.0  0.52180  0.89130  0.83577  1.0000
  O   O2        1.0  0.97820  0.10870  0.33577  1.0000
  O   O3        1.0  0.02180  0.60870  0.16423  1.0000
  O   O4        1.0  0.47820  0.39130  0.66423  1.0000
  O   O5        1.0  0.47820  0.10870  0.16423  1.0000
  O   O6        1.0  0.02180  0.89130  0.66423  1.0000
  O   O7        1.0  0.97820  0.39130  0.83577  1.0000
  O   O8        1.0  0.52180  0.60870  0.33577  1.0000
  O   O9        1.0  0.66600  0.88330  0.77485  1.0000
  O   O10       1.0  0.83400  0.11670  0.27485  1.0000
  O   O11       1.0  0.16600  0.61670  0.22515  1.0000
  O   O12       1.0  0.33400  0.38330  0.72515  1.0000
  O   O13       1.0  0.33400  0.11670  0.22515  1.0000
  O   O14       1.0  0.16600  0.88330  0.72515  1.0000
  O   O15       1.0  0.83400  0.38330  0.77485  1.0000
  O   O16       1.0  0.66600  0.61670  0.27485  1.0000
  O   O17       1.0  0.09160  0.95370  0.99083  1.0000
  O   O18       1.0  0.40840  0.04630  0.49083  1.0000
  O   O19       1.0  0.59160  0.54630  0.00917  1.0000
  O   O20       1.0  0.90840  0.45370  0.50917  1.0000
  O   O21       1.0  0.90840  0.04630  0.00917  1.0000
  O   O22       1.0  0.59160  0.95370  0.50917  1.0000
  O   O23       1.0  0.40840  0.45370  0.99083  1.0000
  O   O24       1.0  0.09160  0.54630  0.49083  1.0000
  O   O25       1.0  0.09490  0.93100  0.90217  1.0000
  O   O26       1.0  0.40510  0.06900  0.40217  1.0000
  O   O27       1.0  0.59490  0.56900  0.09783  1.0000
  O   O28       1.0  0.90510  0.43100  0.59783  1.0000
  O   O29       1.0  0.90510  0.06900  0.09783  1.0000
  O   O30       1.0  0.59490  0.93100  0.59783  1.0000
  O   O31       1.0  0.40510  0.43100  0.90217  1.0000
  O   O32       1.0  0.09490  0.56900  0.40217  1.0000
  O   O33       1.0  0.66310  0.98410  0.83537  1.0000
  O   O34       1.0  0.83690  0.01590  0.33537  1.0000
  O   O35       1.0  0.16310  0.51590  0.16463  1.0000
  O   O36       1.0  0.33690  0.48410  0.66463  1.0000
  O   O37       1.0  0.33690  0.01590  0.16463  1.0000
  O   O38       1.0  0.16310  0.98410  0.66463  1.0000
  O   O39       1.0  0.83690  0.48410  0.83537  1.0000
  O   O40       1.0  0.66310  0.51590  0.33537  1.0000
  O   O41       1.0  0.69480  0.87110  0.84786  1.0000
  O   O42       1.0  0.80520  0.12890  0.34786  1.0000
  O   O43       1.0  0.19480  0.62890  0.15214  1.0000
  O   O44       1.0  0.30520  0.37110  0.65214  1.0000
  O   O45       1.0  0.30520  0.12890  0.15214  1.0000
  O   O46       1.0  0.19480  0.87110  0.65214  1.0000
  O   O47       1.0  0.80520  0.37110  0.84786  1.0000
  O   O48       1.0  0.69480  0.62890  0.34786  1.0000
  O   O49       1.0  0.98920  0.02900  0.93374  1.0000
  O   O50       1.0  0.51080  0.97100  0.43374  1.0000
  O   O51       1.0  0.48920  0.47100  0.06626  1.0000
  O   O52       1.0  0.01080  0.52900  0.56626  1.0000
  O   O53       1.0  0.01080  0.97100  0.06626  1.0000
  O   O54       1.0  0.48920  0.02900  0.56626  1.0000
  O   O55       1.0  0.51080  0.52900  0.93374  1.0000
  O   O56       1.0  0.98920  0.47100  0.43374  1.0000
  O   O57       1.0  0.95860  0.91280  0.94027  1.0000
  O   O58       1.0  0.54140  0.08720  0.44027  1.0000
  O   O59       1.0  0.45860  0.58720  0.05973  1.0000
  O   O60       1.0  0.04140  0.41280  0.55973  1.0000
  O   O61       1.0  0.04140  0.08720  0.05973  1.0000
  O   O62       1.0  0.45860  0.91280  0.55973  1.0000
  O   O63       1.0  0.54140  0.41280  0.94027  1.0000
  O   O64       1.0  0.95860  0.58720  0.44027  1.0000
  O   O65       1.0  0.61160  0.75500  0.81899  1.0000
  O   O66       1.0  0.88840  0.24500  0.31899  1.0000
  O   O67       1.0  0.11160  0.74500  0.18101  1.0000
  O   O68       1.0  0.38840  0.25500  0.68101  1.0000
  O   O69       1.0  0.38840  0.24500  0.18101  1.0000
  O   O70       1.0  0.11160  0.75500  0.68101  1.0000
  O   O71       1.0  0.88840  0.25500  0.81899  1.0000
  O   O72       1.0  0.61160  0.74500  0.31899  1.0000
  O   O73       1.0  0.53560  0.78250  0.77726  1.0000
  O   O74       1.0  0.96440  0.21750  0.27726  1.0000
  O   O75       1.0  0.03560  0.71750  0.22274  1.0000
  O   O76       1.0  0.46440  0.28250  0.72274  1.0000
  O   O77       1.0  0.46440  0.21750  0.22274  1.0000
  O   O78       1.0  0.03560  0.78250  0.72274  1.0000
  O   O79       1.0  0.96440  0.28250  0.77726  1.0000
  O   O80       1.0  0.53560  0.71750  0.27726  1.0000
  O   O81       1.0  0.49530  0.42020  0.74116  1.0000
  O   O82       1.0  0.00470  0.57980  0.24116  1.0000
  O   O83       1.0  0.99530  0.07980  0.25884  1.0000
  O   O84       1.0  0.50470  0.92020  0.75884  1.0000
  O   O85       1.0  0.50470  0.57980  0.25884  1.0000
  O   O86       1.0  0.99530  0.42020  0.75884  1.0000
  O   O87       1.0  0.00470  0.92020  0.74116  1.0000
  O   O88       1.0  0.49530  0.07980  0.24116  1.0000
  O   O89       1.0  0.43870  0.51090  0.71473  1.0000
  O   O90       1.0  0.06130  0.48910  0.21473  1.0000
  O   O91       1.0  0.93870  0.98910  0.28527  1.0000
  O   O92       1.0  0.56130  0.01090  0.78527  1.0000
  O   O93       1.0  0.56130  0.48910  0.28527  1.0000
  O   O94       1.0  0.93870  0.51090  0.78527  1.0000
  O   O95       1.0  0.06130  0.01090  0.71473  1.0000
  O   O96       1.0  0.43870  0.98910  0.21473  1.0000
  O   O97       1.0  0.06540  0.80850  0.95235  1.0000
  O   O98       1.0  0.43460  0.19150  0.45235  1.0000
  O   O99       1.0  0.56540  0.69150  0.04765  1.0000
  O   O100      1.0  0.93460  0.30850  0.54765  1.0000
  O   O101      1.0  0.93460  0.19150  0.04765  1.0000
  O   O102      1.0  0.56540  0.80850  0.54765  1.0000
  O   O103      1.0  0.43460  0.30850  0.95235  1.0000
  O   O104      1.0  0.06540  0.69150  0.45235  1.0000
  O   O105      1.0  0.18410  0.84040  0.95017  1.0000
  O   O106      1.0  0.31590  0.15960  0.45017  1.0000
  O   O107      1.0  0.68410  0.65960  0.04983  1.0000
  O   O108      1.0  0.81590  0.34040  0.54983  1.0000
  O   O109      1.0  0.81590  0.15960  0.04983  1.0000
  O   O110      1.0  0.68410  0.84040  0.54983  1.0000
  O   O111      1.0  0.31590  0.34040  0.95017  1.0000
  O   O112      1.0  0.18410  0.65960  0.45017  1.0000
  O   O113      1.0  0.27450  0.47910  0.94221  1.0000
  O   O114      1.0  0.22550  0.52090  0.44221  1.0000
  O   O115      1.0  0.77450  0.02090  0.05779  1.0000
  O   O116      1.0  0.72550  0.97910  0.55779  1.0000
  O   O117      1.0  0.72550  0.52090  0.05779  1.0000
  O   O118      1.0  0.77450  0.47910  0.55779  1.0000
  O   O119      1.0  0.22550  0.97910  0.94221  1.0000
  O   O120      1.0  0.27450  0.02090  0.44221  1.0000
  O   O121      1.0  0.35790  0.56720  0.93992  1.0000
  O   O122      1.0  0.14210  0.43280  0.43992  1.0000
  O   O123      1.0  0.85790  0.93280  0.06008  1.0000
  O   O124      1.0  0.64210  0.06720  0.56008  1.0000
  O   O125      1.0  0.64210  0.43280  0.06008  1.0000
  O   O126      1.0  0.85790  0.56720  0.56008  1.0000
  O   O127      1.0  0.14210  0.06720  0.93992  1.0000
  O   O128      1.0  0.35790  0.93280  0.43992  1.0000
  C   C1        1.0  0.76740  0.96900  0.87143  1.0000
  C   C2        1.0  0.73260  0.03100  0.37143  1.0000
  C   C3        1.0  0.26740  0.53100  0.12857  1.0000
  C   C4        1.0  0.23260  0.46900  0.62857  1.0000
  C   C5        1.0  0.23260  0.03100  0.12857  1.0000
  C   C6        1.0  0.26740  0.96900  0.62857  1.0000
  C   C7        1.0  0.73260  0.46900  0.87143  1.0000
  C   C8        1.0  0.76740  0.53100  0.37143  1.0000
  C   C9        1.0  0.78640  0.04170  0.87483  1.0000
  C   C10       1.0  0.71360  0.95830  0.37483  1.0000
  C   C11       1.0  0.28640  0.45830  0.12517  1.0000
  C   C12       1.0  0.21360  0.54170  0.62517  1.0000
  C   C13       1.0  0.21360  0.95830  0.12517  1.0000
  C   C14       1.0  0.28640  0.04170  0.62517  1.0000
  C   C15       1.0  0.71360  0.54170  0.87483  1.0000
  C   C16       1.0  0.78640  0.45830  0.37483  1.0000
  H   H1        1.0  0.76014  0.08077  0.86426  1.0000
  H   H2        1.0  0.73986  0.91923  0.36426  1.0000
  H   H3        1.0  0.26014  0.41923  0.13574  1.0000
  H   H4        1.0  0.23986  0.58077  0.63574  1.0000
  H   H5        1.0  0.23986  0.91923  0.13574  1.0000
  H   H6        1.0  0.26014  0.08077  0.63574  1.0000
  H   H7        1.0  0.73986  0.58077  0.86426  1.0000
  H   H8        1.0  0.76014  0.41923  0.36426  1.0000
  C   C17       1.0  0.84920  0.05140  0.89574  1.0000
  C   C18       1.0  0.65080  0.94860  0.39574  1.0000
  C   C19       1.0  0.34920  0.44860  0.10426  1.0000
  C   C20       1.0  0.15080  0.55140  0.60426  1.0000
  C   C21       1.0  0.15080  0.94860  0.10426  1.0000
  C   C22       1.0  0.34920  0.05140  0.60426  1.0000
  C   C23       1.0  0.65080  0.55140  0.89574  1.0000
  C   C24       1.0  0.84920  0.44860  0.39574  1.0000
  H   H9        1.0  0.86949  0.09812  0.90116  1.0000
  H   H10       1.0  0.63051  0.90188  0.40116  1.0000
  H   H11       1.0  0.36949  0.40188  0.09884  1.0000
  H   H12       1.0  0.13051  0.59812  0.59884  1.0000
  H   H13       1.0  0.13051  0.90188  0.09884  1.0000
  H   H14       1.0  0.36949  0.09812  0.59884  1.0000
  H   H15       1.0  0.63051  0.59812  0.90116  1.0000
  H   H16       1.0  0.86949  0.40188  0.40116  1.0000
  C   C25       1.0  0.87790  0.98710  0.90745  1.0000
  C   C26       1.0  0.62210  0.01290  0.40745  1.0000
  C   C27       1.0  0.37790  0.51290  0.09255  1.0000
  C   C28       1.0  0.12210  0.48710  0.59255  1.0000
  C   C29       1.0  0.12210  0.01290  0.09255  1.0000
  C   C30       1.0  0.37790  0.98710  0.59255  1.0000
  C   C31       1.0  0.62210  0.48710  0.90745  1.0000
  C   C32       1.0  0.87790  0.51290  0.40745  1.0000
  C   C33       1.0  0.70520  0.93980  0.85058  1.0000
  C   C34       1.0  0.79480  0.06020  0.35058  1.0000
  C   C35       1.0  0.20520  0.56020  0.14942  1.0000
  C   C36       1.0  0.29480  0.43980  0.64942  1.0000
  C   C37       1.0  0.29480  0.06020  0.14942  1.0000
  C   C38       1.0  0.20520  0.93980  0.64942  1.0000
  C   C39       1.0  0.79480  0.43980  0.85058  1.0000
  C   C40       1.0  0.70520  0.56020  0.35058  1.0000
  C   C41       1.0  0.94420  0.97670  0.92885  1.0000
  C   C42       1.0  0.55580  0.02330  0.42885  1.0000
  C   C43       1.0  0.44420  0.52330  0.07115  1.0000
  C   C44       1.0  0.05580  0.47670  0.57115  1.0000
  C   C45       1.0  0.05580  0.02330  0.07115  1.0000
  C   C46       1.0  0.44420  0.97670  0.57115  1.0000
  C   C47       1.0  0.55580  0.47670  0.92885  1.0000
  C   C48       1.0  0.94420  0.52330  0.42885  1.0000
  C   C49       1.0  0.56150  0.65680  0.78640  1.0000
  C   C50       1.0  0.93850  0.34320  0.28640  1.0000
  C   C51       1.0  0.06150  0.84320  0.21360  1.0000
  C   C52       1.0  0.43850  0.15680  0.71360  1.0000
  C   C53       1.0  0.43850  0.34320  0.21360  1.0000
  C   C54       1.0  0.06150  0.65680  0.71360  1.0000
  C   C55       1.0  0.93850  0.15680  0.78640  1.0000
  C   C56       1.0  0.56150  0.84320  0.28640  1.0000
  C   C57       1.0  0.58780  0.59600  0.80255  1.0000
  C   C58       1.0  0.91220  0.40400  0.30255  1.0000
  C   C59       1.0  0.08780  0.90400  0.19745  1.0000
  C   C60       1.0  0.41220  0.09600  0.69745  1.0000
  C   C61       1.0  0.41220  0.40400  0.19745  1.0000
  C   C62       1.0  0.08780  0.59600  0.69745  1.0000
  C   C63       1.0  0.91220  0.09600  0.80255  1.0000
  C   C64       1.0  0.58780  0.90400  0.30255  1.0000
  H   H17       1.0  0.61758  0.59776  0.82247  1.0000
  H   H18       1.0  0.88242  0.40224  0.32247  1.0000
  H   H19       1.0  0.11758  0.90224  0.17753  1.0000
  H   H20       1.0  0.38242  0.09776  0.67753  1.0000
  H   H21       1.0  0.38242  0.40224  0.17753  1.0000
  H   H22       1.0  0.11758  0.59776  0.67753  1.0000
  H   H23       1.0  0.88242  0.09776  0.82247  1.0000
  H   H24       1.0  0.61758  0.90224  0.32247  1.0000
  C   C65       1.0  0.56660  0.53190  0.78693  1.0000
  C   C66       1.0  0.93340  0.46810  0.28693  1.0000
  C   C67       1.0  0.06660  0.96810  0.21307  1.0000
  C   C68       1.0  0.43340  0.03190  0.71307  1.0000
  C   C69       1.0  0.43340  0.46810  0.21307  1.0000
  C   C70       1.0  0.06660  0.53190  0.71307  1.0000
  C   C71       1.0  0.93340  0.03190  0.78693  1.0000
  C   C72       1.0  0.56660  0.96810  0.28693  1.0000
  H   H25       1.0  0.58322  0.48488  0.79414  1.0000
  H   H26       1.0  0.91678  0.51512  0.29414  1.0000
  H   H27       1.0  0.08322  0.01512  0.20586  1.0000
  H   H28       1.0  0.41678  0.98488  0.70586  1.0000
  H   H29       1.0  0.41678  0.51512  0.20586  1.0000
  H   H30       1.0  0.08322  0.48488  0.70586  1.0000
  H   H31       1.0  0.91678  0.98488  0.79414  1.0000
  H   H32       1.0  0.58322  0.01512  0.29414  1.0000
  C   C73       1.0  0.51900  0.54200  0.75992  1.0000
  C   C74       1.0  0.98100  0.45800  0.25992  1.0000
  C   C75       1.0  0.01900  0.95800  0.24008  1.0000
  C   C76       1.0  0.48100  0.04200  0.74008  1.0000
  C   C77       1.0  0.48100  0.45800  0.24008  1.0000
  C   C78       1.0  0.01900  0.54200  0.74008  1.0000
  C   C79       1.0  0.98100  0.04200  0.75992  1.0000
  C   C80       1.0  0.51900  0.95800  0.25992  1.0000
  C   C81       1.0  0.56920  0.73410  0.79532  1.0000
  C   C82       1.0  0.93080  0.26590  0.29532  1.0000
  C   C83       1.0  0.06920  0.76590  0.20468  1.0000
  C   C84       1.0  0.43080  0.23410  0.70468  1.0000
  C   C85       1.0  0.43080  0.26590  0.20468  1.0000
  C   C86       1.0  0.06920  0.73410  0.70468  1.0000
  C   C87       1.0  0.93080  0.23410  0.79532  1.0000
  C   C88       1.0  0.56920  0.76590  0.29532  1.0000
  C   C89       1.0  0.48280  0.48800  0.73753  1.0000
  C   C90       1.0  0.01720  0.51200  0.23753  1.0000
  C   C91       1.0  0.98280  0.01200  0.26247  1.0000
  C   C92       1.0  0.51720  0.98800  0.76247  1.0000
  C   C93       1.0  0.51720  0.51200  0.26247  1.0000
  C   C94       1.0  0.98280  0.48800  0.76247  1.0000
  C   C95       1.0  0.01720  0.98800  0.73753  1.0000
  C   C96       1.0  0.48280  0.01200  0.23753  1.0000
  C   C97       1.0  0.15630  0.71440  0.94625  1.0000
  C   C98       1.0  0.34370  0.28560  0.44625  1.0000
  C   C99       1.0  0.65630  0.78560  0.05375  1.0000
  C   C100      1.0  0.84370  0.21440  0.55375  1.0000
  C   C101      1.0  0.84370  0.28560  0.05375  1.0000
  C   C102      1.0  0.65630  0.71440  0.55375  1.0000
  C   C103      1.0  0.34370  0.21440  0.94625  1.0000
  C   C104      1.0  0.15630  0.78560  0.44625  1.0000
  C   C105      1.0  0.11160  0.65170  0.94260  1.0000
  C   C106      1.0  0.38840  0.34830  0.44260  1.0000
  C   C107      1.0  0.61160  0.84830  0.05740  1.0000
  C   C108      1.0  0.88840  0.15170  0.55740  1.0000
  C   C109      1.0  0.88840  0.34830  0.05740  1.0000
  C   C110      1.0  0.61160  0.65170  0.55740  1.0000
  C   C111      1.0  0.38840  0.15170  0.94260  1.0000
  C   C112      1.0  0.11160  0.84830  0.44260  1.0000
  H   H33       1.0  0.05850  0.65260  0.94183  1.0000
  H   H34       1.0  0.44150  0.34740  0.44183  1.0000
  H   H35       1.0  0.55850  0.84740  0.05817  1.0000
  H   H36       1.0  0.94150  0.15260  0.55817  1.0000
  H   H37       1.0  0.94150  0.34740  0.05817  1.0000
  H   H38       1.0  0.55850  0.65260  0.55817  1.0000
  H   H39       1.0  0.44150  0.15260  0.94183  1.0000
  H   H40       1.0  0.05850  0.84740  0.44183  1.0000
  C   C113      1.0  0.15410  0.58820  0.94020  1.0000
  C   C114      1.0  0.34590  0.41180  0.44020  1.0000
  C   C115      1.0  0.65410  0.91180  0.05980  1.0000
  C   C116      1.0  0.84590  0.08820  0.55980  1.0000
  C   C117      1.0  0.84590  0.41180  0.05980  1.0000
  C   C118      1.0  0.65410  0.58820  0.55980  1.0000
  C   C119      1.0  0.34590  0.08820  0.94020  1.0000
  C   C120      1.0  0.15410  0.91180  0.44020  1.0000
  H   H41       1.0  0.13316  0.54044  0.93837  1.0000
  H   H42       1.0  0.36684  0.45956  0.43837  1.0000
  H   H43       1.0  0.63316  0.95956  0.06163  1.0000
  H   H44       1.0  0.86684  0.04044  0.56163  1.0000
  H   H45       1.0  0.86684  0.45956  0.06163  1.0000
  H   H46       1.0  0.63316  0.54044  0.56163  1.0000
  H   H47       1.0  0.36684  0.04044  0.93837  1.0000
  H   H48       1.0  0.13316  0.95956  0.43837  1.0000
  C   C121      1.0  0.22940  0.60170  0.94090  1.0000
  C   C122      1.0  0.27060  0.39830  0.44090  1.0000
  C   C123      1.0  0.72940  0.89830  0.05910  1.0000
  C   C124      1.0  0.77060  0.10170  0.55910  1.0000
  C   C125      1.0  0.77060  0.39830  0.05910  1.0000
  C   C126      1.0  0.72940  0.60170  0.55910  1.0000
  C   C127      1.0  0.27060  0.10170  0.94090  1.0000
  C   C128      1.0  0.22940  0.89830  0.44090  1.0000
  C   C129      1.0  0.13430  0.79180  0.94996  1.0000
  C   C130      1.0  0.36570  0.20820  0.44996  1.0000
  C   C131      1.0  0.63430  0.70820  0.05004  1.0000
  C   C132      1.0  0.86570  0.29180  0.55004  1.0000
  C   C133      1.0  0.86570  0.20820  0.05004  1.0000
  C   C134      1.0  0.63430  0.79180  0.55004  1.0000
  C   C135      1.0  0.36570  0.29180  0.94996  1.0000
  C   C136      1.0  0.13430  0.70820  0.44996  1.0000
  C   C137      1.0  0.29040  0.54660  0.94040  1.0000
  C   C138      1.0  0.20960  0.45340  0.44040  1.0000
  C   C139      1.0  0.79040  0.95340  0.05960  1.0000
  C   C140      1.0  0.70960  0.04660  0.55960  1.0000
  C   C141      1.0  0.70960  0.45340  0.05960  1.0000
  C   C142      1.0  0.79040  0.54660  0.55960  1.0000
  C   C143      1.0  0.20960  0.04660  0.94040  1.0000
  C   C144      1.0  0.29040  0.95340  0.44040  1.0000
