data_image0
_chemical_formula_structural       C8H2C2H2C2H2C2H2C2H2C2H2C2H2C2H2C2H2C8H2C2H2C2H2C2H2C2H2C2H2C2H2C2H2C2H2C24F20Fe4Pt2Tl2
_chemical_formula_sum              "C72 H36 F20 Fe4 Pt2 Tl2"
_cell_length_a       11.688
_cell_length_b       16.063
_cell_length_c       17.105
_cell_angle_alpha    75.19
_cell_angle_beta     70.36
_cell_angle_gamma    76.96

_space_group_name_H-M_alt    "P 1"
_space_group_IT_number       1

loop_
  _space_group_symop_operation_xyz
  'x, y, z'

loop_
  _atom_site_type_symbol
  _atom_site_label
  _atom_site_symmetry_multiplicity
  _atom_site_fract_x
  _atom_site_fract_y
  _atom_site_fract_z
  _atom_site_occupancy
  C   C1        1.0  0.59670  0.37770  0.49980  1.0000
  C   C2        1.0  0.40330  0.62230  0.50020  1.0000
  C   C3        1.0  0.66470  0.30920  0.49620  1.0000
  C   C4        1.0  0.33530  0.69080  0.50380  1.0000
  C   C5        1.0  0.74340  0.22710  0.49720  1.0000
  C   C6        1.0  0.25660  0.77290  0.50280  1.0000
  C   C7        1.0  0.86770  0.20900  0.49980  1.0000
  C   C8        1.0  0.13230  0.79100  0.50020  1.0000
  H   H1        1.0  0.91390  0.25000  0.49800  1.0000
  H   H2        1.0  0.08610  0.75000  0.50200  1.0000
  C   C9        1.0  0.90890  0.11780  0.50570  1.0000
  C   C10       1.0  0.09110  0.88220  0.49430  1.0000
  H   H3        1.0  0.98580  0.08870  0.50960  1.0000
  H   H4        1.0  0.01420  0.91130  0.49040  1.0000
  C   C11       1.0  0.81240  0.07940  0.50450  1.0000
  C   C12       1.0  0.18760  0.92060  0.49550  1.0000
  H   H5        1.0  0.81470  0.02050  0.50710  1.0000
  H   H6        1.0  0.18530  0.97950  0.49290  1.0000
  C   C13       1.0  0.71130  0.14600  0.49850  1.0000
  C   C14       1.0  0.28870  0.85400  0.50150  1.0000
  H   H7        1.0  0.63630  0.13810  0.49580  1.0000
  H   H8        1.0  0.36370  0.86190  0.50420  1.0000
  C   C15       1.0  0.85370  0.25710  0.28960  1.0000
  C   C16       1.0  0.14630  0.74290  0.71040  1.0000
  H   H9        1.0  0.80910  0.31300  0.28690  1.0000
  H   H10       1.0  0.19090  0.68700  0.71310  1.0000
  C   C17       1.0  0.97750  0.23210  0.29340  1.0000
  C   C18       1.0  0.02250  0.76790  0.70660  1.0000
  H   H11       1.0  0.02810  0.26930  0.29340  1.0000
  H   H12       1.0  0.97190  0.73070  0.70660  1.0000
  C   C19       1.0  0.00940  0.14200  0.29730  1.0000
  C   C20       1.0  0.99060  0.85800  0.70270  1.0000
  H   H13       1.0  0.08440  0.10880  0.30070  1.0000
  H   H14       1.0  0.91560  0.89120  0.69930  1.0000
  C   C21       1.0  0.90740  0.11060  0.29520  1.0000
  C   C22       1.0  0.09260  0.88940  0.70480  1.0000
  H   H15       1.0  0.90390  0.05290  0.29650  1.0000
  H   H16       1.0  0.09610  0.94710  0.70350  1.0000
  C   C23       1.0  0.81240  0.18080  0.29070  1.0000
  C   C24       1.0  0.18760  0.81920  0.70930  1.0000
  H   H17       1.0  0.73500  0.17760  0.28880  1.0000
  H   H18       1.0  0.26500  0.82240  0.71120  1.0000
  C   C25       1.0  0.91190  0.62270  0.47630  1.0000
  C   C26       1.0  0.08810  0.37730  0.52370  1.0000
  C   C27       1.0  0.85240  0.69240  0.45950  1.0000
  C   C28       1.0  0.14760  0.30760  0.54050  1.0000
  C   C29       1.0  0.78410  0.77600  0.43980  1.0000
  C   C30       1.0  0.21590  0.22400  0.56020  1.0000
  C   C31       1.0  0.66020  0.79480  0.43260  1.0000
  C   C32       1.0  0.33980  0.20520  0.56740  1.0000
  H   H19       1.0  0.61140  0.75390  0.43830  1.0000
  H   H20       1.0  0.38860  0.24610  0.56170  1.0000
  C   C33       1.0  0.62670  0.88710  0.41520  1.0000
  C   C34       1.0  0.37330  0.11290  0.58480  1.0000
  H   H21       1.0  0.55190  0.91670  0.40760  1.0000
  H   H22       1.0  0.44810  0.08330  0.59240  1.0000
  C   C35       1.0  0.72610  0.92670  0.41140  1.0000
  C   C36       1.0  0.27390  0.07330  0.58860  1.0000
  H   H23       1.0  0.72810  0.98610  0.40100  1.0000
  H   H24       1.0  0.27190  0.01390  0.59900  1.0000
  C   C37       1.0  0.82130  0.85890  0.42640  1.0000
  C   C38       1.0  0.17870  0.14110  0.57360  1.0000
  H   H25       1.0  0.89720  0.86680  0.42750  1.0000
  H   H26       1.0  0.10280  0.13320  0.57250  1.0000
  C   C39       1.0  0.66540  0.76710  0.64020  1.0000
  C   C40       1.0  0.33460  0.23290  0.35980  1.0000
  H   H27       1.0  0.70630  0.71020  0.64800  1.0000
  H   H28       1.0  0.29370  0.28980  0.35200  1.0000
  C   C41       1.0  0.54520  0.79220  0.63290  1.0000
  C   C42       1.0  0.45480  0.20780  0.36710  1.0000
  H   H29       1.0  0.49330  0.75500  0.63500  1.0000
  H   H30       1.0  0.50670  0.24500  0.36500  1.0000
  C   C43       1.0  0.51740  0.88500  0.62190  1.0000
  C   C44       1.0  0.48260  0.11500  0.37810  1.0000
  H   H31       1.0  0.44400  0.91900  0.61560  1.0000
  H   H32       1.0  0.55600  0.08100  0.38440  1.0000
  C   C45       1.0  0.62200  0.91630  0.62220  1.0000
  C   C46       1.0  0.37800  0.08370  0.37780  1.0000
  H   H33       1.0  0.62900  0.97430  0.61610  1.0000
  H   H34       1.0  0.37100  0.02570  0.38390  1.0000
  C   C47       1.0  0.71390  0.84290  0.63360  1.0000
  C   C48       1.0  0.28610  0.15710  0.36640  1.0000
  H   H35       1.0  0.79160  0.84450  0.63620  1.0000
  H   H36       1.0  0.20840  0.15550  0.36380  1.0000
  C   C49       1.0  0.52550  0.51490  0.37110  1.0000
  C   C50       1.0  0.47450  0.48510  0.62890  1.0000
  C   C51       1.0  0.58790  0.57650  0.31000  1.0000
  C   C52       1.0  0.41210  0.42350  0.69000  1.0000
  C   C53       1.0  0.61210  0.58270  0.22430  1.0000
  C   C54       1.0  0.38790  0.41730  0.77570  1.0000
  C   C55       1.0  0.57260  0.52430  0.19670  1.0000
  C   C56       1.0  0.42740  0.47570  0.80330  1.0000
  C   C57       1.0  0.50910  0.46210  0.25380  1.0000
  C   C58       1.0  0.49090  0.53790  0.74620  1.0000
  C   C59       1.0  0.48410  0.46000  0.33880  1.0000
  C   C60       1.0  0.51590  0.54000  0.66120  1.0000
  C   C61       1.0  0.89270  0.48460  0.62480  1.0000
  C   C62       1.0  0.10730  0.51540  0.37520  1.0000
  C   C63       1.0  0.81950  0.41970  0.66430  1.0000
  C   C64       1.0  0.18050  0.58030  0.33570  1.0000
  C   C65       1.0  0.75080  0.40740  0.74710  1.0000
  C   C66       1.0  0.24920  0.59260  0.25290  1.0000
  C   C67       1.0  0.74990  0.46190  0.79670  1.0000
  C   C68       1.0  0.25010  0.53810  0.20330  1.0000
  C   C69       1.0  0.82040  0.52750  0.76140  1.0000
  C   C70       1.0  0.17960  0.47250  0.23860  1.0000
  C   C71       1.0  0.88960  0.53740  0.67780  1.0000
  C   C72       1.0  0.11040  0.46260  0.32220  1.0000
  F   F1        1.0  0.63310  0.63480  0.33300  1.0000
  F   F2        1.0  0.36690  0.36520  0.66700  1.0000
  F   F3        1.0  0.67300  0.64560  0.16750  1.0000
  F   F4        1.0  0.32700  0.35440  0.83250  1.0000
  F   F5        1.0  0.59560  0.52880  0.11320  1.0000
  F   F6        1.0  0.40440  0.47120  0.88680  1.0000
  F   F7        1.0  0.46930  0.40500  0.22760  1.0000
  F   F8        1.0  0.53070  0.59500  0.77240  1.0000
  F   F9        1.0  0.41490  0.39940  0.39310  1.0000
  F   F10       1.0  0.58510  0.60060  0.60690  1.0000
  F   F11       1.0  0.81000  0.36450  0.61860  1.0000
  F   F12       1.0  0.19000  0.63550  0.38140  1.0000
  F   F13       1.0  0.68110  0.34240  0.78170  1.0000
  F   F14       1.0  0.31890  0.65760  0.21830  1.0000
  F   F15       1.0  0.68210  0.45290  0.87890  1.0000
  F   F16       1.0  0.31790  0.54710  0.12110  1.0000
  F   F17       1.0  0.81930  0.58510  0.80860  1.0000
  F   F18       1.0  0.18070  0.41490  0.19140  1.0000
  F   F19       1.0  0.95980  0.60280  0.64870  1.0000
  F   F20       1.0  0.04020  0.39720  0.35130  1.0000
  Fe  Fe1       1.0  0.86044  0.17004  0.39729  1.0000
  Fe  Fe2       1.0  0.13956  0.82996  0.60271  1.0000
  Fe  Fe3       1.0  0.66755  0.84802  0.52709  1.0000
  Fe  Fe4       1.0  0.33245  0.15198  0.47291  1.0000
  Pt  Pt1       1.0  0.50000  0.50000  0.50000  1.0000
  Pt  Pt2       1.0  0.00000  0.50000  0.50000  1.0000
  Tl  Tl1       1.0  0.77382  0.49857  0.45424  1.0000
  Tl  Tl2       1.0  0.22618  0.50143  0.54576  1.0000
