data_image0
_chemical_formula_structural       Cd6O12C12O12C24H12C12N12C12H12C12H12C24H12C24H12C12H12O12C24H12O12
_chemical_formula_sum              "Cd6 O48 C156 H84 N12"
_cell_length_a       18.6345
_cell_length_b       18.6345
_cell_length_c       21.563
_cell_angle_alpha    90
_cell_angle_beta     90
_cell_angle_gamma    120

_space_group_name_H-M_alt    "P 1"
_space_group_IT_number       1

loop_
  _space_group_symop_operation_xyz
  'x, y, z'

loop_
  _atom_site_type_symbol
  _atom_site_label
  _atom_site_symmetry_multiplicity
  _atom_site_fract_x
  _atom_site_fract_y
  _atom_site_fract_z
  _atom_site_occupancy
  Cd  Cd1       1.0  0.77262  0.54524  0.25000  1.0000
  Cd  Cd2       1.0  0.45476  0.22738  0.58333  1.0000
  Cd  Cd3       1.0  0.77262  0.22738  0.91667  1.0000
  Cd  Cd4       1.0  0.22738  0.45476  0.75000  1.0000
  Cd  Cd5       1.0  0.54524  0.77262  0.08333  1.0000
  Cd  Cd6       1.0  0.22738  0.77262  0.41667  1.0000
  O   O1        1.0  0.76290  0.64390  0.30380  1.0000
  O   O2        1.0  0.35610  0.11900  0.63713  1.0000
  O   O3        1.0  0.88100  0.23710  0.97047  1.0000
  O   O4        1.0  0.23710  0.35610  0.80380  1.0000
  O   O5        1.0  0.64390  0.88100  0.13713  1.0000
  O   O6        1.0  0.11900  0.76290  0.47047  1.0000
  O   O7        1.0  0.64390  0.76290  0.02953  1.0000
  O   O8        1.0  0.11900  0.35610  0.69620  1.0000
  O   O9        1.0  0.23710  0.88100  0.36287  1.0000
  O   O10       1.0  0.35610  0.23710  0.52953  1.0000
  O   O11       1.0  0.88100  0.64390  0.19620  1.0000
  O   O12       1.0  0.76290  0.11900  0.86287  1.0000
  C   C1        1.0  0.70390  0.60000  0.34200  1.0000
  C   C2        1.0  0.40000  0.10390  0.67533  1.0000
  C   C3        1.0  0.89610  0.29610  0.00867  1.0000
  C   C4        1.0  0.29610  0.40000  0.84200  1.0000
  C   C5        1.0  0.60000  0.89610  0.17533  1.0000
  C   C6        1.0  0.10390  0.70390  0.50867  1.0000
  C   C7        1.0  0.60000  0.70390  0.99133  1.0000
  C   C8        1.0  0.10390  0.40000  0.65800  1.0000
  C   C9        1.0  0.29610  0.89610  0.32467  1.0000
  C   C10       1.0  0.40000  0.29610  0.49133  1.0000
  C   C11       1.0  0.89610  0.60000  0.15800  1.0000
  C   C12       1.0  0.70390  0.10390  0.82467  1.0000
  O   O13       1.0  0.66460  0.52690  0.33970  1.0000
  O   O14       1.0  0.47310  0.13770  0.67303  1.0000
  O   O15       1.0  0.86230  0.33540  0.00637  1.0000
  O   O16       1.0  0.33540  0.47310  0.83970  1.0000
  O   O17       1.0  0.52690  0.86230  0.17303  1.0000
  O   O18       1.0  0.13770  0.66460  0.50637  1.0000
  O   O19       1.0  0.52690  0.66460  0.99363  1.0000
  O   O20       1.0  0.13770  0.47310  0.66030  1.0000
  O   O21       1.0  0.33540  0.86230  0.32697  1.0000
  O   O22       1.0  0.47310  0.33540  0.49363  1.0000
  O   O23       1.0  0.86230  0.52690  0.16030  1.0000
  O   O24       1.0  0.66460  0.13770  0.82697  1.0000
  C   C13       1.0  0.68730  0.64990  0.39020  1.0000
  C   C14       1.0  0.35010  0.03740  0.72353  1.0000
  C   C15       1.0  0.96260  0.31270  0.05687  1.0000
  C   C16       1.0  0.31270  0.35010  0.89020  1.0000
  C   C17       1.0  0.64990  0.96260  0.22353  1.0000
  C   C18       1.0  0.03740  0.68730  0.55687  1.0000
  C   C19       1.0  0.64990  0.68730  0.94313  1.0000
  C   C20       1.0  0.03740  0.35010  0.60980  1.0000
  C   C21       1.0  0.31270  0.96260  0.27647  1.0000
  C   C22       1.0  0.35010  0.31270  0.44313  1.0000
  C   C23       1.0  0.96260  0.64990  0.10980  1.0000
  C   C24       1.0  0.68730  0.03740  0.77647  1.0000
  C   C25       1.0  0.62490  0.60980  0.43399  1.0000
  C   C26       1.0  0.39020  0.01510  0.76732  1.0000
  C   C27       1.0  0.98490  0.37510  0.10066  1.0000
  C   C28       1.0  0.37510  0.39020  0.93399  1.0000
  C   C29       1.0  0.60980  0.98490  0.26732  1.0000
  C   C30       1.0  0.01510  0.62490  0.60066  1.0000
  C   C31       1.0  0.60980  0.62490  0.89934  1.0000
  C   C32       1.0  0.01510  0.39020  0.56601  1.0000
  C   C33       1.0  0.37510  0.98490  0.23268  1.0000
  C   C34       1.0  0.39020  0.37510  0.39934  1.0000
  C   C35       1.0  0.98490  0.60980  0.06601  1.0000
  C   C36       1.0  0.62490  0.01510  0.73268  1.0000
  H   H1        1.0  0.59370  0.55230  0.43450  1.0000
  H   H2        1.0  0.44770  0.04140  0.76783  1.0000
  H   H3        1.0  0.95860  0.40630  0.10117  1.0000
  H   H4        1.0  0.40630  0.44770  0.93450  1.0000
  H   H5        1.0  0.55230  0.95860  0.26783  1.0000
  H   H6        1.0  0.04140  0.59370  0.60117  1.0000
  H   H7        1.0  0.55230  0.59370  0.89883  1.0000
  H   H8        1.0  0.04140  0.44770  0.56550  1.0000
  H   H9        1.0  0.40630  0.95860  0.23217  1.0000
  H   H10       1.0  0.44770  0.40630  0.39883  1.0000
  H   H11       1.0  0.95860  0.55230  0.06550  1.0000
  H   H12       1.0  0.59370  0.04140  0.73217  1.0000
  C   C37       1.0  0.60910  0.65580  0.47702  1.0000
  C   C38       1.0  0.34420  0.95330  0.81035  1.0000
  C   C39       1.0  0.04670  0.39090  0.14369  1.0000
  C   C40       1.0  0.39090  0.34420  0.97702  1.0000
  C   C41       1.0  0.65580  0.04670  0.31035  1.0000
  C   C42       1.0  0.95330  0.60910  0.64369  1.0000
  C   C43       1.0  0.65580  0.60910  0.85631  1.0000
  C   C44       1.0  0.95330  0.34420  0.52298  1.0000
  C   C45       1.0  0.39090  0.04670  0.18965  1.0000
  C   C46       1.0  0.34420  0.39090  0.35631  1.0000
  C   C47       1.0  0.04670  0.65580  0.02298  1.0000
  C   C48       1.0  0.60910  0.95330  0.68965  1.0000
  N   N1        1.0  0.65570  0.74180  0.47630  1.0000
  N   N2        1.0  0.25820  0.91390  0.80963  1.0000
  N   N3        1.0  0.08610  0.34430  0.14297  1.0000
  N   N4        1.0  0.34430  0.25820  0.97630  1.0000
  N   N5        1.0  0.74180  0.08610  0.30963  1.0000
  N   N6        1.0  0.91390  0.65570  0.64297  1.0000
  N   N7        1.0  0.74180  0.65570  0.85703  1.0000
  N   N8        1.0  0.91390  0.25820  0.52370  1.0000
  N   N9        1.0  0.34430  0.08610  0.19037  1.0000
  N   N10       1.0  0.25820  0.34430  0.35703  1.0000
  N   N11       1.0  0.08610  0.74180  0.02370  1.0000
  N   N12       1.0  0.65570  0.91390  0.69037  1.0000
  C   C49       1.0  0.71820  0.78190  0.43250  1.0000
  C   C50       1.0  0.21810  0.93630  0.76583  1.0000
  C   C51       1.0  0.06370  0.28180  0.09917  1.0000
  C   C52       1.0  0.28180  0.21810  0.93250  1.0000
  C   C53       1.0  0.78190  0.06370  0.26583  1.0000
  C   C54       1.0  0.93630  0.71820  0.59917  1.0000
  C   C55       1.0  0.78190  0.71820  0.90083  1.0000
  C   C56       1.0  0.93630  0.21810  0.56750  1.0000
  C   C57       1.0  0.28180  0.06370  0.23417  1.0000
  C   C58       1.0  0.21810  0.28180  0.40083  1.0000
  C   C59       1.0  0.06370  0.78190  0.06750  1.0000
  C   C60       1.0  0.71820  0.93630  0.73417  1.0000
  H   H13       1.0  0.74940  0.83940  0.43210  1.0000
  H   H14       1.0  0.16060  0.91000  0.76543  1.0000
  H   H15       1.0  0.09000  0.25060  0.09877  1.0000
  H   H16       1.0  0.25060  0.16060  0.93210  1.0000
  H   H17       1.0  0.83940  0.09000  0.26543  1.0000
  H   H18       1.0  0.91000  0.74940  0.59877  1.0000
  H   H19       1.0  0.83940  0.74940  0.90123  1.0000
  H   H20       1.0  0.91000  0.16060  0.56790  1.0000
  H   H21       1.0  0.25060  0.09000  0.23457  1.0000
  H   H22       1.0  0.16060  0.25060  0.40123  1.0000
  H   H23       1.0  0.09000  0.83940  0.06790  1.0000
  H   H24       1.0  0.74940  0.91000  0.73457  1.0000
  C   C61       1.0  0.73390  0.73590  0.38950  1.0000
  C   C62       1.0  0.26410  0.99800  0.72283  1.0000
  C   C63       1.0  0.00200  0.26610  0.05617  1.0000
  C   C64       1.0  0.26610  0.26410  0.88950  1.0000
  C   C65       1.0  0.73590  0.00200  0.22283  1.0000
  C   C66       1.0  0.99800  0.73390  0.55617  1.0000
  C   C67       1.0  0.73590  0.73390  0.94383  1.0000
  C   C68       1.0  0.99800  0.26410  0.61050  1.0000
  C   C69       1.0  0.26610  0.00200  0.27717  1.0000
  C   C70       1.0  0.26410  0.26610  0.44383  1.0000
  C   C71       1.0  0.00200  0.73590  0.11050  1.0000
  C   C72       1.0  0.73390  0.99800  0.77717  1.0000
  H   H25       1.0  0.77570  0.76270  0.36020  1.0000
  H   H26       1.0  0.23730  0.01300  0.69353  1.0000
  H   H27       1.0  0.98700  0.22430  0.02687  1.0000
  H   H28       1.0  0.22430  0.23730  0.86020  1.0000
  H   H29       1.0  0.76270  0.98700  0.19353  1.0000
  H   H30       1.0  0.01300  0.77570  0.52687  1.0000
  H   H31       1.0  0.76270  0.77570  0.97313  1.0000
  H   H32       1.0  0.01300  0.23730  0.63980  1.0000
  H   H33       1.0  0.22430  0.98700  0.30647  1.0000
  H   H34       1.0  0.23730  0.22430  0.47313  1.0000
  H   H35       1.0  0.98700  0.76270  0.13980  1.0000
  H   H36       1.0  0.77570  0.01300  0.80647  1.0000
  C   C73       1.0  0.41910  0.54260  0.61610  1.0000
  C   C74       1.0  0.45740  0.87650  0.94943  1.0000
  C   C75       1.0  0.12350  0.58090  0.28277  1.0000
  C   C76       1.0  0.58090  0.45740  0.11610  1.0000
  C   C77       1.0  0.54260  0.12350  0.44943  1.0000
  C   C78       1.0  0.87650  0.41910  0.78277  1.0000
  C   C79       1.0  0.54260  0.41910  0.71723  1.0000
  C   C80       1.0  0.87650  0.45740  0.38390  1.0000
  C   C81       1.0  0.58090  0.12350  0.05057  1.0000
  C   C82       1.0  0.45740  0.58090  0.21723  1.0000
  C   C83       1.0  0.12350  0.54260  0.88390  1.0000
  C   C84       1.0  0.41910  0.87650  0.55057  1.0000
  C   C85       1.0  0.50120  0.52980  0.53740  1.0000
  C   C86       1.0  0.47020  0.97140  0.87073  1.0000
  C   C87       1.0  0.02860  0.49880  0.20407  1.0000
  C   C88       1.0  0.49880  0.47020  0.03740  1.0000
  C   C89       1.0  0.52980  0.02860  0.37073  1.0000
  C   C90       1.0  0.97140  0.50120  0.70407  1.0000
  C   C91       1.0  0.52980  0.50120  0.79593  1.0000
  C   C92       1.0  0.97140  0.47020  0.46260  1.0000
  C   C93       1.0  0.49880  0.02860  0.12927  1.0000
  C   C94       1.0  0.47020  0.49880  0.29593  1.0000
  C   C95       1.0  0.02860  0.52980  0.96260  1.0000
  C   C96       1.0  0.50120  0.97140  0.62927  1.0000
  H   H37       1.0  0.51340  0.49520  0.51430  1.0000
  H   H38       1.0  0.50480  0.01820  0.84763  1.0000
  H   H39       1.0  0.98180  0.48660  0.18097  1.0000
  H   H40       1.0  0.48660  0.50480  0.01430  1.0000
  H   H41       1.0  0.49520  0.98180  0.34763  1.0000
  H   H42       1.0  0.01820  0.51340  0.68097  1.0000
  H   H43       1.0  0.49520  0.51340  0.81903  1.0000
  H   H44       1.0  0.01820  0.50480  0.48570  1.0000
  H   H45       1.0  0.48660  0.98180  0.15237  1.0000
  H   H46       1.0  0.50480  0.48660  0.31903  1.0000
  H   H47       1.0  0.98180  0.49520  0.98570  1.0000
  H   H48       1.0  0.51340  0.01820  0.65237  1.0000
  C   C97       1.0  0.54360  0.61670  0.52450  1.0000
  C   C98       1.0  0.38330  0.92690  0.85783  1.0000
  C   C99       1.0  0.07310  0.45640  0.19117  1.0000
  C   C100      1.0  0.45640  0.38330  0.02450  1.0000
  C   C101      1.0  0.61670  0.07310  0.35783  1.0000
  C   C102      1.0  0.92690  0.54360  0.69117  1.0000
  C   C103      1.0  0.61670  0.54360  0.80883  1.0000
  C   C104      1.0  0.92690  0.38330  0.47550  1.0000
  C   C105      1.0  0.45640  0.07310  0.14217  1.0000
  C   C106      1.0  0.38330  0.45640  0.30883  1.0000
  C   C107      1.0  0.07310  0.61670  0.97550  1.0000
  C   C108      1.0  0.54360  0.92690  0.64217  1.0000
  C   C109      1.0  0.45660  0.62860  0.60140  1.0000
  C   C110      1.0  0.37140  0.82800  0.93473  1.0000
  C   C111      1.0  0.17200  0.54340  0.26807  1.0000
  C   C112      1.0  0.54340  0.37140  0.10140  1.0000
  C   C113      1.0  0.62860  0.17200  0.43473  1.0000
  C   C114      1.0  0.82800  0.45660  0.76807  1.0000
  C   C115      1.0  0.62860  0.45660  0.73193  1.0000
  C   C116      1.0  0.82800  0.37140  0.39860  1.0000
  C   C117      1.0  0.54340  0.17200  0.06527  1.0000
  C   C118      1.0  0.37140  0.54340  0.23193  1.0000
  C   C119      1.0  0.17200  0.62860  0.89860  1.0000
  C   C120      1.0  0.45660  0.82800  0.56527  1.0000
  H   H49       1.0  0.43990  0.66190  0.62150  1.0000
  H   H50       1.0  0.33810  0.77800  0.95483  1.0000
  H   H51       1.0  0.22200  0.56010  0.28817  1.0000
  H   H52       1.0  0.56010  0.33810  0.12150  1.0000
  H   H53       1.0  0.66190  0.22200  0.45483  1.0000
  H   H54       1.0  0.77800  0.43990  0.78817  1.0000
  H   H55       1.0  0.66190  0.43990  0.71183  1.0000
  H   H56       1.0  0.77800  0.33810  0.37850  1.0000
  H   H57       1.0  0.56010  0.22200  0.04517  1.0000
  H   H58       1.0  0.33810  0.56010  0.21183  1.0000
  H   H59       1.0  0.22200  0.66190  0.87850  1.0000
  H   H60       1.0  0.43990  0.77800  0.54517  1.0000
  C   C121      1.0  0.51930  0.66220  0.55590  1.0000
  C   C122      1.0  0.33780  0.85710  0.88923  1.0000
  C   C123      1.0  0.14290  0.48070  0.22257  1.0000
  C   C124      1.0  0.48070  0.33780  0.05590  1.0000
  C   C125      1.0  0.66220  0.14290  0.38923  1.0000
  C   C126      1.0  0.85710  0.51930  0.72257  1.0000
  C   C127      1.0  0.66220  0.51930  0.77743  1.0000
  C   C128      1.0  0.85710  0.33780  0.44410  1.0000
  C   C129      1.0  0.48070  0.14290  0.11077  1.0000
  C   C130      1.0  0.33780  0.48070  0.27743  1.0000
  C   C131      1.0  0.14290  0.66220  0.94410  1.0000
  C   C132      1.0  0.51930  0.85710  0.61077  1.0000
  H   H61       1.0  0.54470  0.71860  0.54750  1.0000
  H   H62       1.0  0.28140  0.82610  0.88083  1.0000
  H   H63       1.0  0.17390  0.45530  0.21417  1.0000
  H   H64       1.0  0.45530  0.28140  0.04750  1.0000
  H   H65       1.0  0.71860  0.17390  0.38083  1.0000
  H   H66       1.0  0.82610  0.54470  0.71417  1.0000
  H   H67       1.0  0.71860  0.54470  0.78583  1.0000
  H   H68       1.0  0.82610  0.28140  0.45250  1.0000
  H   H69       1.0  0.45530  0.17390  0.11917  1.0000
  H   H70       1.0  0.28140  0.45530  0.28583  1.0000
  H   H71       1.0  0.17390  0.71860  0.95250  1.0000
  H   H72       1.0  0.54470  0.82610  0.61917  1.0000
  O   O25       1.0  0.31470  0.43230  0.67200  1.0000
  O   O26       1.0  0.56770  0.88240  0.00533  1.0000
  O   O27       1.0  0.11760  0.68530  0.33867  1.0000
  O   O28       1.0  0.68530  0.56770  0.17200  1.0000
  O   O29       1.0  0.43230  0.11760  0.50533  1.0000
  O   O30       1.0  0.88240  0.31470  0.83867  1.0000
  O   O31       1.0  0.43230  0.31470  0.66133  1.0000
  O   O32       1.0  0.88240  0.56770  0.32800  1.0000
  O   O33       1.0  0.68530  0.11760  0.99467  1.0000
  O   O34       1.0  0.56770  0.68530  0.16133  1.0000
  O   O35       1.0  0.11760  0.43230  0.82800  1.0000
  O   O36       1.0  0.31470  0.88240  0.49467  1.0000
  C   C133      1.0  0.35360  0.50830  0.66380  1.0000
  C   C134      1.0  0.49170  0.84530  0.99713  1.0000
  C   C135      1.0  0.15470  0.64640  0.33047  1.0000
  C   C136      1.0  0.64640  0.49170  0.16380  1.0000
  C   C137      1.0  0.50830  0.15470  0.49713  1.0000
  C   C138      1.0  0.84530  0.35360  0.83047  1.0000
  C   C139      1.0  0.50830  0.35360  0.66953  1.0000
  C   C140      1.0  0.84530  0.49170  0.33620  1.0000
  C   C141      1.0  0.64640  0.15470  0.00287  1.0000
  C   C142      1.0  0.49170  0.64640  0.16953  1.0000
  C   C143      1.0  0.15470  0.50830  0.83620  1.0000
  C   C144      1.0  0.35360  0.84530  0.50287  1.0000
  C   C145      1.0  0.44420  0.49780  0.58210  1.0000
  C   C146      1.0  0.50220  0.94640  0.91543  1.0000
  C   C147      1.0  0.05360  0.55580  0.24877  1.0000
  C   C148      1.0  0.55580  0.50220  0.08210  1.0000
  C   C149      1.0  0.49780  0.05360  0.41543  1.0000
  C   C150      1.0  0.94640  0.44420  0.74877  1.0000
  C   C151      1.0  0.49780  0.44420  0.75123  1.0000
  C   C152      1.0  0.94640  0.50220  0.41790  1.0000
  C   C153      1.0  0.55580  0.05360  0.08457  1.0000
  C   C154      1.0  0.50220  0.55580  0.25123  1.0000
  C   C155      1.0  0.05360  0.49780  0.91790  1.0000
  C   C156      1.0  0.44420  0.94640  0.58457  1.0000
  H   H73       1.0  0.42030  0.44150  0.59050  1.0000
  H   H74       1.0  0.55850  0.97880  0.92383  1.0000
  H   H75       1.0  0.02120  0.57970  0.25717  1.0000
  H   H76       1.0  0.57970  0.55850  0.09050  1.0000
  H   H77       1.0  0.44150  0.02120  0.42383  1.0000
  H   H78       1.0  0.97880  0.42030  0.75717  1.0000
  H   H79       1.0  0.44150  0.42030  0.74283  1.0000
  H   H80       1.0  0.97880  0.55850  0.40950  1.0000
  H   H81       1.0  0.57970  0.02120  0.07617  1.0000
  H   H82       1.0  0.55850  0.57970  0.24283  1.0000
  H   H83       1.0  0.02120  0.44150  0.90950  1.0000
  H   H84       1.0  0.42030  0.97880  0.57617  1.0000
  O   O37       1.0  0.33670  0.55520  0.69260  1.0000
  O   O38       1.0  0.44480  0.78150  0.02593  1.0000
  O   O39       1.0  0.21850  0.66330  0.35927  1.0000
  O   O40       1.0  0.66330  0.44480  0.19260  1.0000
  O   O41       1.0  0.55520  0.21850  0.52593  1.0000
  O   O42       1.0  0.78150  0.33670  0.85927  1.0000
  O   O43       1.0  0.55520  0.33670  0.64073  1.0000
  O   O44       1.0  0.78150  0.44480  0.30740  1.0000
  O   O45       1.0  0.66330  0.21850  0.97407  1.0000
  O   O46       1.0  0.44480  0.66330  0.14073  1.0000
  O   O47       1.0  0.21850  0.55520  0.80740  1.0000
  O   O48       1.0  0.33670  0.78150  0.47407  1.0000
