data_image0
_chemical_formula_structural       ZnS2CHCHC2HCHC2HCHCHCHN2O9H2OH2
_chemical_formula_sum              "Zn1 S2 C10 H12 N2 O10"
_cell_length_a       7.3067
_cell_length_b       11.1954
_cell_length_c       11.4438
_cell_angle_alpha    72.426
_cell_angle_beta     73.791
_cell_angle_gamma    83.348

_space_group_name_H-M_alt    "P 1"
_space_group_IT_number       1

loop_
  _space_group_symop_operation_xyz
  'x, y, z'

loop_
  _atom_site_type_symbol
  _atom_site_label
  _atom_site_symmetry_multiplicity
  _atom_site_fract_x
  _atom_site_fract_y
  _atom_site_fract_z
  _atom_site_occupancy
  Zn  Zn1       1.0  0.34118  0.40119  0.77517  1.0000
  S   S1        1.0  0.93016  0.41634  0.99919  1.0000
  S   S2        1.0  0.75096  0.40622  0.53763  1.0000
  C   C1        1.0  0.39060  0.61660  0.86540  1.0000
  H   H1        1.0  0.41070  0.55180  0.93450  1.0000
  C   C2        1.0  0.38480  0.73780  0.87170  1.0000
  H   H2        1.0  0.40350  0.75410  0.94250  1.0000
  C   C3        1.0  0.35030  0.83650  0.76980  1.0000
  C   C4        1.0  0.33600  0.80580  0.66490  1.0000
  H   H3        1.0  0.31890  0.86850  0.59350  1.0000
  C   C5        1.0  0.34710  0.68150  0.66630  1.0000
  H   H4        1.0  0.33890  0.66280  0.59420  1.0000
  C   C6        1.0  0.33240  0.96860  0.77350  1.0000
  C   C7        1.0  0.32040  0.00060  0.88370  1.0000
  H   H5        1.0  0.31500  0.93790  0.95940  1.0000
  C   C8        1.0  0.31630  0.12440  0.88170  1.0000
  H   H6        1.0  0.31200  0.14340  0.95620  1.0000
  C   C9        1.0  0.32280  0.18790  0.67100  1.0000
  H   H7        1.0  0.31850  0.25230  0.59800  1.0000
  C   C10       1.0  0.33310  0.06700  0.66530  1.0000
  H   H8        1.0  0.34060  0.05080  0.58900  1.0000
  N   N1        1.0  0.36910  0.58690  0.76570  1.0000
  N   N2        1.0  0.31850  0.21850  0.77590  1.0000
  O   O1        1.0  0.13710  0.38130  0.95920  1.0000
  O   O2        1.0  0.86480  0.49040  0.88930  1.0000
  O   O3        1.0  0.90320  0.49120  0.08840  1.0000
  O   O4        1.0  0.82080  0.30190  0.06190  1.0000
  O   O5        1.0  0.54400  0.43630  0.58230  1.0000
  O   O6        1.0  0.82980  0.34190  0.64620  1.0000
  O   O7        1.0  0.77780  0.32510  0.45400  1.0000
  O   O8        1.0  0.84980  0.52290  0.46660  1.0000
  O   O9        1.0  0.56480  0.33290  0.86540  1.0000
  H   H9        1.0  0.66900  0.35200  0.79500  1.0000
  H   H10       1.0  0.57500  0.37300  0.90200  1.0000
  O   O10       1.0  0.11100  0.46260  0.68070  1.0000
  H   H11       1.0  0.03000  0.42800  0.64800  1.0000
  H   H12       1.0  0.04200  0.49500  0.72800  1.0000
