data_image0
_chemical_formula_structural       Cd12Na8O72C16H4C12H4C16H4C12H4C8H4C20H4C4H4C12H4C4H4C4O4H8O4H8O4H8
_chemical_formula_sum              "Cd12 Na8 O84 C108 H60"
_cell_length_a       14.644
_cell_length_b       13.655
_cell_length_c       17.683
_cell_angle_alpha    90
_cell_angle_beta     111.63
_cell_angle_gamma    90

_space_group_name_H-M_alt    "P 1"
_space_group_IT_number       1

loop_
  _space_group_symop_operation_xyz
  'x, y, z'

loop_
  _atom_site_type_symbol
  _atom_site_label
  _atom_site_symmetry_multiplicity
  _atom_site_fract_x
  _atom_site_fract_y
  _atom_site_fract_z
  _atom_site_occupancy
  Cd  Cd1       1.0  0.99423  0.12543  0.44565  1.0000
  Cd  Cd2       1.0  0.99423  0.87457  0.94565  1.0000
  Cd  Cd3       1.0  0.49423  0.62543  0.44565  1.0000
  Cd  Cd4       1.0  0.49423  0.37457  0.94565  1.0000
  Cd  Cd5       1.0  0.78317  0.47475  0.07541  1.0000
  Cd  Cd6       1.0  0.78317  0.52525  0.57541  1.0000
  Cd  Cd7       1.0  0.28317  0.97475  0.07541  1.0000
  Cd  Cd8       1.0  0.28317  0.02525  0.57541  1.0000
  Cd  Cd9       1.0  0.27874  0.74102  0.57629  1.0000
  Cd  Cd10      1.0  0.27874  0.25898  0.07629  1.0000
  Cd  Cd11      1.0  0.77874  0.24102  0.57629  1.0000
  Cd  Cd12      1.0  0.77874  0.75898  0.07629  1.0000
  Na  Na1       1.0  0.03860  0.16760  0.64370  1.0000
  Na  Na2       1.0  0.03860  0.83240  0.14370  1.0000
  Na  Na3       1.0  0.53860  0.66760  0.64370  1.0000
  Na  Na4       1.0  0.53860  0.33240  0.14370  1.0000
  Na  Na5       1.0  0.65550  0.44980  0.84880  1.0000
  Na  Na6       1.0  0.65550  0.55020  0.34880  1.0000
  Na  Na7       1.0  0.15550  0.94980  0.84880  1.0000
  Na  Na8       1.0  0.15550  0.05020  0.34880  1.0000
  O   O1        1.0  0.67430  0.61450  0.06790  1.0000
  O   O2        1.0  0.67430  0.38550  0.56790  1.0000
  O   O3        1.0  0.17430  0.11450  0.06790  1.0000
  O   O4        1.0  0.17430  0.88550  0.56790  1.0000
  O   O5        1.0  0.62770  0.51400  0.96350  1.0000
  O   O6        1.0  0.62770  0.48600  0.46350  1.0000
  O   O7        1.0  0.12770  0.01400  0.96350  1.0000
  O   O8        1.0  0.12770  0.98600  0.46350  1.0000
  O   O9        1.0  0.10970  0.24690  0.44960  1.0000
  O   O10       1.0  0.10970  0.75310  0.94960  1.0000
  O   O11       1.0  0.60970  0.74690  0.44960  1.0000
  O   O12       1.0  0.60970  0.25310  0.94960  1.0000
  O   O13       1.0  0.14750  0.16570  0.56490  1.0000
  O   O14       1.0  0.14750  0.83430  0.06490  1.0000
  O   O15       1.0  0.64750  0.66570  0.56490  1.0000
  O   O16       1.0  0.64750  0.33430  0.06490  1.0000
  O   O17       1.0  0.41510  0.86160  0.07790  1.0000
  O   O18       1.0  0.41510  0.13840  0.57790  1.0000
  O   O19       1.0  0.91510  0.36160  0.07790  1.0000
  O   O20       1.0  0.91510  0.63840  0.57790  1.0000
  O   O21       1.0  0.49030  0.41840  0.81450  1.0000
  O   O22       1.0  0.49030  0.58160  0.31450  1.0000
  O   O23       1.0  0.99030  0.91840  0.81450  1.0000
  O   O24       1.0  0.99030  0.08160  0.31450  1.0000
  O   O25       1.0  0.37620  0.31630  0.82160  1.0000
  O   O26       1.0  0.37620  0.68370  0.32160  1.0000
  O   O27       1.0  0.87620  0.81630  0.82160  1.0000
  O   O28       1.0  0.87620  0.18370  0.32160  1.0000
  O   O29       1.0  0.41070  0.67880  0.69530  1.0000
  O   O30       1.0  0.41070  0.32120  0.19530  1.0000
  O   O31       1.0  0.91070  0.17880  0.69530  1.0000
  O   O32       1.0  0.91070  0.82120  0.19530  1.0000
  O   O33       1.0  0.93400  0.52760  0.20410  1.0000
  O   O34       1.0  0.93400  0.47240  0.70410  1.0000
  O   O35       1.0  0.43400  0.02760  0.20410  1.0000
  O   O36       1.0  0.43400  0.97240  0.70410  1.0000
  O   O37       1.0  0.16650  0.60580  0.58440  1.0000
  O   O38       1.0  0.16650  0.39420  0.08440  1.0000
  O   O39       1.0  0.66650  0.10580  0.58440  1.0000
  O   O40       1.0  0.66650  0.89420  0.08440  1.0000
  O   O41       1.0  0.48010  0.54060  0.55280  1.0000
  O   O42       1.0  0.48010  0.45940  0.05280  1.0000
  O   O43       1.0  0.98010  0.04060  0.55280  1.0000
  O   O44       1.0  0.98010  0.95940  0.05280  1.0000
  O   O45       1.0  0.80720  0.44470  0.20870  1.0000
  O   O46       1.0  0.80720  0.55530  0.70870  1.0000
  O   O47       1.0  0.30720  0.94470  0.20870  1.0000
  O   O48       1.0  0.30720  0.05530  0.70870  1.0000
  O   O49       1.0  0.35620  0.51260  0.43900  1.0000
  O   O50       1.0  0.35620  0.48740  0.93900  1.0000
  O   O51       1.0  0.85620  0.01260  0.43900  1.0000
  O   O52       1.0  0.85620  0.98740  0.93900  1.0000
  O   O53       1.0  0.29580  0.89760  0.96220  1.0000
  O   O54       1.0  0.29580  0.10240  0.46220  1.0000
  O   O55       1.0  0.79580  0.39760  0.96220  1.0000
  O   O56       1.0  0.79580  0.60240  0.46220  1.0000
  O   O57       1.0  0.91460  0.24540  0.50590  1.0000
  O   O58       1.0  0.91460  0.75460  0.00590  1.0000
  O   O59       1.0  0.41460  0.74540  0.50590  1.0000
  O   O60       1.0  0.41460  0.25460  0.00590  1.0000
  O   O61       1.0  0.18150  0.65270  0.47070  1.0000
  O   O62       1.0  0.18150  0.34730  0.97070  1.0000
  O   O63       1.0  0.68150  0.15270  0.47070  1.0000
  O   O64       1.0  0.68150  0.84730  0.97070  1.0000
  O   O65       1.0  0.84750  0.37290  0.53970  1.0000
  O   O66       1.0  0.84750  0.62710  0.03970  1.0000
  O   O67       1.0  0.34750  0.87290  0.53970  1.0000
  O   O68       1.0  0.34750  0.12710  0.03970  1.0000
  O   O69       1.0  0.29310  0.77050  0.70560  1.0000
  O   O70       1.0  0.29310  0.22950  0.20560  1.0000
  O   O71       1.0  0.79310  0.27050  0.70560  1.0000
  O   O72       1.0  0.79310  0.72950  0.20560  1.0000
  C   C1        1.0  0.06330  0.52920  0.46160  1.0000
  C   C2        1.0  0.06330  0.47080  0.96160  1.0000
  C   C3        1.0  0.56330  0.02920  0.46160  1.0000
  C   C4        1.0  0.56330  0.97080  0.96160  1.0000
  C   C5        1.0  0.37390  0.85100  0.00250  1.0000
  C   C6        1.0  0.37390  0.14900  0.50250  1.0000
  C   C7        1.0  0.87390  0.35100  0.00250  1.0000
  C   C8        1.0  0.87390  0.64900  0.50250  1.0000
  C   C9        1.0  0.36400  0.36940  0.68910  1.0000
  C   C10       1.0  0.36400  0.63060  0.18910  1.0000
  C   C11       1.0  0.86400  0.86940  0.68910  1.0000
  C   C12       1.0  0.86400  0.13060  0.18910  1.0000
  C   C13       1.0  0.27510  0.37410  0.52030  1.0000
  C   C14       1.0  0.27510  0.62590  0.02030  1.0000
  C   C15       1.0  0.77510  0.87410  0.52030  1.0000
  C   C16       1.0  0.77510  0.12590  0.02030  1.0000
  H   H1        1.0  0.24320  0.37780  0.46420  1.0000
  H   H2        1.0  0.24320  0.62220  0.96420  1.0000
  H   H3        1.0  0.74320  0.87780  0.46420  1.0000
  H   H4        1.0  0.74320  0.12220  0.96420  1.0000
  C   C17       1.0  0.41340  0.36780  0.78050  1.0000
  C   C18       1.0  0.41340  0.63220  0.28050  1.0000
  C   C19       1.0  0.91340  0.86780  0.78050  1.0000
  C   C20       1.0  0.91340  0.13220  0.28050  1.0000
  C   C21       1.0  0.37000  0.72230  0.73700  1.0000
  C   C22       1.0  0.37000  0.27770  0.23700  1.0000
  C   C23       1.0  0.87000  0.22230  0.73700  1.0000
  C   C24       1.0  0.87000  0.77770  0.23700  1.0000
  C   C25       1.0  0.39970  0.43320  0.64430  1.0000
  C   C26       1.0  0.39970  0.56680  0.14430  1.0000
  C   C27       1.0  0.89970  0.93320  0.64430  1.0000
  C   C28       1.0  0.89970  0.06680  0.14430  1.0000
  H   H5        1.0  0.45280  0.47380  0.67120  1.0000
  H   H6        1.0  0.45280  0.52620  0.17120  1.0000
  H   H7        1.0  0.95280  0.97380  0.67120  1.0000
  H   H8        1.0  0.95280  0.02620  0.17120  1.0000
  C   C29       1.0  0.94150  0.47490  0.33400  1.0000
  C   C30       1.0  0.94150  0.52510  0.83400  1.0000
  C   C31       1.0  0.44150  0.97490  0.33400  1.0000
  C   C32       1.0  0.44150  0.02510  0.83400  1.0000
  C   C33       1.0  0.94840  0.40360  0.46140  1.0000
  C   C34       1.0  0.94840  0.59640  0.96140  1.0000
  C   C35       1.0  0.44840  0.90360  0.46140  1.0000
  C   C36       1.0  0.44840  0.09640  0.96140  1.0000
  C   C37       1.0  0.89220  0.48330  0.24270  1.0000
  C   C38       1.0  0.89220  0.51670  0.74270  1.0000
  C   C39       1.0  0.39220  0.98330  0.24270  1.0000
  C   C40       1.0  0.39220  0.01670  0.74270  1.0000
  C   C41       1.0  0.49330  0.72050  0.99780  1.0000
  C   C42       1.0  0.49330  0.27950  0.49780  1.0000
  C   C43       1.0  0.99330  0.22050  0.99780  1.0000
  C   C44       1.0  0.99330  0.77950  0.49780  1.0000
  H   H9        1.0  0.52050  0.72110  0.05430  1.0000
  H   H10       1.0  0.52050  0.27890  0.55430  1.0000
  H   H11       1.0  0.02050  0.22110  0.05430  1.0000
  H   H12       1.0  0.02050  0.77890  0.55430  1.0000
  C   C45       1.0  0.41240  0.71860  0.82860  1.0000
  C   C46       1.0  0.41240  0.28140  0.32860  1.0000
  C   C47       1.0  0.91240  0.21860  0.82860  1.0000
  C   C48       1.0  0.91240  0.78140  0.32860  1.0000
  C   C49       1.0  0.61590  0.59190  0.99770  1.0000
  C   C50       1.0  0.61590  0.40810  0.49770  1.0000
  C   C51       1.0  0.11590  0.09190  0.99770  1.0000
  C   C52       1.0  0.11590  0.90810  0.49770  1.0000
  C   C53       1.0  0.49160  0.65490  0.86990  1.0000
  C   C54       1.0  0.49160  0.34510  0.36990  1.0000
  C   C55       1.0  0.99160  0.15490  0.86990  1.0000
  C   C56       1.0  0.99160  0.84510  0.36990  1.0000
  H   H13       1.0  0.51600  0.61260  0.84070  1.0000
  H   H14       1.0  0.51600  0.38740  0.34070  1.0000
  H   H15       1.0  0.01600  0.11260  0.84070  1.0000
  H   H16       1.0  0.01600  0.88740  0.34070  1.0000
  C   C57       1.0  0.41610  0.78150  0.95770  1.0000
  C   C58       1.0  0.41610  0.21850  0.45770  1.0000
  C   C59       1.0  0.91610  0.28150  0.95770  1.0000
  C   C60       1.0  0.91610  0.71850  0.45770  1.0000
  C   C61       1.0  0.28750  0.30550  0.64960  1.0000
  C   C62       1.0  0.28750  0.69450  0.14960  1.0000
  C   C63       1.0  0.78750  0.80550  0.64960  1.0000
  C   C64       1.0  0.78750  0.19450  0.14960  1.0000
  H   H17       1.0  0.26610  0.26130  0.67950  1.0000
  H   H18       1.0  0.26610  0.73870  0.17950  1.0000
  H   H19       1.0  0.76610  0.76130  0.67950  1.0000
  H   H20       1.0  0.76610  0.23870  0.17950  1.0000
  C   C65       1.0  0.35650  0.43610  0.56030  1.0000
  C   C66       1.0  0.35650  0.56390  0.06030  1.0000
  C   C67       1.0  0.85650  0.93610  0.56030  1.0000
  C   C68       1.0  0.85650  0.06390  0.06030  1.0000
  C   C69       1.0  0.53210  0.65610  0.95370  1.0000
  C   C70       1.0  0.53210  0.34390  0.45370  1.0000
  C   C71       1.0  0.03210  0.15610  0.95370  1.0000
  C   C72       1.0  0.03210  0.84390  0.45370  1.0000
  C   C73       1.0  0.24270  0.30790  0.56470  1.0000
  C   C74       1.0  0.24270  0.69210  0.06470  1.0000
  C   C75       1.0  0.74270  0.80790  0.56470  1.0000
  C   C76       1.0  0.74270  0.19210  0.06470  1.0000
  C   C77       1.0  0.39720  0.50070  0.51290  1.0000
  C   C78       1.0  0.39720  0.49930  0.01290  1.0000
  C   C79       1.0  0.89720  0.00070  0.51290  1.0000
  C   C80       1.0  0.89720  0.99930  0.01290  1.0000
  C   C81       1.0  0.37640  0.77960  0.87270  1.0000
  C   C82       1.0  0.37640  0.22040  0.37270  1.0000
  C   C83       1.0  0.87640  0.27960  0.87270  1.0000
  C   C84       1.0  0.87640  0.72040  0.37270  1.0000
  H   H21       1.0  0.32420  0.82090  0.84520  1.0000
  H   H22       1.0  0.32420  0.17910  0.34520  1.0000
  H   H23       1.0  0.82420  0.32090  0.84520  1.0000
  H   H24       1.0  0.82420  0.67910  0.34520  1.0000
  C   C85       1.0  0.02500  0.46260  0.50370  1.0000
  C   C86       1.0  0.02500  0.53740  0.00370  1.0000
  C   C87       1.0  0.52500  0.96260  0.50370  1.0000
  C   C88       1.0  0.52500  0.03740  0.00370  1.0000
  H   H25       1.0  0.05220  0.45930  0.56020  1.0000
  H   H26       1.0  0.05220  0.54070  0.06020  1.0000
  H   H27       1.0  0.55220  0.95930  0.56020  1.0000
  H   H28       1.0  0.55220  0.04070  0.06020  1.0000
  C   C89       1.0  0.16240  0.23630  0.52350  1.0000
  C   C90       1.0  0.16240  0.76370  0.02350  1.0000
  C   C91       1.0  0.66240  0.73630  0.52350  1.0000
  C   C92       1.0  0.66240  0.26370  0.02350  1.0000
  C   C93       1.0  0.90130  0.33410  0.50470  1.0000
  C   C94       1.0  0.90130  0.66590  0.00470  1.0000
  C   C95       1.0  0.40130  0.83410  0.50470  1.0000
  C   C96       1.0  0.40130  0.16590  0.00470  1.0000
  C   C97       1.0  0.90610  0.40830  0.37680  1.0000
  C   C98       1.0  0.90610  0.59170  0.87680  1.0000
  C   C99       1.0  0.40610  0.90830  0.37680  1.0000
  C   C100      1.0  0.40610  0.09170  0.87680  1.0000
  H   H29       1.0  0.85410  0.36700  0.34870  1.0000
  H   H30       1.0  0.85410  0.63300  0.84870  1.0000
  H   H31       1.0  0.35410  0.86700  0.34870  1.0000
  H   H32       1.0  0.35410  0.13300  0.84870  1.0000
  C   C101      1.0  0.02120  0.53450  0.37720  1.0000
  C   C102      1.0  0.02120  0.46550  0.87720  1.0000
  C   C103      1.0  0.52120  0.03450  0.37720  1.0000
  C   C104      1.0  0.52120  0.96550  0.87720  1.0000
  H   H33       1.0  0.04620  0.57820  0.34940  1.0000
  H   H34       1.0  0.04620  0.42180  0.84940  1.0000
  H   H35       1.0  0.54620  0.07820  0.34940  1.0000
  H   H36       1.0  0.54620  0.92180  0.84940  1.0000
  C   C105      1.0  0.14120  0.59940  0.50900  1.0000
  C   C106      1.0  0.14120  0.40060  0.00900  1.0000
  C   C107      1.0  0.64120  0.09940  0.50900  1.0000
  C   C108      1.0  0.64120  0.90060  0.00900  1.0000
  O   O73       1.0  0.15580  0.09960  0.76830  1.0000
  O   O74       1.0  0.15580  0.90040  0.26830  1.0000
  O   O75       1.0  0.65580  0.59960  0.76830  1.0000
  O   O76       1.0  0.65580  0.40040  0.26830  1.0000
  H   H37       1.0  0.21060  0.08340  0.77060  1.0000
  H   H38       1.0  0.21060  0.91660  0.27060  1.0000
  H   H39       1.0  0.71060  0.58340  0.77060  1.0000
  H   H40       1.0  0.71060  0.41660  0.27060  1.0000
  H   H41       1.0  0.15900  0.15460  0.78780  1.0000
  H   H42       1.0  0.15900  0.84540  0.28780  1.0000
  H   H43       1.0  0.65900  0.65460  0.78780  1.0000
  H   H44       1.0  0.65900  0.34540  0.28780  1.0000
  O   O77       1.0  0.06380  0.33200  0.68030  1.0000
  O   O78       1.0  0.06380  0.66800  0.18030  1.0000
  O   O79       1.0  0.56380  0.83200  0.68030  1.0000
  O   O80       1.0  0.56380  0.16800  0.18030  1.0000
  H   H45       1.0  0.11100  0.32380  0.72290  1.0000
  H   H46       1.0  0.11100  0.67620  0.22290  1.0000
  H   H47       1.0  0.61100  0.82380  0.72290  1.0000
  H   H48       1.0  0.61100  0.17620  0.22290  1.0000
  H   H49       1.0  0.03700  0.38490  0.67950  1.0000
  H   H50       1.0  0.03700  0.61510  0.17950  1.0000
  H   H51       1.0  0.53700  0.88490  0.67950  1.0000
  H   H52       1.0  0.53700  0.11510  0.17950  1.0000
  O   O81       1.0  0.64930  0.39290  0.72500  1.0000
  O   O82       1.0  0.64930  0.60710  0.22500  1.0000
  O   O83       1.0  0.14930  0.89290  0.72500  1.0000
  O   O84       1.0  0.14930  0.10710  0.22500  1.0000
  H   H53       1.0  0.62060  0.41310  0.67860  1.0000
  H   H54       1.0  0.62060  0.58690  0.17860  1.0000
  H   H55       1.0  0.12060  0.91310  0.67860  1.0000
  H   H56       1.0  0.12060  0.08690  0.17860  1.0000
  H   H57       1.0  0.67300  0.33840  0.72550  1.0000
  H   H58       1.0  0.67300  0.66160  0.22550  1.0000
  H   H59       1.0  0.17300  0.83840  0.72550  1.0000
  H   H60       1.0  0.17300  0.16160  0.22550  1.0000
