data_image0
_chemical_formula_structural       Co16O96C16H16C32O32C80H16C32
_chemical_formula_sum              "Co16 O128 C160 H32"
_cell_length_a       16.272
_cell_length_b       16.272
_cell_length_c       29.936
_cell_angle_alpha    90
_cell_angle_beta     90
_cell_angle_gamma    90

_space_group_name_H-M_alt    "P 1"
_space_group_IT_number       1

loop_
  _space_group_symop_operation_xyz
  'x, y, z'

loop_
  _atom_site_type_symbol
  _atom_site_label
  _atom_site_symmetry_multiplicity
  _atom_site_fract_x
  _atom_site_fract_y
  _atom_site_fract_z
  _atom_site_occupancy
  Co  Co1       1.0  0.72069  0.52931  0.12500  1.0000
  Co  Co2       1.0  0.27931  0.97069  0.12500  1.0000
  Co  Co3       1.0  0.72069  0.47069  0.37500  1.0000
  Co  Co4       1.0  0.77931  0.52931  0.87500  1.0000
  Co  Co5       1.0  0.22069  0.02931  0.62500  1.0000
  Co  Co6       1.0  0.77931  0.47069  0.62500  1.0000
  Co  Co7       1.0  0.22069  0.97069  0.87500  1.0000
  Co  Co8       1.0  0.27931  0.02931  0.37500  1.0000
  Co  Co9       1.0  0.27931  0.47069  0.87500  1.0000
  Co  Co10      1.0  0.72069  0.02931  0.87500  1.0000
  Co  Co11      1.0  0.27931  0.52931  0.62500  1.0000
  Co  Co12      1.0  0.22069  0.47069  0.12500  1.0000
  Co  Co13      1.0  0.77931  0.97069  0.37500  1.0000
  Co  Co14      1.0  0.22069  0.52931  0.37500  1.0000
  Co  Co15      1.0  0.77931  0.02931  0.12500  1.0000
  Co  Co16      1.0  0.72069  0.97069  0.62500  1.0000
  O   O1        1.0  0.66026  0.19584  0.10176  1.0000
  O   O2        1.0  0.33974  0.30416  0.10176  1.0000
  O   O3        1.0  0.66026  0.80416  0.39824  1.0000
  O   O4        1.0  0.83974  0.19584  0.89824  1.0000
  O   O5        1.0  0.05416  0.58974  0.14824  1.0000
  O   O6        1.0  0.94584  0.91026  0.14824  1.0000
  O   O7        1.0  0.44584  0.58974  0.85176  1.0000
  O   O8        1.0  0.05416  0.41026  0.35176  1.0000
  O   O9        1.0  0.16026  0.69584  0.60176  1.0000
  O   O10       1.0  0.83974  0.80416  0.60176  1.0000
  O   O11       1.0  0.16026  0.30416  0.89824  1.0000
  O   O12       1.0  0.33974  0.69584  0.39824  1.0000
  O   O13       1.0  0.55416  0.08974  0.64824  1.0000
  O   O14       1.0  0.44584  0.41026  0.64824  1.0000
  O   O15       1.0  0.94584  0.08974  0.35176  1.0000
  O   O16       1.0  0.55416  0.91026  0.85176  1.0000
  O   O17       1.0  0.33974  0.80416  0.89824  1.0000
  O   O18       1.0  0.66026  0.69584  0.89824  1.0000
  O   O19       1.0  0.33974  0.19584  0.60176  1.0000
  O   O20       1.0  0.16026  0.80416  0.10176  1.0000
  O   O21       1.0  0.94584  0.41026  0.85176  1.0000
  O   O22       1.0  0.05416  0.08974  0.85176  1.0000
  O   O23       1.0  0.55416  0.41026  0.14824  1.0000
  O   O24       1.0  0.94584  0.58974  0.64824  1.0000
  O   O25       1.0  0.83974  0.30416  0.39824  1.0000
  O   O26       1.0  0.16026  0.19584  0.39824  1.0000
  O   O27       1.0  0.83974  0.69584  0.10176  1.0000
  O   O28       1.0  0.66026  0.30416  0.60176  1.0000
  O   O29       1.0  0.44584  0.91026  0.35176  1.0000
  O   O30       1.0  0.55416  0.58974  0.35176  1.0000
  O   O31       1.0  0.05416  0.91026  0.64824  1.0000
  O   O32       1.0  0.44584  0.08974  0.14824  1.0000
  O   O33       1.0  0.75592  0.34514  0.11925  1.0000
  O   O34       1.0  0.24408  0.15486  0.11925  1.0000
  O   O35       1.0  0.75592  0.65486  0.38075  1.0000
  O   O36       1.0  0.74408  0.34514  0.88075  1.0000
  O   O37       1.0  0.90486  0.49408  0.13075  1.0000
  O   O38       1.0  0.09514  0.00592  0.13075  1.0000
  O   O39       1.0  0.59514  0.49408  0.86925  1.0000
  O   O40       1.0  0.90486  0.50592  0.36925  1.0000
  O   O41       1.0  0.25592  0.84514  0.61925  1.0000
  O   O42       1.0  0.74408  0.65486  0.61925  1.0000
  O   O43       1.0  0.25592  0.15486  0.88075  1.0000
  O   O44       1.0  0.24408  0.84514  0.38075  1.0000
  O   O45       1.0  0.40486  0.99408  0.63075  1.0000
  O   O46       1.0  0.59514  0.50592  0.63075  1.0000
  O   O47       1.0  0.09514  0.99408  0.36925  1.0000
  O   O48       1.0  0.40486  0.00592  0.86925  1.0000
  O   O49       1.0  0.24408  0.65486  0.88075  1.0000
  O   O50       1.0  0.75592  0.84514  0.88075  1.0000
  O   O51       1.0  0.24408  0.34514  0.61925  1.0000
  O   O52       1.0  0.25592  0.65486  0.11925  1.0000
  O   O53       1.0  0.09514  0.50592  0.86925  1.0000
  O   O54       1.0  0.90486  0.99408  0.86925  1.0000
  O   O55       1.0  0.40486  0.50592  0.13075  1.0000
  O   O56       1.0  0.09514  0.49408  0.63075  1.0000
  O   O57       1.0  0.74408  0.15486  0.38075  1.0000
  O   O58       1.0  0.25592  0.34514  0.38075  1.0000
  O   O59       1.0  0.74408  0.84514  0.11925  1.0000
  O   O60       1.0  0.75592  0.15486  0.61925  1.0000
  O   O61       1.0  0.59514  0.00592  0.36925  1.0000
  O   O62       1.0  0.40486  0.49408  0.36925  1.0000
  O   O63       1.0  0.90486  0.00592  0.63075  1.0000
  O   O64       1.0  0.59514  0.99408  0.13075  1.0000
  O   O65       1.0  0.72390  0.45134  0.07592  1.0000
  O   O66       1.0  0.27610  0.04866  0.07592  1.0000
  O   O67       1.0  0.72390  0.54866  0.42408  1.0000
  O   O68       1.0  0.77610  0.45134  0.92408  1.0000
  O   O69       1.0  0.79866  0.52610  0.17408  1.0000
  O   O70       1.0  0.20134  0.97390  0.17408  1.0000
  O   O71       1.0  0.70134  0.52610  0.82592  1.0000
  O   O72       1.0  0.79866  0.47390  0.32592  1.0000
  O   O73       1.0  0.22390  0.95134  0.57592  1.0000
  O   O74       1.0  0.77610  0.54866  0.57592  1.0000
  O   O75       1.0  0.22390  0.04866  0.92408  1.0000
  O   O76       1.0  0.27610  0.95134  0.42408  1.0000
  O   O77       1.0  0.29866  0.02610  0.67408  1.0000
  O   O78       1.0  0.70134  0.47390  0.67408  1.0000
  O   O79       1.0  0.20134  0.02610  0.32592  1.0000
  O   O80       1.0  0.29866  0.97390  0.82592  1.0000
  O   O81       1.0  0.27610  0.54866  0.92408  1.0000
  O   O82       1.0  0.72390  0.95134  0.92408  1.0000
  O   O83       1.0  0.27610  0.45134  0.57592  1.0000
  O   O84       1.0  0.22390  0.54866  0.07592  1.0000
  O   O85       1.0  0.20134  0.47390  0.82592  1.0000
  O   O86       1.0  0.79866  0.02610  0.82592  1.0000
  O   O87       1.0  0.29866  0.47390  0.17408  1.0000
  O   O88       1.0  0.20134  0.52610  0.67408  1.0000
  O   O89       1.0  0.77610  0.04866  0.42408  1.0000
  O   O90       1.0  0.22390  0.45134  0.42408  1.0000
  O   O91       1.0  0.77610  0.95134  0.07592  1.0000
  O   O92       1.0  0.72390  0.04866  0.57592  1.0000
  O   O93       1.0  0.70134  0.97390  0.32592  1.0000
  O   O94       1.0  0.29866  0.52610  0.32592  1.0000
  O   O95       1.0  0.79866  0.97390  0.67408  1.0000
  O   O96       1.0  0.70134  0.02610  0.17408  1.0000
  C   C1        1.0  0.75000  0.19800  0.00000  1.0000
  C   C2        1.0  0.25000  0.30200  0.00000  1.0000
  C   C3        1.0  0.75000  0.80200  0.50000  1.0000
  C   C4        1.0  0.05200  0.50000  0.25000  1.0000
  C   C5        1.0  0.94800  0.00000  0.25000  1.0000
  C   C6        1.0  0.44800  0.50000  0.75000  1.0000
  C   C7        1.0  0.25000  0.69800  0.50000  1.0000
  C   C8        1.0  0.55200  0.00000  0.75000  1.0000
  C   C9        1.0  0.25000  0.80200  0.00000  1.0000
  C   C10       1.0  0.75000  0.69800  0.00000  1.0000
  C   C11       1.0  0.25000  0.19800  0.50000  1.0000
  C   C12       1.0  0.94800  0.50000  0.75000  1.0000
  C   C13       1.0  0.05200  0.00000  0.75000  1.0000
  C   C14       1.0  0.55200  0.50000  0.25000  1.0000
  C   C15       1.0  0.75000  0.30200  0.50000  1.0000
  C   C16       1.0  0.44800  0.00000  0.25000  1.0000
  H   H1        1.0  0.75000  0.14080  0.00000  1.0000
  H   H2        1.0  0.25000  0.35920  0.00000  1.0000
  H   H3        1.0  0.75000  0.85920  0.50000  1.0000
  H   H4        1.0  0.10920  0.50000  0.25000  1.0000
  H   H5        1.0  0.89080  0.00000  0.25000  1.0000
  H   H6        1.0  0.39080  0.50000  0.75000  1.0000
  H   H7        1.0  0.25000  0.64080  0.50000  1.0000
  H   H8        1.0  0.60920  0.00000  0.75000  1.0000
  H   H9        1.0  0.25000  0.85920  0.00000  1.0000
  H   H10       1.0  0.75000  0.64080  0.00000  1.0000
  H   H11       1.0  0.25000  0.14080  0.50000  1.0000
  H   H12       1.0  0.89080  0.50000  0.75000  1.0000
  H   H13       1.0  0.10920  0.00000  0.75000  1.0000
  H   H14       1.0  0.60920  0.50000  0.25000  1.0000
  H   H15       1.0  0.75000  0.35920  0.50000  1.0000
  H   H16       1.0  0.39080  0.00000  0.25000  1.0000
  C   C17       1.0  0.74363  0.32436  0.04069  1.0000
  C   C18       1.0  0.25637  0.17564  0.04069  1.0000
  C   C19       1.0  0.74363  0.67564  0.45931  1.0000
  C   C20       1.0  0.75637  0.32436  0.95931  1.0000
  C   C21       1.0  0.92564  0.50637  0.20931  1.0000
  C   C22       1.0  0.07436  0.99363  0.20931  1.0000
  C   C23       1.0  0.57436  0.50637  0.79069  1.0000
  C   C24       1.0  0.92564  0.49363  0.29069  1.0000
  C   C25       1.0  0.24363  0.82436  0.54069  1.0000
  C   C26       1.0  0.75637  0.67564  0.54069  1.0000
  C   C27       1.0  0.24363  0.17564  0.95931  1.0000
  C   C28       1.0  0.25637  0.82436  0.45931  1.0000
  C   C29       1.0  0.42564  0.00637  0.70931  1.0000
  C   C30       1.0  0.57436  0.49363  0.70931  1.0000
  C   C31       1.0  0.07436  0.00637  0.29069  1.0000
  C   C32       1.0  0.42564  0.99363  0.79069  1.0000
  C   C33       1.0  0.25637  0.67564  0.95931  1.0000
  C   C34       1.0  0.74363  0.82436  0.95931  1.0000
  C   C35       1.0  0.25637  0.32436  0.54069  1.0000
  C   C36       1.0  0.24363  0.67564  0.04069  1.0000
  C   C37       1.0  0.07436  0.49363  0.79069  1.0000
  C   C38       1.0  0.92564  0.00637  0.79069  1.0000
  C   C39       1.0  0.42564  0.49363  0.20931  1.0000
  C   C40       1.0  0.07436  0.50637  0.70931  1.0000
  C   C41       1.0  0.75637  0.17564  0.45931  1.0000
  C   C42       1.0  0.24363  0.32436  0.45931  1.0000
  C   C43       1.0  0.75637  0.82436  0.04069  1.0000
  C   C44       1.0  0.74363  0.17564  0.54069  1.0000
  C   C45       1.0  0.57436  0.99363  0.29069  1.0000
  C   C46       1.0  0.42564  0.50637  0.29069  1.0000
  C   C47       1.0  0.92564  0.99363  0.70931  1.0000
  C   C48       1.0  0.57436  0.00637  0.20931  1.0000
  O   O97       1.0  0.77859  0.13025  0.08884  1.0000
  O   O98       1.0  0.22141  0.36975  0.08884  1.0000
  O   O99       1.0  0.77859  0.86975  0.41116  1.0000
  O   O100      1.0  0.72141  0.13025  0.91116  1.0000
  O   O101      1.0  0.11975  0.47141  0.16116  1.0000
  O   O102      1.0  0.88025  0.02859  0.16116  1.0000
  O   O103      1.0  0.38025  0.47141  0.83884  1.0000
  O   O104      1.0  0.11975  0.52859  0.33884  1.0000
  O   O105      1.0  0.27859  0.63025  0.58884  1.0000
  O   O106      1.0  0.72141  0.86975  0.58884  1.0000
  O   O107      1.0  0.27859  0.36975  0.91116  1.0000
  O   O108      1.0  0.22141  0.63025  0.41116  1.0000
  O   O109      1.0  0.61975  0.97141  0.66116  1.0000
  O   O110      1.0  0.38025  0.52859  0.66116  1.0000
  O   O111      1.0  0.88025  0.97141  0.33884  1.0000
  O   O112      1.0  0.61975  0.02859  0.83884  1.0000
  O   O113      1.0  0.22141  0.86975  0.91116  1.0000
  O   O114      1.0  0.77859  0.63025  0.91116  1.0000
  O   O115      1.0  0.22141  0.13025  0.58884  1.0000
  O   O116      1.0  0.27859  0.86975  0.08884  1.0000
  O   O117      1.0  0.88025  0.52859  0.83884  1.0000
  O   O118      1.0  0.11975  0.97141  0.83884  1.0000
  O   O119      1.0  0.61975  0.52859  0.16116  1.0000
  O   O120      1.0  0.88025  0.47141  0.66116  1.0000
  O   O121      1.0  0.72141  0.36975  0.41116  1.0000
  O   O122      1.0  0.27859  0.13025  0.41116  1.0000
  O   O123      1.0  0.72141  0.63025  0.08884  1.0000
  O   O124      1.0  0.77859  0.36975  0.58884  1.0000
  O   O125      1.0  0.38025  0.02859  0.33884  1.0000
  O   O126      1.0  0.61975  0.47141  0.33884  1.0000
  O   O127      1.0  0.11975  0.02859  0.66116  1.0000
  O   O128      1.0  0.38025  0.97141  0.16116  1.0000
  C   C49       1.0  0.74044  0.37576  0.08271  1.0000
  C   C50       1.0  0.25956  0.12424  0.08271  1.0000
  C   C51       1.0  0.74044  0.62424  0.41729  1.0000
  C   C52       1.0  0.75956  0.37576  0.91729  1.0000
  C   C53       1.0  0.87424  0.50956  0.16729  1.0000
  C   C54       1.0  0.12576  0.99044  0.16729  1.0000
  C   C55       1.0  0.62576  0.50956  0.83271  1.0000
  C   C56       1.0  0.87424  0.49044  0.33271  1.0000
  C   C57       1.0  0.24044  0.87576  0.58271  1.0000
  C   C58       1.0  0.75956  0.62424  0.58271  1.0000
  C   C59       1.0  0.24044  0.12424  0.91729  1.0000
  C   C60       1.0  0.25956  0.87576  0.41729  1.0000
  C   C61       1.0  0.37424  0.00956  0.66729  1.0000
  C   C62       1.0  0.62576  0.49044  0.66729  1.0000
  C   C63       1.0  0.12576  0.00956  0.33271  1.0000
  C   C64       1.0  0.37424  0.99044  0.83271  1.0000
  C   C65       1.0  0.25956  0.62424  0.91729  1.0000
  C   C66       1.0  0.74044  0.87576  0.91729  1.0000
  C   C67       1.0  0.25956  0.37576  0.58271  1.0000
  C   C68       1.0  0.24044  0.62424  0.08271  1.0000
  C   C69       1.0  0.12576  0.49044  0.83271  1.0000
  C   C70       1.0  0.87424  0.00956  0.83271  1.0000
  C   C71       1.0  0.37424  0.49044  0.16729  1.0000
  C   C72       1.0  0.12576  0.50956  0.66729  1.0000
  C   C73       1.0  0.75956  0.12424  0.41729  1.0000
  C   C74       1.0  0.24044  0.37576  0.41729  1.0000
  C   C75       1.0  0.75956  0.87576  0.08271  1.0000
  C   C76       1.0  0.74044  0.12424  0.58271  1.0000
  C   C77       1.0  0.62576  0.99044  0.33271  1.0000
  C   C78       1.0  0.37424  0.50956  0.33271  1.0000
  C   C79       1.0  0.87424  0.99044  0.66729  1.0000
  C   C80       1.0  0.62576  0.00956  0.16729  1.0000
  C   C81       1.0  0.74192  0.23826  0.04072  1.0000
  C   C82       1.0  0.25808  0.26174  0.04072  1.0000
  C   C83       1.0  0.74192  0.76174  0.45928  1.0000
  C   C84       1.0  0.75808  0.23826  0.95928  1.0000
  C   C85       1.0  0.01174  0.50808  0.20928  1.0000
  C   C86       1.0  0.98826  0.99192  0.20928  1.0000
  C   C87       1.0  0.48826  0.50808  0.79072  1.0000
  C   C88       1.0  0.01174  0.49192  0.29072  1.0000
  C   C89       1.0  0.24192  0.73826  0.54072  1.0000
  C   C90       1.0  0.75808  0.76174  0.54072  1.0000
  C   C91       1.0  0.24192  0.26174  0.95928  1.0000
  C   C92       1.0  0.25808  0.73826  0.45928  1.0000
  C   C93       1.0  0.51174  0.00808  0.70928  1.0000
  C   C94       1.0  0.48826  0.49192  0.70928  1.0000
  C   C95       1.0  0.98826  0.00808  0.29072  1.0000
  C   C96       1.0  0.51174  0.99192  0.79072  1.0000
  C   C97       1.0  0.25808  0.76174  0.95928  1.0000
  C   C98       1.0  0.74192  0.73826  0.95928  1.0000
  C   C99       1.0  0.25808  0.23826  0.54072  1.0000
  C   C100      1.0  0.24192  0.76174  0.04072  1.0000
  C   C101      1.0  0.98826  0.49192  0.79072  1.0000
  C   C102      1.0  0.01174  0.00808  0.79072  1.0000
  C   C103      1.0  0.51174  0.49192  0.20928  1.0000
  C   C104      1.0  0.98826  0.50808  0.70928  1.0000
  C   C105      1.0  0.75808  0.26174  0.45928  1.0000
  C   C106      1.0  0.24192  0.23826  0.45928  1.0000
  C   C107      1.0  0.75808  0.73826  0.04072  1.0000
  C   C108      1.0  0.74192  0.26174  0.54072  1.0000
  C   C109      1.0  0.48826  0.99192  0.29072  1.0000
  C   C110      1.0  0.51174  0.50808  0.29072  1.0000
  C   C111      1.0  0.01174  0.99192  0.70928  1.0000
  C   C112      1.0  0.48826  0.00808  0.20928  1.0000
  C   C113      1.0  0.75000  0.36490  0.00000  1.0000
  C   C114      1.0  0.25000  0.13510  0.00000  1.0000
  C   C115      1.0  0.75000  0.63510  0.50000  1.0000
  C   C116      1.0  0.88510  0.50000  0.25000  1.0000
  C   C117      1.0  0.11490  0.00000  0.25000  1.0000
  C   C118      1.0  0.61490  0.50000  0.75000  1.0000
  C   C119      1.0  0.25000  0.86490  0.50000  1.0000
  C   C120      1.0  0.38510  0.00000  0.75000  1.0000
  C   C121      1.0  0.25000  0.63510  0.00000  1.0000
  C   C122      1.0  0.75000  0.86490  0.00000  1.0000
  C   C123      1.0  0.25000  0.36490  0.50000  1.0000
  C   C124      1.0  0.11490  0.50000  0.75000  1.0000
  C   C125      1.0  0.88510  0.00000  0.75000  1.0000
  C   C126      1.0  0.38510  0.50000  0.25000  1.0000
  C   C127      1.0  0.75000  0.13510  0.50000  1.0000
  C   C128      1.0  0.61490  0.00000  0.25000  1.0000
  H   H17       1.0  0.75000  0.42200  0.00000  1.0000
  H   H18       1.0  0.25000  0.07800  0.00000  1.0000
  H   H19       1.0  0.75000  0.57800  0.50000  1.0000
  H   H20       1.0  0.82800  0.50000  0.25000  1.0000
  H   H21       1.0  0.17200  0.00000  0.25000  1.0000
  H   H22       1.0  0.67200  0.50000  0.75000  1.0000
  H   H23       1.0  0.25000  0.92200  0.50000  1.0000
  H   H24       1.0  0.32800  0.00000  0.75000  1.0000
  H   H25       1.0  0.25000  0.57800  0.00000  1.0000
  H   H26       1.0  0.75000  0.92200  0.00000  1.0000
  H   H27       1.0  0.25000  0.42200  0.50000  1.0000
  H   H28       1.0  0.17200  0.50000  0.75000  1.0000
  H   H29       1.0  0.82800  0.00000  0.75000  1.0000
  H   H30       1.0  0.32800  0.50000  0.25000  1.0000
  H   H31       1.0  0.75000  0.07800  0.50000  1.0000
  H   H32       1.0  0.67200  0.00000  0.25000  1.0000
  C   C129      1.0  0.72460  0.18559  0.08144  1.0000
  C   C130      1.0  0.27540  0.31441  0.08144  1.0000
  C   C131      1.0  0.72460  0.81441  0.41856  1.0000
  C   C132      1.0  0.77540  0.18559  0.91856  1.0000
  C   C133      1.0  0.06441  0.52540  0.16856  1.0000
  C   C134      1.0  0.93559  0.97460  0.16856  1.0000
  C   C135      1.0  0.43559  0.52540  0.83144  1.0000
  C   C136      1.0  0.06441  0.47460  0.33144  1.0000
  C   C137      1.0  0.22460  0.68559  0.58144  1.0000
  C   C138      1.0  0.77540  0.81441  0.58144  1.0000
  C   C139      1.0  0.22460  0.31441  0.91856  1.0000
  C   C140      1.0  0.27540  0.68559  0.41856  1.0000
  C   C141      1.0  0.56441  0.02540  0.66856  1.0000
  C   C142      1.0  0.43559  0.47460  0.66856  1.0000
  C   C143      1.0  0.93559  0.02540  0.33144  1.0000
  C   C144      1.0  0.56441  0.97460  0.83144  1.0000
  C   C145      1.0  0.27540  0.81441  0.91856  1.0000
  C   C146      1.0  0.72460  0.68559  0.91856  1.0000
  C   C147      1.0  0.27540  0.18559  0.58144  1.0000
  C   C148      1.0  0.22460  0.81441  0.08144  1.0000
  C   C149      1.0  0.93559  0.47460  0.83144  1.0000
  C   C150      1.0  0.06441  0.02540  0.83144  1.0000
  C   C151      1.0  0.56441  0.47460  0.16856  1.0000
  C   C152      1.0  0.93559  0.52540  0.66856  1.0000
  C   C153      1.0  0.77540  0.31441  0.41856  1.0000
  C   C154      1.0  0.22460  0.18559  0.41856  1.0000
  C   C155      1.0  0.77540  0.68559  0.08144  1.0000
  C   C156      1.0  0.72460  0.31441  0.58144  1.0000
  C   C157      1.0  0.43559  0.97460  0.33144  1.0000
  C   C158      1.0  0.56441  0.52540  0.33144  1.0000
  C   C159      1.0  0.06441  0.97460  0.66856  1.0000
  C   C160      1.0  0.43559  0.02540  0.16856  1.0000
