data_image0
_chemical_formula_structural       Zn4P8O24C8H16C16H8C8H8
_chemical_formula_sum              "Zn4 P8 O24 C32 H32"
_cell_length_a       22.6876
_cell_length_b       8.7376
_cell_length_c       8.1673
_cell_angle_alpha    90
_cell_angle_beta     108.146
_cell_angle_gamma    90

_space_group_name_H-M_alt    "P 1"
_space_group_IT_number       1

loop_
  _space_group_symop_operation_xyz
  'x, y, z'

loop_
  _atom_site_type_symbol
  _atom_site_label
  _atom_site_symmetry_multiplicity
  _atom_site_fract_x
  _atom_site_fract_y
  _atom_site_fract_z
  _atom_site_occupancy
  Zn  Zn1       1.0  0.50000  0.54383  0.25000  1.0000
  Zn  Zn2       1.0  0.00000  0.04383  0.25000  1.0000
  Zn  Zn3       1.0  0.50000  0.45617  0.75000  1.0000
  Zn  Zn4       1.0  1.00000  0.95617  0.75000  1.0000
  P   P1        1.0  0.42300  0.70170  0.48900  1.0000
  P   P2        1.0  0.57700  0.70170  0.01100  1.0000
  P   P3        1.0  0.92300  0.20170  0.48900  1.0000
  P   P4        1.0  0.07700  0.20170  0.01100  1.0000
  P   P5        1.0  0.57700  0.29830  0.51100  1.0000
  P   P6        1.0  0.42300  0.29830  0.98900  1.0000
  P   P7        1.0  0.07700  0.79830  0.51100  1.0000
  P   P8        1.0  0.92300  0.79830  0.98900  1.0000
  O   O1        1.0  0.46910  0.68760  0.38690  1.0000
  O   O2        1.0  0.53090  0.68760  0.11310  1.0000
  O   O3        1.0  0.96910  0.18760  0.38690  1.0000
  O   O4        1.0  0.03090  0.18760  0.11310  1.0000
  O   O5        1.0  0.53090  0.31240  0.61310  1.0000
  O   O6        1.0  0.46910  0.31240  0.88690  1.0000
  O   O7        1.0  0.03090  0.81240  0.61310  1.0000
  O   O8        1.0  0.96910  0.81240  0.88690  1.0000
  O   O9        1.0  0.42920  0.57430  0.61620  1.0000
  O   O10       1.0  0.57080  0.57430  0.88380  1.0000
  O   O11       1.0  0.92920  0.07430  0.61620  1.0000
  O   O12       1.0  0.07080  0.07430  0.88380  1.0000
  O   O13       1.0  0.57080  0.42570  0.38380  1.0000
  O   O14       1.0  0.42920  0.42570  0.11620  1.0000
  O   O15       1.0  0.07080  0.92570  0.38380  1.0000
  O   O16       1.0  0.92920  0.92570  0.11620  1.0000
  O   O17       1.0  0.42940  0.85740  0.57030  1.0000
  O   O18       1.0  0.57060  0.85740  0.92970  1.0000
  O   O19       1.0  0.92940  0.35740  0.57030  1.0000
  O   O20       1.0  0.07060  0.35740  0.92970  1.0000
  O   O21       1.0  0.57060  0.14260  0.42970  1.0000
  O   O22       1.0  0.42940  0.14260  0.07030  1.0000
  O   O23       1.0  0.07060  0.64260  0.42970  1.0000
  O   O24       1.0  0.92940  0.64260  0.07030  1.0000
  C   C1        1.0  0.34580  0.69020  0.33910  1.0000
  C   C2        1.0  0.65420  0.69020  0.16090  1.0000
  C   C3        1.0  0.84580  0.19020  0.33910  1.0000
  C   C4        1.0  0.15420  0.19020  0.16090  1.0000
  C   C5        1.0  0.65420  0.30980  0.66090  1.0000
  C   C6        1.0  0.34580  0.30980  0.83910  1.0000
  C   C7        1.0  0.15420  0.80980  0.66090  1.0000
  C   C8        1.0  0.84580  0.80980  0.83910  1.0000
  H   H1        1.0  0.34160  0.76550  0.24900  1.0000
  H   H2        1.0  0.65840  0.76550  0.25100  1.0000
  H   H3        1.0  0.84160  0.26550  0.24900  1.0000
  H   H4        1.0  0.15840  0.26550  0.25100  1.0000
  H   H5        1.0  0.65840  0.23450  0.75100  1.0000
  H   H6        1.0  0.34160  0.23450  0.74900  1.0000
  H   H7        1.0  0.15840  0.73450  0.75100  1.0000
  H   H8        1.0  0.84160  0.73450  0.74900  1.0000
  H   H9        1.0  0.34000  0.58990  0.28560  1.0000
  H   H10       1.0  0.66000  0.58990  0.21440  1.0000
  H   H11       1.0  0.84000  0.08990  0.28560  1.0000
  H   H12       1.0  0.16000  0.08990  0.21440  1.0000
  H   H13       1.0  0.66000  0.41010  0.71440  1.0000
  H   H14       1.0  0.34000  0.41010  0.78560  1.0000
  H   H15       1.0  0.16000  0.91010  0.71440  1.0000
  H   H16       1.0  0.84000  0.91010  0.78560  1.0000
  C   C9        1.0  0.29520  0.71650  0.41980  1.0000
  C   C10       1.0  0.70480  0.71650  0.08020  1.0000
  C   C11       1.0  0.79520  0.21650  0.41980  1.0000
  C   C12       1.0  0.20480  0.21650  0.08020  1.0000
  C   C13       1.0  0.70480  0.28350  0.58020  1.0000
  C   C14       1.0  0.29520  0.28350  0.91980  1.0000
  C   C15       1.0  0.20480  0.78350  0.58020  1.0000
  C   C16       1.0  0.79520  0.78350  0.91980  1.0000
  C   C17       1.0  0.27470  0.86470  0.43220  1.0000
  C   C18       1.0  0.72530  0.86470  0.06780  1.0000
  C   C19       1.0  0.77470  0.36470  0.43220  1.0000
  C   C20       1.0  0.22530  0.36470  0.06780  1.0000
  C   C21       1.0  0.72530  0.13530  0.56780  1.0000
  C   C22       1.0  0.27470  0.13530  0.93220  1.0000
  C   C23       1.0  0.22530  0.63530  0.56780  1.0000
  C   C24       1.0  0.77470  0.63530  0.93220  1.0000
  H   H17       1.0  0.29150  0.94470  0.38600  1.0000
  H   H18       1.0  0.70850  0.94470  0.11400  1.0000
  H   H19       1.0  0.79150  0.44470  0.38600  1.0000
  H   H20       1.0  0.20850  0.44470  0.11400  1.0000
  H   H21       1.0  0.70850  0.05530  0.61400  1.0000
  H   H22       1.0  0.29150  0.05530  0.88600  1.0000
  H   H23       1.0  0.20850  0.55530  0.61400  1.0000
  H   H24       1.0  0.79150  0.55530  0.88600  1.0000
  C   C25       1.0  0.22990  0.89740  0.51190  1.0000
  C   C26       1.0  0.77010  0.89740  0.98810  1.0000
  C   C27       1.0  0.72990  0.39740  0.51190  1.0000
  C   C28       1.0  0.27010  0.39740  0.98810  1.0000
  C   C29       1.0  0.77010  0.10260  0.48810  1.0000
  C   C30       1.0  0.22990  0.10260  0.01190  1.0000
  C   C31       1.0  0.27010  0.60260  0.48810  1.0000
  C   C32       1.0  0.72990  0.60260  0.01190  1.0000
  H   H25       1.0  0.21730  0.99800  0.51780  1.0000
  H   H26       1.0  0.78270  0.99800  0.98220  1.0000
  H   H27       1.0  0.71730  0.49800  0.51780  1.0000
  H   H28       1.0  0.28270  0.49800  0.98220  1.0000
  H   H29       1.0  0.78270  0.00200  0.48220  1.0000
  H   H30       1.0  0.21730  0.00200  0.01780  1.0000
  H   H31       1.0  0.28270  0.50200  0.48220  1.0000
  H   H32       1.0  0.71730  0.50200  0.01780  1.0000
