data_image0
_chemical_formula_structural       In4C4H4N4C4H4N4C12H4C4H4C4H4C4H4C4H4C4H4C4O4C4O4C4O4C4O4C4H4O4C4O4H4C4H4C8H4C4O4C4O4C4O4H4C4O4C4H4O4C4O4C4H4C8H4
_chemical_formula_sum              "In4 C112 H64 N8 O48"
_cell_length_a       17.0884
_cell_length_b       12.2839
_cell_length_c       17.9456
_cell_angle_alpha    90
_cell_angle_beta     104.192
_cell_angle_gamma    90

_space_group_name_H-M_alt    "P 1"
_space_group_IT_number       1

loop_
  _space_group_symop_operation_xyz
  'x, y, z'

loop_
  _atom_site_type_symbol
  _atom_site_label
  _atom_site_symmetry_multiplicity
  _atom_site_fract_x
  _atom_site_fract_y
  _atom_site_fract_z
  _atom_site_occupancy
  In  In1       1.0  0.25577  0.00043  0.27828  1.0000
  In  In2       1.0  0.25577  0.49957  0.77828  1.0000
  In  In3       1.0  0.74423  0.99957  0.72172  1.0000
  In  In4       1.0  0.74423  0.50043  0.22172  1.0000
  C   C1        1.0  0.36180  0.98670  0.45170  1.0000
  C   C2        1.0  0.36180  0.51330  0.95170  1.0000
  C   C3        1.0  0.63820  0.01330  0.54830  1.0000
  C   C4        1.0  0.63820  0.48670  0.04830  1.0000
  H   H1        1.0  0.40380  0.98750  0.42710  1.0000
  H   H2        1.0  0.40380  0.51250  0.92710  1.0000
  H   H3        1.0  0.59620  0.01250  0.57290  1.0000
  H   H4        1.0  0.59620  0.48750  0.07290  1.0000
  N   N1        1.0  0.28640  0.99980  0.40970  1.0000
  N   N2        1.0  0.28640  0.50020  0.90970  1.0000
  N   N3        1.0  0.71360  0.00020  0.59030  1.0000
  N   N4        1.0  0.71360  0.49980  0.09030  1.0000
  C   C5        1.0  0.37960  0.97220  0.52990  1.0000
  C   C6        1.0  0.37960  0.52780  0.02990  1.0000
  C   C7        1.0  0.62040  0.02780  0.47010  1.0000
  C   C8        1.0  0.62040  0.47220  0.97010  1.0000
  H   H5        1.0  0.43320  0.96640  0.55750  1.0000
  H   H6        1.0  0.43320  0.53360  0.05750  1.0000
  H   H7        1.0  0.56680  0.03360  0.44250  1.0000
  H   H8        1.0  0.56680  0.46640  0.94250  1.0000
  N   N5        1.0  0.36540  0.90120  0.80950  1.0000
  N   N6        1.0  0.36540  0.59880  0.30950  1.0000
  N   N7        1.0  0.63460  0.09880  0.19050  1.0000
  N   N8        1.0  0.63460  0.40120  0.69050  1.0000
  C   C9        1.0  0.31870  0.96610  0.56760  1.0000
  C   C10       1.0  0.31870  0.53390  0.06760  1.0000
  C   C11       1.0  0.68130  0.03390  0.43240  1.0000
  C   C12       1.0  0.68130  0.46610  0.93240  1.0000
  C   C13       1.0  0.33490  0.94290  0.65200  1.0000
  C   C14       1.0  0.33490  0.55710  0.15200  1.0000
  C   C15       1.0  0.66510  0.05710  0.34800  1.0000
  C   C16       1.0  0.66510  0.44290  0.84800  1.0000
  C   C17       1.0  0.40210  0.98470  0.70300  1.0000
  C   C18       1.0  0.40210  0.51530  0.20300  1.0000
  C   C19       1.0  0.59790  0.01530  0.29700  1.0000
  C   C20       1.0  0.59790  0.48470  0.79700  1.0000
  H   H9        1.0  0.43870  0.02740  0.68520  1.0000
  H   H10       1.0  0.43870  0.47260  0.18520  1.0000
  H   H11       1.0  0.56130  0.97260  0.31480  1.0000
  H   H12       1.0  0.56130  0.52740  0.81480  1.0000
  C   C21       1.0  0.41470  0.96260  0.78030  1.0000
  C   C22       1.0  0.41470  0.53740  0.28030  1.0000
  C   C23       1.0  0.58530  0.03740  0.21970  1.0000
  C   C24       1.0  0.58530  0.46260  0.71970  1.0000
  H   H13       1.0  0.46010  0.99220  0.81380  1.0000
  H   H14       1.0  0.46010  0.50780  0.31380  1.0000
  H   H15       1.0  0.53990  0.00780  0.18620  1.0000
  H   H16       1.0  0.53990  0.49220  0.68620  1.0000
  C   C25       1.0  0.30110  0.86040  0.75990  1.0000
  C   C26       1.0  0.30110  0.63960  0.25990  1.0000
  C   C27       1.0  0.69890  0.13960  0.24010  1.0000
  C   C28       1.0  0.69890  0.36040  0.74010  1.0000
  H   H17       1.0  0.26600  0.81700  0.77910  1.0000
  H   H18       1.0  0.26600  0.68300  0.27910  1.0000
  H   H19       1.0  0.73400  0.18300  0.22090  1.0000
  H   H20       1.0  0.73400  0.31700  0.72090  1.0000
  C   C29       1.0  0.28330  0.87880  0.68150  1.0000
  C   C30       1.0  0.28330  0.62120  0.18150  1.0000
  C   C31       1.0  0.71670  0.12120  0.31850  1.0000
  C   C32       1.0  0.71670  0.37880  0.81850  1.0000
  H   H21       1.0  0.23740  0.84860  0.64930  1.0000
  H   H22       1.0  0.23740  0.65140  0.14930  1.0000
  H   H23       1.0  0.76260  0.15140  0.35070  1.0000
  H   H24       1.0  0.76260  0.34860  0.85070  1.0000
  C   C33       1.0  0.24030  0.98180  0.52350  1.0000
  C   C34       1.0  0.24030  0.51820  0.02350  1.0000
  C   C35       1.0  0.75970  0.01820  0.47650  1.0000
  C   C36       1.0  0.75970  0.48180  0.97650  1.0000
  H   H25       1.0  0.19720  0.98060  0.54660  1.0000
  H   H26       1.0  0.19720  0.51940  0.04660  1.0000
  H   H27       1.0  0.80280  0.01940  0.45340  1.0000
  H   H28       1.0  0.80280  0.48060  0.95340  1.0000
  C   C37       1.0  0.22700  0.99890  0.44660  1.0000
  C   C38       1.0  0.22700  0.50110  0.94660  1.0000
  C   C39       1.0  0.77300  0.00110  0.55340  1.0000
  C   C40       1.0  0.77300  0.49890  0.05340  1.0000
  H   H29       1.0  0.17430  0.01040  0.41830  1.0000
  H   H30       1.0  0.17430  0.48960  0.91830  1.0000
  H   H31       1.0  0.82570  0.98960  0.58170  1.0000
  H   H32       1.0  0.82570  0.51040  0.08170  1.0000
  C   C41       1.0  0.12530  0.11430  0.21960  1.0000
  C   C42       1.0  0.12530  0.38570  0.71960  1.0000
  C   C43       1.0  0.87470  0.88570  0.78040  1.0000
  C   C44       1.0  0.87470  0.61430  0.28040  1.0000
  O   O1        1.0  0.17080  0.08000  0.17820  1.0000
  O   O2        1.0  0.17080  0.42000  0.67820  1.0000
  O   O3        1.0  0.82920  0.92000  0.82180  1.0000
  O   O4        1.0  0.82920  0.58000  0.32180  1.0000
  C   C45       1.0  0.88590  0.33900  0.23630  1.0000
  C   C46       1.0  0.88590  0.16100  0.73630  1.0000
  C   C47       1.0  0.11410  0.66100  0.76370  1.0000
  C   C48       1.0  0.11410  0.83900  0.26370  1.0000
  O   O5        1.0  0.14600  0.10350  0.29110  1.0000
  O   O6        1.0  0.14600  0.39650  0.79110  1.0000
  O   O7        1.0  0.85400  0.89650  0.70890  1.0000
  O   O8        1.0  0.85400  0.60350  0.20890  1.0000
  C   C49       1.0  0.90950  0.19700  0.98180  1.0000
  C   C50       1.0  0.90950  0.30300  0.48180  1.0000
  C   C51       1.0  0.09050  0.80300  0.01820  1.0000
  C   C52       1.0  0.09050  0.69700  0.51820  1.0000
  O   O9        1.0  0.92190  0.37160  0.30100  1.0000
  O   O10       1.0  0.92190  0.12840  0.80100  1.0000
  O   O11       1.0  0.07810  0.62840  0.69900  1.0000
  O   O12       1.0  0.07810  0.87160  0.19900  1.0000
  C   C53       1.0  0.04710  0.16750  0.18180  1.0000
  C   C54       1.0  0.04710  0.33250  0.68180  1.0000
  C   C55       1.0  0.95290  0.83250  0.81820  1.0000
  C   C56       1.0  0.95290  0.66750  0.31820  1.0000
  O   O13       1.0  0.81220  0.36170  0.20330  1.0000
  O   O14       1.0  0.81220  0.13830  0.70330  1.0000
  O   O15       1.0  0.18780  0.63830  0.79670  1.0000
  O   O16       1.0  0.18780  0.86170  0.29670  1.0000
  C   C57       1.0  0.00400  0.22540  0.22490  1.0000
  C   C58       1.0  0.00400  0.27460  0.72490  1.0000
  C   C59       1.0  0.99600  0.77460  0.77510  1.0000
  C   C60       1.0  0.99600  0.72540  0.27510  1.0000
  H   H33       1.0  0.02460  0.23270  0.27770  1.0000
  H   H34       1.0  0.02460  0.26730  0.77770  1.0000
  H   H35       1.0  0.97540  0.76730  0.72230  1.0000
  H   H36       1.0  0.97540  0.73270  0.22230  1.0000
  O   O17       1.0  0.85140  0.24180  0.94830  1.0000
  O   O18       1.0  0.85140  0.25820  0.44830  1.0000
  O   O19       1.0  0.14860  0.75820  0.05170  1.0000
  O   O20       1.0  0.14860  0.74180  0.55170  1.0000
  C   C61       1.0  0.92960  0.27280  0.18950  1.0000
  C   C62       1.0  0.92960  0.22720  0.68950  1.0000
  C   C63       1.0  0.07040  0.72720  0.81050  1.0000
  C   C64       1.0  0.07040  0.77280  0.31050  1.0000
  O   O21       1.0  0.95080  0.13120  0.94910  1.0000
  O   O22       1.0  0.95080  0.36880  0.44910  1.0000
  O   O23       1.0  0.04920  0.86880  0.05090  1.0000
  O   O24       1.0  0.04920  0.63120  0.55090  1.0000
  H   H37       1.0  0.92300  0.11600  0.91500  1.0000
  H   H38       1.0  0.92300  0.38400  0.41500  1.0000
  H   H39       1.0  0.07700  0.88400  0.08500  1.0000
  H   H40       1.0  0.07700  0.61600  0.58500  1.0000
  C   C65       1.0  0.90050  0.26080  0.11110  1.0000
  C   C66       1.0  0.90050  0.23920  0.61110  1.0000
  C   C67       1.0  0.09950  0.73920  0.88890  1.0000
  C   C68       1.0  0.09950  0.76080  0.38890  1.0000
  H   H41       1.0  0.85080  0.29110  0.08720  1.0000
  H   H42       1.0  0.85080  0.20890  0.58720  1.0000
  H   H43       1.0  0.14920  0.70890  0.91280  1.0000
  H   H44       1.0  0.14920  0.79110  0.41280  1.0000
  C   C69       1.0  0.94370  0.20450  0.06690  1.0000
  C   C70       1.0  0.94370  0.29550  0.56690  1.0000
  C   C71       1.0  0.05630  0.79550  0.93310  1.0000
  C   C72       1.0  0.05630  0.70450  0.43310  1.0000
  C   C73       1.0  0.01730  0.15760  0.10240  1.0000
  C   C74       1.0  0.01730  0.34240  0.60240  1.0000
  C   C75       1.0  0.98270  0.84240  0.89760  1.0000
  C   C76       1.0  0.98270  0.65760  0.39760  1.0000
  H   H45       1.0  0.04660  0.11980  0.07350  1.0000
  H   H46       1.0  0.04660  0.38020  0.57350  1.0000
  H   H47       1.0  0.95340  0.88020  0.92650  1.0000
  H   H48       1.0  0.95340  0.61980  0.42650  1.0000
  C   C77       1.0  0.36300  0.88790  0.22690  1.0000
  C   C78       1.0  0.36300  0.61210  0.72690  1.0000
  C   C79       1.0  0.63700  0.11210  0.77310  1.0000
  C   C80       1.0  0.63700  0.38790  0.27310  1.0000
  O   O25       1.0  0.37670  0.89960  0.29800  1.0000
  O   O26       1.0  0.37670  0.60040  0.79800  1.0000
  O   O27       1.0  0.62330  0.10040  0.70200  1.0000
  O   O28       1.0  0.62330  0.39960  0.20200  1.0000
  C   C81       1.0  0.45540  0.80770  0.98920  1.0000
  C   C82       1.0  0.45540  0.69230  0.48920  1.0000
  C   C83       1.0  0.54460  0.19230  0.01080  1.0000
  C   C84       1.0  0.54460  0.30770  0.51080  1.0000
  O   O29       1.0  0.29870  0.92600  0.18360  1.0000
  O   O30       1.0  0.29870  0.57400  0.68360  1.0000
  O   O31       1.0  0.70130  0.07400  0.81640  1.0000
  O   O32       1.0  0.70130  0.42600  0.31640  1.0000
  C   C85       1.0  0.61710  0.67340  0.24250  1.0000
  C   C86       1.0  0.61710  0.82660  0.74250  1.0000
  C   C87       1.0  0.38290  0.32660  0.75750  1.0000
  C   C88       1.0  0.38290  0.17340  0.25750  1.0000
  O   O33       1.0  0.39060  0.86190  0.95550  1.0000
  O   O34       1.0  0.39060  0.63810  0.45550  1.0000
  O   O35       1.0  0.60940  0.13810  0.04450  1.0000
  O   O36       1.0  0.60940  0.36190  0.54450  1.0000
  H   H49       1.0  0.38700  0.87100  0.90600  1.0000
  H   H50       1.0  0.38700  0.62900  0.40600  1.0000
  H   H51       1.0  0.61300  0.12900  0.09400  1.0000
  H   H52       1.0  0.61300  0.37100  0.59400  1.0000
  C   C89       1.0  0.42210  0.83400  0.18980  1.0000
  C   C90       1.0  0.42210  0.66600  0.68980  1.0000
  C   C91       1.0  0.57790  0.16600  0.81020  1.0000
  C   C92       1.0  0.57790  0.33400  0.31020  1.0000
  O   O37       1.0  0.50160  0.76880  0.95550  1.0000
  O   O38       1.0  0.50160  0.73120  0.45550  1.0000
  O   O39       1.0  0.49840  0.23120  0.04450  1.0000
  O   O40       1.0  0.49840  0.26880  0.54450  1.0000
  C   C93       1.0  0.41040  0.84110  0.11090  1.0000
  C   C94       1.0  0.41040  0.65890  0.61090  1.0000
  C   C95       1.0  0.58960  0.15890  0.88910  1.0000
  C   C96       1.0  0.58960  0.34110  0.38910  1.0000
  H   H53       1.0  0.36460  0.87580  0.08200  1.0000
  H   H54       1.0  0.36460  0.62420  0.58200  1.0000
  H   H55       1.0  0.63540  0.12420  0.91800  1.0000
  H   H56       1.0  0.63540  0.37580  0.41800  1.0000
  O   O41       1.0  0.66600  0.63910  0.20480  1.0000
  O   O42       1.0  0.66600  0.86090  0.70480  1.0000
  O   O43       1.0  0.33400  0.36090  0.79520  1.0000
  O   O44       1.0  0.33400  0.13910  0.29520  1.0000
  C   C97       1.0  0.46550  0.79750  0.07410  1.0000
  C   C98       1.0  0.46550  0.70250  0.57410  1.0000
  C   C99       1.0  0.53450  0.20250  0.92590  1.0000
  C   C100      1.0  0.53450  0.29750  0.42590  1.0000
  O   O45       1.0  0.62520  0.66130  0.31220  1.0000
  O   O46       1.0  0.62520  0.83870  0.81220  1.0000
  O   O47       1.0  0.37480  0.33870  0.68780  1.0000
  O   O48       1.0  0.37480  0.16130  0.18780  1.0000
  C   C101      1.0  0.53260  0.74310  0.11810  1.0000
  C   C102      1.0  0.53260  0.75690  0.61810  1.0000
  C   C103      1.0  0.46740  0.25690  0.88190  1.0000
  C   C104      1.0  0.46740  0.24310  0.38190  1.0000
  H   H57       1.0  0.57000  0.71280  0.09410  1.0000
  H   H58       1.0  0.57000  0.78720  0.59410  1.0000
  H   H59       1.0  0.43000  0.28720  0.90590  1.0000
  H   H60       1.0  0.43000  0.21280  0.40590  1.0000
  C   C105      1.0  0.54470  0.73350  0.19700  1.0000
  C   C106      1.0  0.54470  0.76650  0.69700  1.0000
  C   C107      1.0  0.45530  0.26650  0.80300  1.0000
  C   C108      1.0  0.45530  0.23350  0.30300  1.0000
  C   C109      1.0  0.48880  0.77970  0.23280  1.0000
  C   C110      1.0  0.48880  0.72030  0.73280  1.0000
  C   C111      1.0  0.51120  0.22030  0.76720  1.0000
  C   C112      1.0  0.51120  0.27970  0.26720  1.0000
  H   H61       1.0  0.49650  0.77400  0.28580  1.0000
  H   H62       1.0  0.49650  0.72600  0.78580  1.0000
  H   H63       1.0  0.50350  0.22600  0.71420  1.0000
  H   H64       1.0  0.50350  0.27400  0.21420  1.0000
