data_image0
_chemical_formula_structural       Mn8Cl16O16C16H24
_chemical_formula_sum              "Mn8 Cl16 O16 C16 H24"
_cell_length_a       15.191
_cell_length_b       7.044
_cell_length_c       13.603
_cell_angle_alpha    90
_cell_angle_beta     107.31
_cell_angle_gamma    90

_space_group_name_H-M_alt    "P 1"
_space_group_IT_number       1

loop_
  _space_group_symop_operation_xyz
  'x, y, z'

loop_
  _atom_site_type_symbol
  _atom_site_label
  _atom_site_symmetry_multiplicity
  _atom_site_fract_x
  _atom_site_fract_y
  _atom_site_fract_z
  _atom_site_occupancy
  Mn  Mn1       1.0  0.24706  0.14236  0.74659  1.0000
  Mn  Mn2       1.0  0.74706  0.64236  0.74659  1.0000
  Mn  Mn3       1.0  0.75294  0.14236  0.75341  1.0000
  Mn  Mn4       1.0  0.25294  0.64236  0.75341  1.0000
  Mn  Mn5       1.0  0.75294  0.85764  0.25341  1.0000
  Mn  Mn6       1.0  0.25294  0.35764  0.25341  1.0000
  Mn  Mn7       1.0  0.24706  0.85764  0.24659  1.0000
  Mn  Mn8       1.0  0.74706  0.35764  0.24659  1.0000
  Cl  Cl1       1.0  0.19338  0.88602  0.61290  1.0000
  Cl  Cl2       1.0  0.69338  0.38602  0.61290  1.0000
  Cl  Cl3       1.0  0.80662  0.88602  0.88710  1.0000
  Cl  Cl4       1.0  0.30662  0.38602  0.88710  1.0000
  Cl  Cl5       1.0  0.80662  0.11398  0.38710  1.0000
  Cl  Cl6       1.0  0.30662  0.61398  0.38710  1.0000
  Cl  Cl7       1.0  0.19338  0.11398  0.11290  1.0000
  Cl  Cl8       1.0  0.69338  0.61398  0.11290  1.0000
  Cl  Cl9       1.0  0.37191  0.89674  0.84814  1.0000
  Cl  Cl10      1.0  0.87191  0.39674  0.84814  1.0000
  Cl  Cl11      1.0  0.62809  0.89674  0.65186  1.0000
  Cl  Cl12      1.0  0.12809  0.39674  0.65186  1.0000
  Cl  Cl13      1.0  0.62809  0.10326  0.15186  1.0000
  Cl  Cl14      1.0  0.12809  0.60326  0.15186  1.0000
  Cl  Cl15      1.0  0.37191  0.10326  0.34814  1.0000
  Cl  Cl16      1.0  0.87191  0.60326  0.34814  1.0000
  O   O1        1.0  0.15176  0.04960  0.82567  1.0000
  O   O2        1.0  0.65176  0.54960  0.82567  1.0000
  O   O3        1.0  0.84824  0.04960  0.67433  1.0000
  O   O4        1.0  0.34824  0.54960  0.67433  1.0000
  O   O5        1.0  0.84824  0.95040  0.17433  1.0000
  O   O6        1.0  0.34824  0.45040  0.17433  1.0000
  O   O7        1.0  0.15176  0.95040  0.32567  1.0000
  O   O8        1.0  0.65176  0.45040  0.32567  1.0000
  O   O9        1.0  0.15643  0.73300  0.83075  1.0000
  O   O10       1.0  0.65643  0.23300  0.83075  1.0000
  O   O11       1.0  0.84357  0.73300  0.66925  1.0000
  O   O12       1.0  0.34357  0.23300  0.66925  1.0000
  O   O13       1.0  0.84357  0.26700  0.16925  1.0000
  O   O14       1.0  0.34357  0.76700  0.16925  1.0000
  O   O15       1.0  0.15643  0.26700  0.33075  1.0000
  O   O16       1.0  0.65643  0.76700  0.33075  1.0000
  C   C1        1.0  0.12370  0.89150  0.84660  1.0000
  C   C2        1.0  0.62370  0.39150  0.84660  1.0000
  C   C3        1.0  0.87630  0.89150  0.65340  1.0000
  C   C4        1.0  0.37630  0.39150  0.65340  1.0000
  C   C5        1.0  0.87630  0.10850  0.15340  1.0000
  C   C6        1.0  0.37630  0.60850  0.15340  1.0000
  C   C7        1.0  0.12370  0.10850  0.34660  1.0000
  C   C8        1.0  0.62370  0.60850  0.34660  1.0000
  C   C9        1.0  0.04470  0.88720  0.89190  1.0000
  C   C10       1.0  0.54470  0.38720  0.89190  1.0000
  C   C11       1.0  0.95530  0.88720  0.60810  1.0000
  C   C12       1.0  0.45530  0.38720  0.60810  1.0000
  C   C13       1.0  0.95530  0.11280  0.10810  1.0000
  C   C14       1.0  0.45530  0.61280  0.10810  1.0000
  C   C15       1.0  0.04470  0.11280  0.39190  1.0000
  C   C16       1.0  0.54470  0.61280  0.39190  1.0000
  H   H1        1.0  0.06820  0.87100  0.96510  1.0000
  H   H2        1.0  0.56820  0.37100  0.96510  1.0000
  H   H3        1.0  0.93180  0.87100  0.53490  1.0000
  H   H4        1.0  0.43180  0.37100  0.53490  1.0000
  H   H5        1.0  0.93180  0.12900  0.03490  1.0000
  H   H6        1.0  0.43180  0.62900  0.03490  1.0000
  H   H7        1.0  0.06820  0.12900  0.46510  1.0000
  H   H8        1.0  0.56820  0.62900  0.46510  1.0000
  H   H9        1.0  0.00440  0.78400  0.86250  1.0000
  H   H10       1.0  0.50440  0.28400  0.86250  1.0000
  H   H11       1.0  0.99560  0.78400  0.63750  1.0000
  H   H12       1.0  0.49560  0.28400  0.63750  1.0000
  H   H13       1.0  0.99560  0.21600  0.13750  1.0000
  H   H14       1.0  0.49560  0.71600  0.13750  1.0000
  H   H15       1.0  0.00440  0.21600  0.36250  1.0000
  H   H16       1.0  0.50440  0.71600  0.36250  1.0000
  H   H17       1.0  0.01120  0.00440  0.87700  1.0000
  H   H18       1.0  0.51120  0.50440  0.87700  1.0000
  H   H19       1.0  0.98880  0.00440  0.62300  1.0000
  H   H20       1.0  0.48880  0.50440  0.62300  1.0000
  H   H21       1.0  0.98880  0.99560  0.12300  1.0000
  H   H22       1.0  0.48880  0.49560  0.12300  1.0000
  H   H23       1.0  0.01120  0.99560  0.37700  1.0000
  H   H24       1.0  0.51120  0.49560  0.37700  1.0000
