data_image0
_chemical_formula_structural       C8H8C4H8O24P4V4
_chemical_formula_sum              "C12 H16 O24 P4 V4"
_cell_length_a       6.3846
_cell_length_b       16.7722
_cell_length_c       8.9996
_cell_angle_alpha    90
_cell_angle_beta     100.121
_cell_angle_gamma    90

_space_group_name_H-M_alt    "P 1"
_space_group_IT_number       1

loop_
  _space_group_symop_operation_xyz
  'x, y, z'

loop_
  _atom_site_type_symbol
  _atom_site_label
  _atom_site_symmetry_multiplicity
  _atom_site_fract_x
  _atom_site_fract_y
  _atom_site_fract_z
  _atom_site_occupancy
  C   C1        1.0  0.21070  0.18860  0.19580  1.0000
  C   C2        1.0  0.28930  0.68860  0.30420  1.0000
  C   C3        1.0  0.78930  0.81140  0.80420  1.0000
  C   C4        1.0  0.71070  0.31140  0.69580  1.0000
  C   C5        1.0  0.21220  0.24130  0.08820  1.0000
  C   C6        1.0  0.28780  0.74130  0.41180  1.0000
  C   C7        1.0  0.78780  0.75870  0.91180  1.0000
  C   C8        1.0  0.71220  0.25870  0.58820  1.0000
  H   H1        1.0  0.07390  0.24030  0.02310  1.0000
  H   H2        1.0  0.42610  0.74030  0.47690  1.0000
  H   H3        1.0  0.92610  0.75970  0.97690  1.0000
  H   H4        1.0  0.57390  0.25970  0.52310  1.0000
  H   H5        1.0  0.31610  0.22440  0.02790  1.0000
  H   H6        1.0  0.18390  0.72440  0.47210  1.0000
  H   H7        1.0  0.68390  0.77560  0.97210  1.0000
  H   H8        1.0  0.81610  0.27560  0.52790  1.0000
  C   C9        1.0  0.26370  0.33070  0.13890  1.0000
  C   C10       1.0  0.23630  0.83070  0.36110  1.0000
  C   C11       1.0  0.73630  0.66930  0.86110  1.0000
  C   C12       1.0  0.76370  0.16930  0.63890  1.0000
  H   H9        1.0  0.40620  0.33130  0.19800  1.0000
  H   H10       1.0  0.09380  0.83130  0.30200  1.0000
  H   H11       1.0  0.59380  0.66870  0.80200  1.0000
  H   H12       1.0  0.90620  0.16870  0.69800  1.0000
  H   H13       1.0  0.16740  0.34510  0.20680  1.0000
  H   H14       1.0  0.33260  0.84510  0.29320  1.0000
  H   H15       1.0  0.83260  0.65490  0.79320  1.0000
  H   H16       1.0  0.66740  0.15490  0.70680  1.0000
  O   O1        1.0  0.27540  0.11660  0.61240  1.0000
  O   O2        1.0  0.22460  0.61660  0.88760  1.0000
  O   O3        1.0  0.72460  0.88340  0.38760  1.0000
  O   O4        1.0  0.77540  0.38340  0.11240  1.0000
  O   O5        1.0  0.19040  0.11180  0.17420  1.0000
  O   O6        1.0  0.30960  0.61180  0.32580  1.0000
  O   O7        1.0  0.80960  0.88820  0.82580  1.0000
  O   O8        1.0  0.69040  0.38820  0.67420  1.0000
  O   O9        1.0  0.22700  0.20960  0.34140  1.0000
  O   O10       1.0  0.27300  0.70960  0.15860  1.0000
  O   O11       1.0  0.77300  0.79040  0.65860  1.0000
  O   O12       1.0  0.72700  0.29040  0.84140  1.0000
  O   O13       1.0  0.03290  0.40920  0.90470  1.0000
  O   O14       1.0  0.46710  0.90920  0.59530  1.0000
  O   O15       1.0  0.96710  0.59080  0.09530  1.0000
  O   O16       1.0  0.53290  0.09080  0.40470  1.0000
  O   O17       1.0  0.41150  0.39270  0.89980  1.0000
  O   O18       1.0  0.08850  0.89270  0.60020  1.0000
  O   O19       1.0  0.58850  0.60730  0.10020  1.0000
  O   O20       1.0  0.91150  0.10730  0.39980  1.0000
  O   O21       1.0  0.29840  0.48320  0.09820  1.0000
  O   O22       1.0  0.20160  0.98320  0.40180  1.0000
  O   O23       1.0  0.70160  0.51680  0.90180  1.0000
  O   O24       1.0  0.79840  0.01680  0.59820  1.0000
  P   P1        1.0  0.25100  0.40762  0.00379  1.0000
  P   P2        1.0  0.24900  0.90762  0.49621  1.0000
  P   P3        1.0  0.74900  0.59238  0.99621  1.0000
  P   P4        1.0  0.75100  0.09238  0.50379  1.0000
  V   V1        1.0  0.22727  0.09853  0.43374  1.0000
  V   V2        1.0  0.27273  0.59853  0.06626  1.0000
  V   V3        1.0  0.77273  0.90147  0.56626  1.0000
  V   V4        1.0  0.72727  0.40147  0.93374  1.0000
