data_image0
_chemical_formula_structural       C32H8C8O32Zn4
_chemical_formula_sum              "C40 H8 O32 Zn4"
_cell_length_a       11.548
_cell_length_b       15.319
_cell_length_c       11.021
_cell_angle_alpha    90
_cell_angle_beta     92.36
_cell_angle_gamma    90

_space_group_name_H-M_alt    "P 1"
_space_group_IT_number       1

loop_
  _space_group_symop_operation_xyz
  'x, y, z'

loop_
  _atom_site_type_symbol
  _atom_site_label
  _atom_site_symmetry_multiplicity
  _atom_site_fract_x
  _atom_site_fract_y
  _atom_site_fract_z
  _atom_site_occupancy
  C   C1        1.0  0.80510  0.30559  0.41970  1.0000
  C   C2        1.0  0.19490  0.30559  0.08030  1.0000
  C   C3        1.0  0.30510  0.80559  0.41970  1.0000
  C   C4        1.0  0.69490  0.80559  0.08030  1.0000
  C   C5        1.0  0.19490  0.69441  0.58030  1.0000
  C   C6        1.0  0.80510  0.69441  0.91970  1.0000
  C   C7        1.0  0.69490  0.19441  0.58030  1.0000
  C   C8        1.0  0.30510  0.19441  0.91970  1.0000
  C   C9        1.0  0.85950  0.36456  0.32900  1.0000
  C   C10       1.0  0.14050  0.36456  0.17100  1.0000
  C   C11       1.0  0.35950  0.86456  0.32900  1.0000
  C   C12       1.0  0.64050  0.86456  0.17100  1.0000
  C   C13       1.0  0.14050  0.63544  0.67100  1.0000
  C   C14       1.0  0.85950  0.63544  0.82900  1.0000
  C   C15       1.0  0.64050  0.13544  0.67100  1.0000
  C   C16       1.0  0.35950  0.13544  0.82900  1.0000
  C   C17       1.0  0.83230  0.31049  0.54400  1.0000
  C   C18       1.0  0.16770  0.31049  0.95600  1.0000
  C   C19       1.0  0.33230  0.81049  0.54400  1.0000
  C   C20       1.0  0.66770  0.81049  0.95600  1.0000
  C   C21       1.0  0.16770  0.68951  0.45600  1.0000
  C   C22       1.0  0.83230  0.68951  0.04400  1.0000
  C   C23       1.0  0.66770  0.18951  0.45600  1.0000
  C   C24       1.0  0.33230  0.18951  0.04400  1.0000
  C   C25       1.0  0.77700  0.25511  0.62210  1.0000
  C   C26       1.0  0.22300  0.25511  0.87790  1.0000
  C   C27       1.0  0.27700  0.75511  0.62210  1.0000
  C   C28       1.0  0.72300  0.75511  0.87790  1.0000
  C   C29       1.0  0.22300  0.74489  0.37790  1.0000
  C   C30       1.0  0.77700  0.74489  0.12210  1.0000
  C   C31       1.0  0.72300  0.24489  0.37790  1.0000
  C   C32       1.0  0.27700  0.24489  0.12210  1.0000
  H   H1        1.0  0.79520  0.25850  0.70500  1.0000
  H   H2        1.0  0.20480  0.25850  0.79500  1.0000
  H   H3        1.0  0.29520  0.75850  0.70500  1.0000
  H   H4        1.0  0.70480  0.75850  0.79500  1.0000
  H   H5        1.0  0.20480  0.74150  0.29500  1.0000
  H   H6        1.0  0.79520  0.74150  0.20500  1.0000
  H   H7        1.0  0.70480  0.24150  0.29500  1.0000
  H   H8        1.0  0.29520  0.24150  0.20500  1.0000
  C   C33       1.0  0.92200  0.37056  0.60000  1.0000
  C   C34       1.0  0.07800  0.37056  0.90000  1.0000
  C   C35       1.0  0.42200  0.87056  0.60000  1.0000
  C   C36       1.0  0.57800  0.87056  0.90000  1.0000
  C   C37       1.0  0.07800  0.62944  0.40000  1.0000
  C   C38       1.0  0.92200  0.62944  0.10000  1.0000
  C   C39       1.0  0.57800  0.12944  0.40000  1.0000
  C   C40       1.0  0.42200  0.12944  0.10000  1.0000
  O   O1        1.0  0.90931  0.43252  0.37085  1.0000
  O   O2        1.0  0.09069  0.43252  0.12915  1.0000
  O   O3        1.0  0.40931  0.93252  0.37085  1.0000
  O   O4        1.0  0.59069  0.93252  0.12915  1.0000
  O   O5        1.0  0.09069  0.56748  0.62915  1.0000
  O   O6        1.0  0.90931  0.56748  0.87085  1.0000
  O   O7        1.0  0.59069  0.06748  0.62915  1.0000
  O   O8        1.0  0.40931  0.06748  0.87085  1.0000
  O   O9        1.0  0.85240  0.34606  0.22005  1.0000
  O   O10       1.0  0.14760  0.34606  0.27995  1.0000
  O   O11       1.0  0.35240  0.84606  0.22005  1.0000
  O   O12       1.0  0.64760  0.84606  0.27995  1.0000
  O   O13       1.0  0.14760  0.65394  0.77995  1.0000
  O   O14       1.0  0.85240  0.65394  0.72005  1.0000
  O   O15       1.0  0.64760  0.15394  0.77995  1.0000
  O   O16       1.0  0.35240  0.15394  0.72005  1.0000
  O   O17       1.0  0.02589  0.34842  0.60042  1.0000
  O   O18       1.0  0.97411  0.34842  0.89958  1.0000
  O   O19       1.0  0.52589  0.84842  0.60042  1.0000
  O   O20       1.0  0.47411  0.84842  0.89958  1.0000
  O   O21       1.0  0.97411  0.65158  0.39958  1.0000
  O   O22       1.0  0.02589  0.65158  0.10042  1.0000
  O   O23       1.0  0.47411  0.15158  0.39958  1.0000
  O   O24       1.0  0.52589  0.15158  0.10042  1.0000
  O   O25       1.0  0.88438  0.43822  0.65131  1.0000
  O   O26       1.0  0.11562  0.43822  0.84869  1.0000
  O   O27       1.0  0.38438  0.93822  0.65131  1.0000
  O   O28       1.0  0.61562  0.93822  0.84869  1.0000
  O   O29       1.0  0.11562  0.56178  0.34869  1.0000
  O   O30       1.0  0.88438  0.56178  0.15131  1.0000
  O   O31       1.0  0.61562  0.06178  0.34869  1.0000
  O   O32       1.0  0.38438  0.06178  0.15131  1.0000
  Zn  Zn1       1.0  1.00000  0.49461  0.25000  1.0000
  Zn  Zn2       1.0  0.50000  0.99461  0.25000  1.0000
  Zn  Zn3       1.0  0.00000  0.50539  0.75000  1.0000
  Zn  Zn4       1.0  0.50000  0.00539  0.75000  1.0000
