data_image0
_chemical_formula_structural       Y4S4O36C8H8
_chemical_formula_sum              "Y4 S4 O36 C8 H8"
_cell_length_a       6.5341
_cell_length_b       8.5266
_cell_length_c       13.745
_cell_angle_alpha    90
_cell_angle_beta     92.87
_cell_angle_gamma    90

_space_group_name_H-M_alt    "P 1"
_space_group_IT_number       1

loop_
  _space_group_symop_operation_xyz
  'x, y, z'

loop_
  _atom_site_type_symbol
  _atom_site_label
  _atom_site_symmetry_multiplicity
  _atom_site_fract_x
  _atom_site_fract_y
  _atom_site_fract_z
  _atom_site_occupancy
  Y   Y1        1.0  0.25414  0.74023  0.59017  1.0000
  Y   Y2        1.0  0.24586  0.24023  0.90983  1.0000
  Y   Y3        1.0  0.74586  0.25977  0.40983  1.0000
  Y   Y4        1.0  0.75414  0.75977  0.09017  1.0000
  S   S1        1.0  0.25961  0.33328  0.52504  1.0000
  S   S2        1.0  0.24039  0.83328  0.97496  1.0000
  S   S3        1.0  0.74039  0.66672  0.47496  1.0000
  S   S4        1.0  0.75961  0.16672  0.02504  1.0000
  O   O1        1.0  0.25170  0.50510  0.50808  1.0000
  O   O2        1.0  0.24830  0.00510  0.99192  1.0000
  O   O3        1.0  0.74830  0.49490  0.49192  1.0000
  O   O4        1.0  0.75170  0.99490  0.00808  1.0000
  O   O5        1.0  0.30900  0.30140  0.62791  1.0000
  O   O6        1.0  0.19100  0.80140  0.87209  1.0000
  O   O7        1.0  0.69100  0.69860  0.37209  1.0000
  O   O8        1.0  0.80900  0.19860  0.12791  1.0000
  O   O9        1.0  0.06040  0.26280  0.49600  1.0000
  O   O10       1.0  0.43960  0.76280  0.00400  1.0000
  O   O11       1.0  0.93960  0.73720  0.50400  1.0000
  O   O12       1.0  0.56040  0.23720  0.99600  1.0000
  O   O13       1.0  0.41590  0.26530  0.46430  1.0000
  O   O14       1.0  0.08410  0.76530  0.03570  1.0000
  O   O15       1.0  0.58410  0.73470  0.53570  1.0000
  O   O16       1.0  0.91590  0.23470  0.96430  1.0000
  O   O17       1.0  0.05170  0.94270  0.65958  1.0000
  O   O18       1.0  0.44830  0.44270  0.84042  1.0000
  O   O19       1.0  0.94830  0.05730  0.34042  1.0000
  O   O20       1.0  0.55170  0.55730  0.15958  1.0000
  O   O21       1.0  0.04570  0.11980  0.77988  1.0000
  O   O22       1.0  0.45430  0.61980  0.72012  1.0000
  O   O23       1.0  0.95430  0.88020  0.22012  1.0000
  O   O24       1.0  0.54570  0.38020  0.27988  1.0000
  O   O25       1.0  0.45660  0.94220  0.67218  1.0000
  O   O26       1.0  0.04340  0.44220  0.82782  1.0000
  O   O27       1.0  0.54340  0.05780  0.32782  1.0000
  O   O28       1.0  0.95660  0.55780  0.17218  1.0000
  O   O29       1.0  0.45510  0.10600  0.79995  1.0000
  O   O30       1.0  0.04490  0.60600  0.70005  1.0000
  O   O31       1.0  0.54490  0.89400  0.20005  1.0000
  O   O32       1.0  0.95510  0.39400  0.29995  1.0000
  O   O33       1.0  0.26240  0.92090  0.45929  1.0000
  O   O34       1.0  0.23760  0.42090  0.04071  1.0000
  O   O35       1.0  0.73760  0.07910  0.54071  1.0000
  O   O36       1.0  0.76240  0.57910  0.95929  1.0000
  C   C1        1.0  0.13500  0.03160  0.72290  1.0000
  C   C2        1.0  0.36500  0.53160  0.77710  1.0000
  C   C3        1.0  0.86500  0.96840  0.27710  1.0000
  C   C4        1.0  0.63500  0.46840  0.22290  1.0000
  C   C5        1.0  0.36910  0.02770  0.73280  1.0000
  C   C6        1.0  0.13090  0.52770  0.76720  1.0000
  C   C7        1.0  0.63090  0.97230  0.26720  1.0000
  C   C8        1.0  0.86910  0.47230  0.23280  1.0000
  H   H1        1.0  0.16500  0.96600  0.43300  1.0000
  H   H2        1.0  0.33500  0.46600  0.06700  1.0000
  H   H3        1.0  0.83500  0.03400  0.56700  1.0000
  H   H4        1.0  0.66500  0.53400  0.93300  1.0000
  H   H5        1.0  0.36200  0.96000  0.43600  1.0000
  H   H6        1.0  0.13800  0.46000  0.06400  1.0000
  H   H7        1.0  0.63800  0.04000  0.56400  1.0000
  H   H8        1.0  0.86200  0.54000  0.93600  1.0000
