data_image0
_chemical_formula_structural       La4S4O32C8O4H8
_chemical_formula_sum              "La4 S4 O36 C8 H8"
_cell_length_a       6.6294
_cell_length_b       8.6727
_cell_length_c       13.867
_cell_angle_alpha    90
_cell_angle_beta     93.35
_cell_angle_gamma    90

_space_group_name_H-M_alt    "P 1"
_space_group_IT_number       1

loop_
  _space_group_symop_operation_xyz
  'x, y, z'

loop_
  _atom_site_type_symbol
  _atom_site_label
  _atom_site_symmetry_multiplicity
  _atom_site_fract_x
  _atom_site_fract_y
  _atom_site_fract_z
  _atom_site_occupancy
  La  La1       1.0  0.24594  0.74012  0.91160  1.0000
  La  La2       1.0  0.25406  0.24012  0.58840  1.0000
  La  La3       1.0  0.75406  0.25988  0.08840  1.0000
  La  La4       1.0  0.74594  0.75988  0.41160  1.0000
  S   S1        1.0  0.76120  0.66640  0.02500  1.0000
  S   S2        1.0  0.73880  0.16640  0.47500  1.0000
  S   S3        1.0  0.23880  0.33360  0.97500  1.0000
  S   S4        1.0  0.26120  0.83360  0.52500  1.0000
  O   O1        1.0  0.56440  0.73760  0.00010  1.0000
  O   O2        1.0  0.93560  0.23760  0.49990  1.0000
  O   O3        1.0  0.43560  0.26240  0.99990  1.0000
  O   O4        1.0  0.06440  0.76240  0.50010  1.0000
  O   O5        1.0  0.91050  0.73530  0.96390  1.0000
  O   O6        1.0  0.58950  0.23530  0.53610  1.0000
  O   O7        1.0  0.08950  0.26470  0.03610  1.0000
  O   O8        1.0  0.41050  0.76470  0.46390  1.0000
  O   O9        1.0  0.04290  0.94620  0.82830  1.0000
  O   O10       1.0  0.45710  0.44620  0.67170  1.0000
  O   O11       1.0  0.95710  0.05380  0.17170  1.0000
  O   O12       1.0  0.54290  0.55380  0.32830  1.0000
  O   O13       1.0  0.23510  0.91980  0.04710  1.0000
  O   O14       1.0  0.26490  0.41980  0.45290  1.0000
  O   O15       1.0  0.76490  0.08020  0.95290  1.0000
  O   O16       1.0  0.73510  0.58020  0.54710  1.0000
  O   O17       1.0  0.44800  0.94650  0.84220  1.0000
  O   O18       1.0  0.05200  0.44650  0.65780  1.0000
  O   O19       1.0  0.55200  0.05350  0.15780  1.0000
  O   O20       1.0  0.94800  0.55350  0.34220  1.0000
  O   O21       1.0  0.45280  0.12360  0.72480  1.0000
  O   O22       1.0  0.04720  0.62360  0.77520  1.0000
  O   O23       1.0  0.54720  0.87640  0.27520  1.0000
  O   O24       1.0  0.95280  0.37640  0.22480  1.0000
  O   O25       1.0  0.75040  0.49840  0.00440  1.0000
  O   O26       1.0  0.74960  0.99840  0.49560  1.0000
  O   O27       1.0  0.24960  0.50160  0.99560  1.0000
  O   O28       1.0  0.25040  0.00160  0.50440  1.0000
  O   O29       1.0  0.04570  0.10480  0.70140  1.0000
  O   O30       1.0  0.45430  0.60480  0.79860  1.0000
  O   O31       1.0  0.95430  0.89520  0.29860  1.0000
  O   O32       1.0  0.54570  0.39520  0.20140  1.0000
  C   C1        1.0  0.36270  0.03490  0.77880  1.0000
  C   C2        1.0  0.13730  0.53490  0.72120  1.0000
  C   C3        1.0  0.63730  0.96510  0.22120  1.0000
  C   C4        1.0  0.86270  0.46510  0.27880  1.0000
  C   C5        1.0  0.13100  0.02960  0.76870  1.0000
  C   C6        1.0  0.36900  0.52960  0.73130  1.0000
  C   C7        1.0  0.86900  0.97040  0.23130  1.0000
  C   C8        1.0  0.63100  0.47040  0.26870  1.0000
  O   O33       1.0  0.81920  0.69260  0.12630  1.0000
  O   O34       1.0  0.68080  0.19260  0.37370  1.0000
  O   O35       1.0  0.18080  0.30740  0.87370  1.0000
  O   O36       1.0  0.31920  0.80740  0.62630  1.0000
  H   H1        1.0  0.35900  0.96000  0.06700  1.0000
  H   H2        1.0  0.14100  0.46000  0.43300  1.0000
  H   H3        1.0  0.64100  0.04000  0.93300  1.0000
  H   H4        1.0  0.85900  0.54000  0.56700  1.0000
  H   H5        1.0  0.11900  0.96600  0.06900  1.0000
  H   H6        1.0  0.38100  0.46600  0.43100  1.0000
  H   H7        1.0  0.88100  0.03400  0.93100  1.0000
  H   H8        1.0  0.61900  0.53400  0.56900  1.0000
