data_image0
_chemical_formula_structural       Dy4O32C4H4C4H4C4H4C4H4
_chemical_formula_sum              "Dy4 O32 C16 H16"
_cell_length_a       18.2377
_cell_length_b       6.5776
_cell_length_c       7.6098
_cell_angle_alpha    90
_cell_angle_beta     90
_cell_angle_gamma    90

_space_group_name_H-M_alt    "P 1"
_space_group_IT_number       1

loop_
  _space_group_symop_operation_xyz
  'x, y, z'

loop_
  _atom_site_type_symbol
  _atom_site_label
  _atom_site_symmetry_multiplicity
  _atom_site_fract_x
  _atom_site_fract_y
  _atom_site_fract_z
  _atom_site_occupancy
  Dy  Dy1       1.0  0.39798  0.79845  0.26623  1.0000
  Dy  Dy2       1.0  0.60203  0.20155  0.76623  1.0000
  Dy  Dy3       1.0  0.89797  0.20155  0.26623  1.0000
  Dy  Dy4       1.0  0.10202  0.79845  0.76623  1.0000
  O   O1        1.0  0.42774  0.59320  0.51990  1.0000
  O   O2        1.0  0.57226  0.40680  0.01990  1.0000
  O   O3        1.0  0.92774  0.40680  0.51990  1.0000
  O   O4        1.0  0.07226  0.59320  0.01990  1.0000
  O   O5        1.0  0.49442  0.39200  0.69140  1.0000
  O   O6        1.0  0.50558  0.60800  0.19140  1.0000
  O   O7        1.0  0.99442  0.60800  0.69140  1.0000
  O   O8        1.0  0.00558  0.39200  0.19140  1.0000
  O   O9        1.0  0.32329  0.88700  0.49510  1.0000
  O   O10       1.0  0.67671  0.11300  0.99510  1.0000
  O   O11       1.0  0.82329  0.11300  0.49510  1.0000
  O   O12       1.0  0.17671  0.88700  0.99510  1.0000
  O   O13       1.0  0.22056  0.81240  0.63240  1.0000
  O   O14       1.0  0.77944  0.18760  0.13240  1.0000
  O   O15       1.0  0.72056  0.18760  0.63240  1.0000
  O   O16       1.0  0.27944  0.81240  0.13240  1.0000
  O   O17       1.0  0.34592  0.47110  0.22090  1.0000
  O   O18       1.0  0.65408  0.52890  0.72090  1.0000
  O   O19       1.0  0.84592  0.52890  0.22090  1.0000
  O   O20       1.0  0.15408  0.47110  0.72090  1.0000
  O   O21       1.0  0.37663  0.14640  0.19200  1.0000
  O   O22       1.0  0.62337  0.85360  0.69200  1.0000
  O   O23       1.0  0.87663  0.85360  0.19200  1.0000
  O   O24       1.0  0.12337  0.14640  0.69200  1.0000
  O   O25       1.0  0.49187  0.97610  0.40920  1.0000
  O   O26       1.0  0.50813  0.02390  0.90920  1.0000
  O   O27       1.0  0.99187  0.02390  0.40920  1.0000
  O   O28       1.0  0.00813  0.97610  0.90920  1.0000
  O   O29       1.0  0.58711  0.17920  0.45820  1.0000
  O   O30       1.0  0.41289  0.82080  0.95820  1.0000
  O   O31       1.0  0.08711  0.82080  0.45820  1.0000
  O   O32       1.0  0.91289  0.17920  0.95820  1.0000
  C   C1        1.0  0.48757  0.52120  0.57290  1.0000
  C   C2        1.0  0.51243  0.47880  0.07290  1.0000
  C   C3        1.0  0.98757  0.47880  0.57290  1.0000
  C   C4        1.0  0.01243  0.52120  0.07290  1.0000
  H   H1        1.0  0.53110  0.56910  0.51820  1.0000
  H   H2        1.0  0.46890  0.43090  0.01820  1.0000
  H   H3        1.0  0.03110  0.43090  0.51820  1.0000
  H   H4        1.0  0.96890  0.56910  0.01820  1.0000
  C   C5        1.0  0.26360  0.92720  0.56440  1.0000
  C   C6        1.0  0.73640  0.07280  0.06440  1.0000
  C   C7        1.0  0.76360  0.07280  0.56440  1.0000
  C   C8        1.0  0.23640  0.92720  0.06440  1.0000
  H   H5        1.0  0.25000  0.06660  0.56400  1.0000
  H   H6        1.0  0.75000  0.93340  0.06400  1.0000
  H   H7        1.0  0.75000  0.93340  0.56400  1.0000
  H   H8        1.0  0.25000  0.06660  0.06400  1.0000
  C   C9        1.0  0.36053  0.29640  0.28170  1.0000
  C   C10       1.0  0.63947  0.70360  0.78170  1.0000
  C   C11       1.0  0.86053  0.70360  0.28170  1.0000
  C   C12       1.0  0.13947  0.29640  0.78170  1.0000
  H   H9        1.0  0.35900  0.27950  0.40560  1.0000
  H   H10       1.0  0.64100  0.72050  0.90560  1.0000
  H   H11       1.0  0.85900  0.72050  0.40560  1.0000
  H   H12       1.0  0.14100  0.27950  0.90560  1.0000
  C   C13       1.0  0.54521  0.07810  0.35980  1.0000
  C   C14       1.0  0.45479  0.92190  0.85980  1.0000
  C   C15       1.0  0.04521  0.92190  0.35980  1.0000
  C   C16       1.0  0.95479  0.07810  0.85980  1.0000
  H   H13       1.0  0.55530  0.08020  0.23730  1.0000
  H   H14       1.0  0.44470  0.91980  0.73730  1.0000
  H   H15       1.0  0.05530  0.91980  0.23730  1.0000
  H   H16       1.0  0.94470  0.08020  0.73730  1.0000
