data_image0
_chemical_formula_structural       Dy4O32C4H4C4H4C4H4C4H4
_chemical_formula_sum              "Dy4 O32 C16 H16"
_cell_length_a       18.3308
_cell_length_b       6.5959
_cell_length_c       7.5993
_cell_angle_alpha    90
_cell_angle_beta     90
_cell_angle_gamma    90

_space_group_name_H-M_alt    "P 1"
_space_group_IT_number       1

loop_
  _space_group_symop_operation_xyz
  'x, y, z'

loop_
  _atom_site_type_symbol
  _atom_site_label
  _atom_site_symmetry_multiplicity
  _atom_site_fract_x
  _atom_site_fract_y
  _atom_site_fract_z
  _atom_site_occupancy
  Dy  Dy1       1.0  0.39800  0.79604  0.26609  1.0000
  Dy  Dy2       1.0  0.60200  0.20396  0.76609  1.0000
  Dy  Dy3       1.0  0.89800  0.20396  0.26609  1.0000
  Dy  Dy4       1.0  0.10200  0.79604  0.76609  1.0000
  O   O1        1.0  0.42753  0.59400  0.52360  1.0000
  O   O2        1.0  0.57247  0.40600  0.02360  1.0000
  O   O3        1.0  0.92753  0.40600  0.52360  1.0000
  O   O4        1.0  0.07247  0.59400  0.02360  1.0000
  O   O5        1.0  0.49474  0.39500  0.69280  1.0000
  O   O6        1.0  0.50526  0.60500  0.19280  1.0000
  O   O7        1.0  0.99474  0.60500  0.69280  1.0000
  O   O8        1.0  0.00526  0.39500  0.19280  1.0000
  O   O9        1.0  0.32227  0.88280  0.49220  1.0000
  O   O10       1.0  0.67773  0.11720  0.99220  1.0000
  O   O11       1.0  0.82227  0.11720  0.49220  1.0000
  O   O12       1.0  0.17773  0.88280  0.99220  1.0000
  O   O13       1.0  0.21966  0.80550  0.62750  1.0000
  O   O14       1.0  0.78034  0.19450  0.12750  1.0000
  O   O15       1.0  0.71966  0.19450  0.62750  1.0000
  O   O16       1.0  0.28034  0.80550  0.12750  1.0000
  O   O17       1.0  0.34748  0.46900  0.22040  1.0000
  O   O18       1.0  0.65252  0.53100  0.72040  1.0000
  O   O19       1.0  0.84748  0.53100  0.22040  1.0000
  O   O20       1.0  0.15252  0.46900  0.72040  1.0000
  O   O21       1.0  0.37523  0.14370  0.19330  1.0000
  O   O22       1.0  0.62477  0.85630  0.69330  1.0000
  O   O23       1.0  0.87523  0.85630  0.19330  1.0000
  O   O24       1.0  0.12477  0.14370  0.69330  1.0000
  O   O25       1.0  0.49104  0.97500  0.40730  1.0000
  O   O26       1.0  0.50896  0.02500  0.90730  1.0000
  O   O27       1.0  0.99104  0.02500  0.40730  1.0000
  O   O28       1.0  0.00896  0.97500  0.90730  1.0000
  O   O29       1.0  0.58531  0.17740  0.45830  1.0000
  O   O30       1.0  0.41469  0.82260  0.95830  1.0000
  O   O31       1.0  0.08531  0.82260  0.45830  1.0000
  O   O32       1.0  0.91469  0.17740  0.95830  1.0000
  C   C1        1.0  0.48690  0.52230  0.57470  1.0000
  C   C2        1.0  0.51310  0.47770  0.07470  1.0000
  C   C3        1.0  0.98690  0.47770  0.57470  1.0000
  C   C4        1.0  0.01310  0.52230  0.07470  1.0000
  H   H1        1.0  0.52890  0.56860  0.51910  1.0000
  H   H2        1.0  0.47110  0.43140  0.01910  1.0000
  H   H3        1.0  0.02890  0.43140  0.51910  1.0000
  H   H4        1.0  0.97110  0.56860  0.01910  1.0000
  C   C5        1.0  0.26360  0.92190  0.56470  1.0000
  C   C6        1.0  0.73640  0.07810  0.06470  1.0000
  C   C7        1.0  0.76360  0.07810  0.56470  1.0000
  C   C8        1.0  0.23640  0.92190  0.06470  1.0000
  H   H5        1.0  0.25160  0.05870  0.57200  1.0000
  H   H6        1.0  0.74840  0.94130  0.07200  1.0000
  H   H7        1.0  0.75160  0.94130  0.57200  1.0000
  H   H8        1.0  0.24840  0.05870  0.07200  1.0000
  C   C9        1.0  0.36160  0.29470  0.27930  1.0000
  C   C10       1.0  0.63840  0.70530  0.77930  1.0000
  C   C11       1.0  0.86160  0.70530  0.27930  1.0000
  C   C12       1.0  0.13840  0.29470  0.77930  1.0000
  H   H9        1.0  0.36170  0.28000  0.40110  1.0000
  H   H10       1.0  0.63830  0.72000  0.90110  1.0000
  H   H11       1.0  0.86170  0.72000  0.40110  1.0000
  H   H12       1.0  0.13830  0.28000  0.90110  1.0000
  C   C13       1.0  0.54370  0.07700  0.36040  1.0000
  C   C14       1.0  0.45630  0.92300  0.86040  1.0000
  C   C15       1.0  0.04370  0.92300  0.36040  1.0000
  C   C16       1.0  0.95630  0.07700  0.86040  1.0000
  H   H13       1.0  0.55370  0.08000  0.24050  1.0000
  H   H14       1.0  0.44630  0.92000  0.74050  1.0000
  H   H15       1.0  0.05370  0.92000  0.24050  1.0000
  H   H16       1.0  0.94630  0.08000  0.74050  1.0000
