data_image0
_chemical_formula_structural       Dy4O32C4H4C4H4C4H4C4H4
_chemical_formula_sum              "Dy4 O32 C16 H16"
_cell_length_a       18.3359
_cell_length_b       6.60183
_cell_length_c       7.6049
_cell_angle_alpha    90
_cell_angle_beta     90
_cell_angle_gamma    90

_space_group_name_H-M_alt    "P 1"
_space_group_IT_number       1

loop_
  _space_group_symop_operation_xyz
  'x, y, z'

loop_
  _atom_site_type_symbol
  _atom_site_label
  _atom_site_symmetry_multiplicity
  _atom_site_fract_x
  _atom_site_fract_y
  _atom_site_fract_z
  _atom_site_occupancy
  Dy  Dy1       1.0  0.60198  0.20406  0.44467  1.0000
  Dy  Dy2       1.0  0.39802  0.79594  0.94467  1.0000
  Dy  Dy3       1.0  0.10198  0.79594  0.44467  1.0000
  Dy  Dy4       1.0  0.89802  0.20406  0.94467  1.0000
  O   O1        1.0  0.78080  0.19500  0.08390  1.0000
  O   O2        1.0  0.21920  0.80500  0.58390  1.0000
  O   O3        1.0  0.28080  0.80500  0.08390  1.0000
  O   O4        1.0  0.71920  0.19500  0.58390  1.0000
  O   O5        1.0  0.58570  0.17650  0.75260  1.0000
  O   O6        1.0  0.41430  0.82350  0.25260  1.0000
  O   O7        1.0  0.08570  0.82350  0.75260  1.0000
  O   O8        1.0  0.91430  0.17650  0.25260  1.0000
  O   O9        1.0  0.65279  0.53210  0.49090  1.0000
  O   O10       1.0  0.34721  0.46790  0.99090  1.0000
  O   O11       1.0  0.15279  0.46790  0.49090  1.0000
  O   O12       1.0  0.84721  0.53210  0.99090  1.0000
  O   O13       1.0  0.57280  0.40630  0.18720  1.0000
  O   O14       1.0  0.42720  0.59370  0.68720  1.0000
  O   O15       1.0  0.07280  0.59370  0.18720  1.0000
  O   O16       1.0  0.92720  0.40630  0.68720  1.0000
  O   O17       1.0  0.67780  0.11690  0.21760  1.0000
  O   O18       1.0  0.32220  0.88310  0.71760  1.0000
  O   O19       1.0  0.17780  0.88310  0.21760  1.0000
  O   O20       1.0  0.82220  0.11690  0.71760  1.0000
  O   O21       1.0  0.50570  0.60580  0.01880  1.0000
  O   O22       1.0  0.49430  0.39420  0.51880  1.0000
  O   O23       1.0  0.00570  0.39420  0.01880  1.0000
  O   O24       1.0  0.99430  0.60580  0.51880  1.0000
  O   O25       1.0  0.62470  0.85630  0.51710  1.0000
  O   O26       1.0  0.37530  0.14370  0.01710  1.0000
  O   O27       1.0  0.12470  0.14370  0.51710  1.0000
  O   O28       1.0  0.87530  0.85630  0.01710  1.0000
  O   O29       1.0  0.49080  0.97570  0.80340  1.0000
  O   O30       1.0  0.50920  0.02430  0.30340  1.0000
  O   O31       1.0  0.99080  0.02430  0.80340  1.0000
  O   O32       1.0  0.00920  0.97570  0.30340  1.0000
  C   C1        1.0  0.63840  0.70570  0.42790  1.0000
  C   C2        1.0  0.36160  0.29430  0.92790  1.0000
  C   C3        1.0  0.13840  0.29430  0.42790  1.0000
  C   C4        1.0  0.86160  0.70570  0.92790  1.0000
  H   H1        1.0  0.63820  0.71990  0.30620  1.0000
  H   H2        1.0  0.36180  0.28010  0.80620  1.0000
  H   H3        1.0  0.13820  0.28010  0.30620  1.0000
  H   H4        1.0  0.86180  0.71990  0.80620  1.0000
  C   C5        1.0  0.51300  0.47720  0.13660  1.0000
  C   C6        1.0  0.48700  0.52280  0.63660  1.0000
  C   C7        1.0  0.01300  0.52280  0.13660  1.0000
  C   C8        1.0  0.98700  0.47720  0.63660  1.0000
  H   H5        1.0  0.47090  0.42990  0.19130  1.0000
  H   H6        1.0  0.52910  0.57010  0.69130  1.0000
  H   H7        1.0  0.97090  0.57010  0.19130  1.0000
  H   H8        1.0  0.02910  0.42990  0.69130  1.0000
  C   C9        1.0  0.73610  0.07770  0.14580  1.0000
  C   C10       1.0  0.26390  0.92230  0.64580  1.0000
  C   C11       1.0  0.23610  0.92230  0.14580  1.0000
  C   C12       1.0  0.76390  0.07770  0.64580  1.0000
  H   H9        1.0  0.74770  0.94090  0.13740  1.0000
  H   H10       1.0  0.25230  0.05910  0.63740  1.0000
  H   H11       1.0  0.24770  0.05910  0.13740  1.0000
  H   H12       1.0  0.75230  0.94090  0.63740  1.0000
  C   C13       1.0  0.54360  0.07610  0.85120  1.0000
  C   C14       1.0  0.45640  0.92390  0.35120  1.0000
  C   C15       1.0  0.04360  0.92390  0.85120  1.0000
  C   C16       1.0  0.95640  0.07610  0.35120  1.0000
  H   H13       1.0  0.55350  0.07860  0.97110  1.0000
  H   H14       1.0  0.44650  0.92140  0.47110  1.0000
  H   H15       1.0  0.05350  0.92140  0.97110  1.0000
  H   H16       1.0  0.94650  0.07860  0.47110  1.0000
