data_image0
_chemical_formula_structural       Dy4O16C4H4C4H4C4H4C4H4O16
_chemical_formula_sum              "Dy4 O32 C16 H16"
_cell_length_a       8.7383
_cell_length_b       18.1604
_cell_length_c       6.7072
_cell_angle_alpha    90
_cell_angle_beta     90
_cell_angle_gamma    90

_space_group_name_H-M_alt    "P 1"
_space_group_IT_number       1

loop_
  _space_group_symop_operation_xyz
  'x, y, z'

loop_
  _atom_site_type_symbol
  _atom_site_label
  _atom_site_symmetry_multiplicity
  _atom_site_fract_x
  _atom_site_fract_y
  _atom_site_fract_z
  _atom_site_occupancy
  Dy  Dy1       1.0  0.74415  0.60554  0.40591  1.0000
  Dy  Dy2       1.0  0.25585  0.39446  0.90591  1.0000
  Dy  Dy3       1.0  0.24415  0.89446  0.40591  1.0000
  Dy  Dy4       1.0  0.75585  0.10554  0.90591  1.0000
  O   O1        1.0  0.72150  0.65410  0.73730  1.0000
  O   O2        1.0  0.27850  0.34590  0.23730  1.0000
  O   O3        1.0  0.22150  0.84590  0.73730  1.0000
  O   O4        1.0  0.77850  0.15410  0.23730  1.0000
  O   O5        1.0  0.85410  0.51034  0.22380  1.0000
  O   O6        1.0  0.14590  0.48966  0.72380  1.0000
  O   O7        1.0  0.35410  0.98966  0.22380  1.0000
  O   O8        1.0  0.64590  0.01034  0.72380  1.0000
  O   O9        1.0  0.65410  0.50168  0.59360  1.0000
  O   O10       1.0  0.34590  0.49832  0.09360  1.0000
  O   O11       1.0  0.15410  0.99832  0.59360  1.0000
  O   O12       1.0  0.84590  0.00168  0.09360  1.0000
  O   O13       1.0  0.10311  0.78412  0.40820  1.0000
  O   O14       1.0  0.89689  0.21588  0.90820  1.0000
  O   O15       1.0  0.60311  0.71588  0.40820  1.0000
  O   O16       1.0  0.39689  0.28412  0.90820  1.0000
  C   C1        1.0  0.98670  0.75330  0.34310  1.0000
  C   C2        1.0  0.01330  0.24670  0.84310  1.0000
  C   C3        1.0  0.48670  0.74670  0.34310  1.0000
  C   C4        1.0  0.51330  0.25330  0.84310  1.0000
  H   H1        1.0  0.92950  0.77790  0.24720  1.0000
  H   H2        1.0  0.07050  0.22210  0.74720  1.0000
  H   H3        1.0  0.42950  0.72210  0.24720  1.0000
  H   H4        1.0  0.57050  0.27790  0.74720  1.0000
  C   C5        1.0  0.52890  0.47807  0.64670  1.0000
  C   C6        1.0  0.47110  0.52193  0.14670  1.0000
  C   C7        1.0  0.02890  0.02193  0.64670  1.0000
  C   C8        1.0  0.97110  0.97807  0.14670  1.0000
  H   H5        1.0  0.44600  0.50170  0.58790  1.0000
  H   H6        1.0  0.55400  0.49830  0.08790  1.0000
  H   H7        1.0  0.94600  0.99830  0.58790  1.0000
  H   H8        1.0  0.05400  0.00170  0.08790  1.0000
  C   C9        1.0  0.98400  0.49590  0.16250  1.0000
  C   C10       1.0  0.01600  0.50410  0.66250  1.0000
  C   C11       1.0  0.48400  0.00410  0.16250  1.0000
  C   C12       1.0  0.51600  0.99590  0.66250  1.0000
  H   H9        1.0  0.05530  0.53380  0.17040  1.0000
  H   H10       1.0  0.94470  0.46620  0.67040  1.0000
  H   H11       1.0  0.55530  0.96620  0.17040  1.0000
  H   H12       1.0  0.44470  0.03380  0.67040  1.0000
  C   C13       1.0  0.73810  0.62219  0.90180  1.0000
  C   C14       1.0  0.26190  0.37781  0.40180  1.0000
  C   C15       1.0  0.23810  0.87781  0.90180  1.0000
  C   C16       1.0  0.76190  0.12219  0.40180  1.0000
  H   H13       1.0  0.73920  0.57100  0.89960  1.0000
  H   H14       1.0  0.26080  0.42900  0.39960  1.0000
  H   H15       1.0  0.23920  0.92900  0.89960  1.0000
  H   H16       1.0  0.76080  0.07100  0.39960  1.0000
  O   O17       1.0  0.03020  0.43759  0.09250  1.0000
  O   O18       1.0  0.96980  0.56241  0.59250  1.0000
  O   O19       1.0  0.53020  0.06241  0.09250  1.0000
  O   O20       1.0  0.46980  0.93759  0.59250  1.0000
  O   O21       1.0  0.49390  0.42954  0.76200  1.0000
  O   O22       1.0  0.50610  0.57046  0.26200  1.0000
  O   O23       1.0  0.99390  0.07046  0.76200  1.0000
  O   O24       1.0  0.00610  0.92954  0.26200  1.0000
  O   O25       1.0  0.94174  0.69171  0.39780  1.0000
  O   O26       1.0  0.05826  0.30829  0.89780  1.0000
  O   O27       1.0  0.44174  0.80829  0.39780  1.0000
  O   O28       1.0  0.55826  0.19171  0.89780  1.0000
  O   O29       1.0  0.75300  0.65180  0.06560  1.0000
  O   O30       1.0  0.24700  0.34820  0.56560  1.0000
  O   O31       1.0  0.25300  0.84820  0.06560  1.0000
  O   O32       1.0  0.74700  0.15180  0.56560  1.0000
