data_image0
_chemical_formula_structural       Dy4O32C4H4C4H4C4H4C4H4
_chemical_formula_sum              "Dy4 O32 C16 H16"
_cell_length_a       8.7364
_cell_length_b       18.1701
_cell_length_c       6.7115
_cell_angle_alpha    90
_cell_angle_beta     90
_cell_angle_gamma    90

_space_group_name_H-M_alt    "P 1"
_space_group_IT_number       1

loop_
  _space_group_symop_operation_xyz
  'x, y, z'

loop_
  _atom_site_type_symbol
  _atom_site_label
  _atom_site_symmetry_multiplicity
  _atom_site_fract_x
  _atom_site_fract_y
  _atom_site_fract_z
  _atom_site_occupancy
  Dy  Dy1       1.0  0.24429  0.60554  0.49990  1.0000
  Dy  Dy2       1.0  0.75571  0.39446  0.99990  1.0000
  Dy  Dy3       1.0  0.74429  0.89446  0.49990  1.0000
  Dy  Dy4       1.0  0.25571  0.10554  0.99990  1.0000
  O   O1        1.0  0.15480  0.50190  0.68750  1.0000
  O   O2        1.0  0.84520  0.49810  0.18750  1.0000
  O   O3        1.0  0.65480  0.99810  0.68750  1.0000
  O   O4        1.0  0.34520  0.00190  0.18750  1.0000
  O   O5        1.0  0.99350  0.42930  0.85620  1.0000
  O   O6        1.0  0.00650  0.57070  0.35620  1.0000
  O   O7        1.0  0.49350  0.07070  0.85620  1.0000
  O   O8        1.0  0.50650  0.92930  0.35620  1.0000
  O   O9        1.0  0.22260  0.65450  0.83400  1.0000
  O   O10       1.0  0.77740  0.34550  0.33400  1.0000
  O   O11       1.0  0.72260  0.84550  0.83400  1.0000
  O   O12       1.0  0.27740  0.15450  0.33400  1.0000
  O   O13       1.0  0.25380  0.65130  0.16600  1.0000
  O   O14       1.0  0.74620  0.34870  0.66600  1.0000
  O   O15       1.0  0.75380  0.84870  0.16600  1.0000
  O   O16       1.0  0.24620  0.15130  0.66600  1.0000
  O   O17       1.0  0.44200  0.69170  0.49380  1.0000
  O   O18       1.0  0.55800  0.30830  0.99380  1.0000
  O   O19       1.0  0.94200  0.80830  0.49380  1.0000
  O   O20       1.0  0.05800  0.19170  0.99380  1.0000
  O   O21       1.0  0.60320  0.78410  0.50410  1.0000
  O   O22       1.0  0.39680  0.21590  0.00410  1.0000
  O   O23       1.0  0.10320  0.71590  0.50410  1.0000
  O   O24       1.0  0.89680  0.28410  0.00410  1.0000
  O   O25       1.0  0.35430  0.51020  0.31690  1.0000
  O   O26       1.0  0.64570  0.48980  0.81690  1.0000
  O   O27       1.0  0.85430  0.98980  0.31690  1.0000
  O   O28       1.0  0.14570  0.01020  0.81690  1.0000
  O   O29       1.0  0.53040  0.43760  0.18600  1.0000
  O   O30       1.0  0.46960  0.56240  0.68600  1.0000
  O   O31       1.0  0.03040  0.06240  0.18600  1.0000
  O   O32       1.0  0.96960  0.93760  0.68600  1.0000
  C   C1        1.0  0.02680  0.47860  0.73810  1.0000
  C   C2        1.0  0.97320  0.52140  0.23810  1.0000
  C   C3        1.0  0.52680  0.02140  0.73810  1.0000
  C   C4        1.0  0.47320  0.97860  0.23810  1.0000
  H   H1        1.0  0.94405  0.50189  0.67795  1.0000
  H   H2        1.0  0.05595  0.49811  0.17795  1.0000
  H   H3        1.0  0.44405  0.99811  0.67795  1.0000
  H   H4        1.0  0.55595  0.00189  0.17795  1.0000
  C   C5        1.0  0.23860  0.62140  1.00000  1.0000
  C   C6        1.0  0.76140  0.37860  0.50000  1.0000
  C   C7        1.0  0.73860  0.87860  1.00000  1.0000
  C   C8        1.0  0.26140  0.12140  0.50000  1.0000
  H   H5        1.0  0.23897  0.57025  0.99666  1.0000
  H   H6        1.0  0.76103  0.42975  0.49666  1.0000
  H   H7        1.0  0.73897  0.92975  0.99666  1.0000
  H   H8        1.0  0.26103  0.07025  0.49666  1.0000
  C   C9        1.0  0.48710  0.75330  0.43760  1.0000
  C   C10       1.0  0.51290  0.24670  0.93760  1.0000
  C   C11       1.0  0.98710  0.74670  0.43760  1.0000
  C   C12       1.0  0.01290  0.25330  0.93760  1.0000
  H   H9        1.0  0.43065  0.77761  0.34024  1.0000
  H   H10       1.0  0.56935  0.22239  0.84024  1.0000
  H   H11       1.0  0.93065  0.72239  0.34024  1.0000
  H   H12       1.0  0.06935  0.27761  0.84024  1.0000
  C   C13       1.0  0.48440  0.49620  0.25400  1.0000
  C   C14       1.0  0.51560  0.50380  0.75400  1.0000
  C   C15       1.0  0.98440  0.00380  0.25400  1.0000
  C   C16       1.0  0.01560  0.99620  0.75400  1.0000
  H   H13       1.0  0.55514  0.53436  0.25942  1.0000
  H   H14       1.0  0.44486  0.46564  0.75942  1.0000
  H   H15       1.0  0.05514  0.96564  0.25942  1.0000
  H   H16       1.0  0.94486  0.03436  0.75942  1.0000
