data_image0
_chemical_formula_structural       In32O256C32H32C32H32C64H32C32H32C64H32C32H32C64H32C32H32C128H32C32H32C64H32C32H32C64H32C32H32C64H32C32H32C96
_chemical_formula_sum              "In32 O256 C896 H512"
_cell_length_a       23.129
_cell_length_b       39.47
_cell_length_c       40.61
_cell_angle_alpha    90
_cell_angle_beta     90
_cell_angle_gamma    90

_space_group_name_H-M_alt    "P 1"
_space_group_IT_number       1

loop_
  _space_group_symop_operation_xyz
  'x, y, z'

loop_
  _atom_site_type_symbol
  _atom_site_label
  _atom_site_symmetry_multiplicity
  _atom_site_fract_x
  _atom_site_fract_y
  _atom_site_fract_z
  _atom_site_occupancy
  In  In1       1.0  0.87500  0.24866  0.37500  1.0000
  In  In2       1.0  0.87500  0.50134  0.37500  1.0000
  In  In3       1.0  0.87500  0.74866  0.87500  1.0000
  In  In4       1.0  0.87500  0.00134  0.87500  1.0000
  In  In5       1.0  0.37500  0.24866  0.87500  1.0000
  In  In6       1.0  0.37500  0.50134  0.87500  1.0000
  In  In7       1.0  0.37500  0.74866  0.37500  1.0000
  In  In8       1.0  0.37500  0.00134  0.37500  1.0000
  In  In9       1.0  0.12500  0.75134  0.62500  1.0000
  In  In10      1.0  0.12500  0.49866  0.62500  1.0000
  In  In11      1.0  0.12500  0.25134  0.12500  1.0000
  In  In12      1.0  0.12500  0.99866  0.12500  1.0000
  In  In13      1.0  0.62500  0.75134  0.12500  1.0000
  In  In14      1.0  0.62500  0.49866  0.12500  1.0000
  In  In15      1.0  0.62500  0.25134  0.62500  1.0000
  In  In16      1.0  0.62500  0.99866  0.62500  1.0000
  In  In17      1.0  0.62500  0.62500  0.38727  1.0000
  In  In18      1.0  0.12500  0.12500  0.38727  1.0000
  In  In19      1.0  0.12500  0.62500  0.36273  1.0000
  In  In20      1.0  0.62500  0.12500  0.36273  1.0000
  In  In21      1.0  0.62500  0.12500  0.88727  1.0000
  In  In22      1.0  0.12500  0.62500  0.88727  1.0000
  In  In23      1.0  0.12500  0.12500  0.86273  1.0000
  In  In24      1.0  0.62500  0.62500  0.86273  1.0000
  In  In25      1.0  0.37500  0.37500  0.61273  1.0000
  In  In26      1.0  0.87500  0.87500  0.61273  1.0000
  In  In27      1.0  0.87500  0.37500  0.63727  1.0000
  In  In28      1.0  0.37500  0.87500  0.63727  1.0000
  In  In29      1.0  0.37500  0.87500  0.11273  1.0000
  In  In30      1.0  0.87500  0.37500  0.11273  1.0000
  In  In31      1.0  0.87500  0.87500  0.13727  1.0000
  In  In32      1.0  0.37500  0.37500  0.13727  1.0000
  O   O1        1.0  0.62403  0.66489  0.34804  1.0000
  O   O2        1.0  0.12597  0.08511  0.34804  1.0000
  O   O3        1.0  0.12597  0.66489  0.40196  1.0000
  O   O4        1.0  0.62403  0.08511  0.40196  1.0000
  O   O5        1.0  0.62403  0.16489  0.84804  1.0000
  O   O6        1.0  0.12597  0.58511  0.84804  1.0000
  O   O7        1.0  0.12597  0.16489  0.90196  1.0000
  O   O8        1.0  0.62403  0.58511  0.90196  1.0000
  O   O9        1.0  0.12403  0.66489  0.84804  1.0000
  O   O10       1.0  0.62597  0.08511  0.84804  1.0000
  O   O11       1.0  0.62597  0.66489  0.90196  1.0000
  O   O12       1.0  0.12403  0.08511  0.90196  1.0000
  O   O13       1.0  0.12403  0.16489  0.34804  1.0000
  O   O14       1.0  0.62597  0.58511  0.34804  1.0000
  O   O15       1.0  0.62597  0.16489  0.40196  1.0000
  O   O16       1.0  0.12403  0.58511  0.40196  1.0000
  O   O17       1.0  0.37597  0.33511  0.65196  1.0000
  O   O18       1.0  0.87403  0.91489  0.65196  1.0000
  O   O19       1.0  0.87403  0.33511  0.59804  1.0000
  O   O20       1.0  0.37597  0.91489  0.59804  1.0000
  O   O21       1.0  0.37597  0.83511  0.15196  1.0000
  O   O22       1.0  0.87403  0.41489  0.15196  1.0000
  O   O23       1.0  0.87403  0.83511  0.09804  1.0000
  O   O24       1.0  0.37597  0.41489  0.09804  1.0000
  O   O25       1.0  0.87597  0.33511  0.15196  1.0000
  O   O26       1.0  0.37403  0.91489  0.15196  1.0000
  O   O27       1.0  0.37403  0.33511  0.09804  1.0000
  O   O28       1.0  0.87597  0.91489  0.09804  1.0000
  O   O29       1.0  0.87597  0.83511  0.65196  1.0000
  O   O30       1.0  0.37403  0.41489  0.65196  1.0000
  O   O31       1.0  0.37403  0.83511  0.59804  1.0000
  O   O32       1.0  0.87597  0.41489  0.59804  1.0000
  O   O33       1.0  0.70849  0.64771  0.36414  1.0000
  O   O34       1.0  0.04151  0.10229  0.36414  1.0000
  O   O35       1.0  0.04151  0.64771  0.38586  1.0000
  O   O36       1.0  0.70849  0.10229  0.38586  1.0000
  O   O37       1.0  0.70849  0.14771  0.86414  1.0000
  O   O38       1.0  0.04151  0.60229  0.86414  1.0000
  O   O39       1.0  0.04151  0.14771  0.88586  1.0000
  O   O40       1.0  0.70849  0.60229  0.88586  1.0000
  O   O41       1.0  0.20849  0.64771  0.86414  1.0000
  O   O42       1.0  0.54151  0.10229  0.86414  1.0000
  O   O43       1.0  0.54151  0.64771  0.88586  1.0000
  O   O44       1.0  0.20849  0.10229  0.88586  1.0000
  O   O45       1.0  0.20849  0.14771  0.36414  1.0000
  O   O46       1.0  0.54151  0.60229  0.36414  1.0000
  O   O47       1.0  0.54151  0.14771  0.38586  1.0000
  O   O48       1.0  0.20849  0.60229  0.38586  1.0000
  O   O49       1.0  0.29151  0.35229  0.63586  1.0000
  O   O50       1.0  0.95849  0.89771  0.63586  1.0000
  O   O51       1.0  0.95849  0.35229  0.61414  1.0000
  O   O52       1.0  0.29151  0.89771  0.61414  1.0000
  O   O53       1.0  0.29151  0.85229  0.13586  1.0000
  O   O54       1.0  0.95849  0.39771  0.13586  1.0000
  O   O55       1.0  0.95849  0.85229  0.11414  1.0000
  O   O56       1.0  0.29151  0.39771  0.11414  1.0000
  O   O57       1.0  0.79151  0.35229  0.13586  1.0000
  O   O58       1.0  0.45849  0.89771  0.13586  1.0000
  O   O59       1.0  0.45849  0.35229  0.11414  1.0000
  O   O60       1.0  0.79151  0.89771  0.11414  1.0000
  O   O61       1.0  0.79151  0.85229  0.63586  1.0000
  O   O62       1.0  0.45849  0.39771  0.63586  1.0000
  O   O63       1.0  0.45849  0.85229  0.61414  1.0000
  O   O64       1.0  0.79151  0.39771  0.61414  1.0000
  O   O65       1.0  0.89711  0.83597  0.18099  1.0000
  O   O66       1.0  0.85289  0.91403  0.18099  1.0000
  O   O67       1.0  0.85289  0.83597  0.56901  1.0000
  O   O68       1.0  0.89711  0.91403  0.56901  1.0000
  O   O69       1.0  0.89711  0.33597  0.68099  1.0000
  O   O70       1.0  0.85289  0.41403  0.68099  1.0000
  O   O71       1.0  0.85289  0.33597  0.06901  1.0000
  O   O72       1.0  0.89711  0.41403  0.06901  1.0000
  O   O73       1.0  0.39711  0.83597  0.68099  1.0000
  O   O74       1.0  0.35289  0.91403  0.68099  1.0000
  O   O75       1.0  0.35289  0.83597  0.06901  1.0000
  O   O76       1.0  0.39711  0.91403  0.06901  1.0000
  O   O77       1.0  0.39711  0.33597  0.18099  1.0000
  O   O78       1.0  0.35289  0.41403  0.18099  1.0000
  O   O79       1.0  0.35289  0.33597  0.56901  1.0000
  O   O80       1.0  0.39711  0.41403  0.56901  1.0000
  O   O81       1.0  0.10289  0.16403  0.81901  1.0000
  O   O82       1.0  0.14711  0.08597  0.81901  1.0000
  O   O83       1.0  0.14711  0.16403  0.43099  1.0000
  O   O84       1.0  0.10289  0.08597  0.43099  1.0000
  O   O85       1.0  0.10289  0.66403  0.31901  1.0000
  O   O86       1.0  0.14711  0.58597  0.31901  1.0000
  O   O87       1.0  0.14711  0.66403  0.93099  1.0000
  O   O88       1.0  0.10289  0.58597  0.93099  1.0000
  O   O89       1.0  0.60289  0.16403  0.31901  1.0000
  O   O90       1.0  0.64711  0.08597  0.31901  1.0000
  O   O91       1.0  0.64711  0.16403  0.93099  1.0000
  O   O92       1.0  0.60289  0.08597  0.93099  1.0000
  O   O93       1.0  0.60289  0.66403  0.81901  1.0000
  O   O94       1.0  0.64711  0.58597  0.81901  1.0000
  O   O95       1.0  0.64711  0.66403  0.43099  1.0000
  O   O96       1.0  0.60289  0.58597  0.43099  1.0000
  O   O97       1.0  0.81132  0.84323  0.16256  1.0000
  O   O98       1.0  0.93868  0.90677  0.16256  1.0000
  O   O99       1.0  0.93868  0.84323  0.58744  1.0000
  O   O100      1.0  0.81132  0.90677  0.58744  1.0000
  O   O101      1.0  0.81132  0.34323  0.66256  1.0000
  O   O102      1.0  0.93868  0.40677  0.66256  1.0000
  O   O103      1.0  0.93868  0.34323  0.08744  1.0000
  O   O104      1.0  0.81132  0.40677  0.08744  1.0000
  O   O105      1.0  0.31132  0.84323  0.66256  1.0000
  O   O106      1.0  0.43868  0.90677  0.66256  1.0000
  O   O107      1.0  0.43868  0.84323  0.08744  1.0000
  O   O108      1.0  0.31132  0.90677  0.08744  1.0000
  O   O109      1.0  0.31132  0.34323  0.16256  1.0000
  O   O110      1.0  0.43868  0.40677  0.16256  1.0000
  O   O111      1.0  0.43868  0.34323  0.58744  1.0000
  O   O112      1.0  0.31132  0.40677  0.58744  1.0000
  O   O113      1.0  0.18868  0.15677  0.83744  1.0000
  O   O114      1.0  0.06132  0.09323  0.83744  1.0000
  O   O115      1.0  0.06132  0.15677  0.41256  1.0000
  O   O116      1.0  0.18868  0.09323  0.41256  1.0000
  O   O117      1.0  0.18868  0.65677  0.33744  1.0000
  O   O118      1.0  0.06132  0.59323  0.33744  1.0000
  O   O119      1.0  0.06132  0.65677  0.91256  1.0000
  O   O120      1.0  0.18868  0.59323  0.91256  1.0000
  O   O121      1.0  0.68868  0.15677  0.33744  1.0000
  O   O122      1.0  0.56132  0.09323  0.33744  1.0000
  O   O123      1.0  0.56132  0.15677  0.91256  1.0000
  O   O124      1.0  0.68868  0.09323  0.91256  1.0000
  O   O125      1.0  0.68868  0.65677  0.83744  1.0000
  O   O126      1.0  0.56132  0.59323  0.83744  1.0000
  O   O127      1.0  0.56132  0.65677  0.41256  1.0000
  O   O128      1.0  0.68868  0.59323  0.41256  1.0000
  O   O129      1.0  0.94754  0.27871  0.39685  1.0000
  O   O130      1.0  0.80246  0.47129  0.39685  1.0000
  O   O131      1.0  0.80246  0.27871  0.35315  1.0000
  O   O132      1.0  0.94754  0.47129  0.35315  1.0000
  O   O133      1.0  0.94754  0.77871  0.89685  1.0000
  O   O134      1.0  0.80246  0.97129  0.89685  1.0000
  O   O135      1.0  0.80246  0.77871  0.85315  1.0000
  O   O136      1.0  0.94754  0.97129  0.85315  1.0000
  O   O137      1.0  0.44754  0.27871  0.89685  1.0000
  O   O138      1.0  0.30246  0.47129  0.89685  1.0000
  O   O139      1.0  0.30246  0.27871  0.85315  1.0000
  O   O140      1.0  0.44754  0.47129  0.85315  1.0000
  O   O141      1.0  0.44754  0.77871  0.39685  1.0000
  O   O142      1.0  0.30246  0.97129  0.39685  1.0000
  O   O143      1.0  0.30246  0.77871  0.35315  1.0000
  O   O144      1.0  0.44754  0.97129  0.35315  1.0000
  O   O145      1.0  0.05246  0.72129  0.60315  1.0000
  O   O146      1.0  0.19754  0.52871  0.60315  1.0000
  O   O147      1.0  0.19754  0.72129  0.64685  1.0000
  O   O148      1.0  0.05246  0.52871  0.64685  1.0000
  O   O149      1.0  0.05246  0.22129  0.10315  1.0000
  O   O150      1.0  0.19754  0.02871  0.10315  1.0000
  O   O151      1.0  0.19754  0.22129  0.14685  1.0000
  O   O152      1.0  0.05246  0.02871  0.14685  1.0000
  O   O153      1.0  0.55246  0.72129  0.10315  1.0000
  O   O154      1.0  0.69754  0.52871  0.10315  1.0000
  O   O155      1.0  0.69754  0.72129  0.14685  1.0000
  O   O156      1.0  0.55246  0.52871  0.14685  1.0000
  O   O157      1.0  0.55246  0.22129  0.60315  1.0000
  O   O158      1.0  0.69754  0.02871  0.60315  1.0000
  O   O159      1.0  0.69754  0.22129  0.64685  1.0000
  O   O160      1.0  0.55246  0.02871  0.64685  1.0000
  O   O161      1.0  0.86686  0.28670  0.41831  1.0000
  O   O162      1.0  0.88314  0.46330  0.41831  1.0000
  O   O163      1.0  0.88314  0.28670  0.33169  1.0000
  O   O164      1.0  0.86686  0.46330  0.33169  1.0000
  O   O165      1.0  0.86686  0.78670  0.91831  1.0000
  O   O166      1.0  0.88314  0.96330  0.91831  1.0000
  O   O167      1.0  0.88314  0.78670  0.83169  1.0000
  O   O168      1.0  0.86686  0.96330  0.83169  1.0000
  O   O169      1.0  0.36686  0.28670  0.91831  1.0000
  O   O170      1.0  0.38314  0.46330  0.91831  1.0000
  O   O171      1.0  0.38314  0.28670  0.83169  1.0000
  O   O172      1.0  0.36686  0.46330  0.83169  1.0000
  O   O173      1.0  0.36686  0.78670  0.41831  1.0000
  O   O174      1.0  0.38314  0.96330  0.41831  1.0000
  O   O175      1.0  0.38314  0.78670  0.33169  1.0000
  O   O176      1.0  0.36686  0.96330  0.33169  1.0000
  O   O177      1.0  0.13314  0.71330  0.58169  1.0000
  O   O178      1.0  0.11686  0.53670  0.58169  1.0000
  O   O179      1.0  0.11686  0.71330  0.66831  1.0000
  O   O180      1.0  0.13314  0.53670  0.66831  1.0000
  O   O181      1.0  0.13314  0.21330  0.08169  1.0000
  O   O182      1.0  0.11686  0.03670  0.08169  1.0000
  O   O183      1.0  0.11686  0.21330  0.16831  1.0000
  O   O184      1.0  0.13314  0.03670  0.16831  1.0000
  O   O185      1.0  0.63314  0.71330  0.08169  1.0000
  O   O186      1.0  0.61686  0.53670  0.08169  1.0000
  O   O187      1.0  0.61686  0.71330  0.16831  1.0000
  O   O188      1.0  0.63314  0.53670  0.16831  1.0000
  O   O189      1.0  0.63314  0.21330  0.58169  1.0000
  O   O190      1.0  0.61686  0.03670  0.58169  1.0000
  O   O191      1.0  0.61686  0.21330  0.66831  1.0000
  O   O192      1.0  0.63314  0.03670  0.66831  1.0000
  O   O193      1.0  0.13825  0.45873  0.58373  1.0000
  O   O194      1.0  0.61175  0.29127  0.58373  1.0000
  O   O195      1.0  0.61175  0.45873  0.16627  1.0000
  O   O196      1.0  0.13825  0.29127  0.16627  1.0000
  O   O197      1.0  0.13825  0.95873  0.08373  1.0000
  O   O198      1.0  0.61175  0.79127  0.08373  1.0000
  O   O199      1.0  0.61175  0.95873  0.66627  1.0000
  O   O200      1.0  0.13825  0.79127  0.66627  1.0000
  O   O201      1.0  0.63825  0.45873  0.08373  1.0000
  O   O202      1.0  0.11175  0.29127  0.08373  1.0000
  O   O203      1.0  0.11175  0.45873  0.66627  1.0000
  O   O204      1.0  0.63825  0.29127  0.66627  1.0000
  O   O205      1.0  0.63825  0.95873  0.58373  1.0000
  O   O206      1.0  0.11175  0.79127  0.58373  1.0000
  O   O207      1.0  0.11175  0.95873  0.16627  1.0000
  O   O208      1.0  0.63825  0.79127  0.16627  1.0000
  O   O209      1.0  0.86175  0.54127  0.41627  1.0000
  O   O210      1.0  0.38825  0.70873  0.41627  1.0000
  O   O211      1.0  0.38825  0.54127  0.83373  1.0000
  O   O212      1.0  0.86175  0.70873  0.83373  1.0000
  O   O213      1.0  0.86175  0.04127  0.91627  1.0000
  O   O214      1.0  0.38825  0.20873  0.91627  1.0000
  O   O215      1.0  0.38825  0.04127  0.33373  1.0000
  O   O216      1.0  0.86175  0.20873  0.33373  1.0000
  O   O217      1.0  0.36175  0.54127  0.91627  1.0000
  O   O218      1.0  0.88825  0.70873  0.91627  1.0000
  O   O219      1.0  0.88825  0.54127  0.33373  1.0000
  O   O220      1.0  0.36175  0.70873  0.33373  1.0000
  O   O221      1.0  0.36175  0.04127  0.41627  1.0000
  O   O222      1.0  0.88825  0.20873  0.41627  1.0000
  O   O223      1.0  0.88825  0.04127  0.83373  1.0000
  O   O224      1.0  0.36175  0.20873  0.83373  1.0000
  O   O225      1.0  0.05225  0.47103  0.60078  1.0000
  O   O226      1.0  0.69775  0.27897  0.60078  1.0000
  O   O227      1.0  0.69775  0.47103  0.14922  1.0000
  O   O228      1.0  0.05225  0.27897  0.14922  1.0000
  O   O229      1.0  0.05225  0.97103  0.10078  1.0000
  O   O230      1.0  0.69775  0.77897  0.10078  1.0000
  O   O231      1.0  0.69775  0.97103  0.64922  1.0000
  O   O232      1.0  0.05225  0.77897  0.64922  1.0000
  O   O233      1.0  0.55225  0.47103  0.10078  1.0000
  O   O234      1.0  0.19775  0.27897  0.10078  1.0000
  O   O235      1.0  0.19775  0.47103  0.64922  1.0000
  O   O236      1.0  0.55225  0.27897  0.64922  1.0000
  O   O237      1.0  0.55225  0.97103  0.60078  1.0000
  O   O238      1.0  0.19775  0.77897  0.60078  1.0000
  O   O239      1.0  0.19775  0.97103  0.14922  1.0000
  O   O240      1.0  0.55225  0.77897  0.14922  1.0000
  O   O241      1.0  0.94775  0.52897  0.39922  1.0000
  O   O242      1.0  0.30225  0.72103  0.39922  1.0000
  O   O243      1.0  0.30225  0.52897  0.85078  1.0000
  O   O244      1.0  0.94775  0.72103  0.85078  1.0000
  O   O245      1.0  0.94775  0.02897  0.89922  1.0000
  O   O246      1.0  0.30225  0.22103  0.89922  1.0000
  O   O247      1.0  0.30225  0.02897  0.35078  1.0000
  O   O248      1.0  0.94775  0.22103  0.35078  1.0000
  O   O249      1.0  0.44775  0.52897  0.89922  1.0000
  O   O250      1.0  0.80225  0.72103  0.89922  1.0000
  O   O251      1.0  0.80225  0.52897  0.35078  1.0000
  O   O252      1.0  0.44775  0.72103  0.35078  1.0000
  O   O253      1.0  0.44775  0.02897  0.39922  1.0000
  O   O254      1.0  0.80225  0.22103  0.39922  1.0000
  O   O255      1.0  0.80225  0.02897  0.85078  1.0000
  O   O256      1.0  0.44775  0.22103  0.85078  1.0000
  C   C1        1.0  0.67120  0.71319  0.30564  1.0000
  C   C2        1.0  0.07880  0.03681  0.30564  1.0000
  C   C3        1.0  0.07880  0.71319  0.44436  1.0000
  C   C4        1.0  0.67120  0.03681  0.44436  1.0000
  C   C5        1.0  0.67120  0.21319  0.80564  1.0000
  C   C6        1.0  0.07880  0.53681  0.80564  1.0000
  C   C7        1.0  0.07880  0.21319  0.94436  1.0000
  C   C8        1.0  0.67120  0.53681  0.94436  1.0000
  C   C9        1.0  0.17120  0.71319  0.80564  1.0000
  C   C10       1.0  0.57880  0.03681  0.80564  1.0000
  C   C11       1.0  0.57880  0.71319  0.94436  1.0000
  C   C12       1.0  0.17120  0.03681  0.94436  1.0000
  C   C13       1.0  0.17120  0.21319  0.30564  1.0000
  C   C14       1.0  0.57880  0.53681  0.30564  1.0000
  C   C15       1.0  0.57880  0.21319  0.44436  1.0000
  C   C16       1.0  0.17120  0.53681  0.44436  1.0000
  C   C17       1.0  0.32880  0.28681  0.69436  1.0000
  C   C18       1.0  0.92120  0.96319  0.69436  1.0000
  C   C19       1.0  0.92120  0.28681  0.55564  1.0000
  C   C20       1.0  0.32880  0.96319  0.55564  1.0000
  C   C21       1.0  0.32880  0.78681  0.19436  1.0000
  C   C22       1.0  0.92120  0.46319  0.19436  1.0000
  C   C23       1.0  0.92120  0.78681  0.05564  1.0000
  C   C24       1.0  0.32880  0.46319  0.05564  1.0000
  C   C25       1.0  0.82880  0.28681  0.19436  1.0000
  C   C26       1.0  0.42120  0.96319  0.19436  1.0000
  C   C27       1.0  0.42120  0.28681  0.05564  1.0000
  C   C28       1.0  0.82880  0.96319  0.05564  1.0000
  C   C29       1.0  0.82880  0.78681  0.69436  1.0000
  C   C30       1.0  0.42120  0.46319  0.69436  1.0000
  C   C31       1.0  0.42120  0.78681  0.55564  1.0000
  C   C32       1.0  0.82880  0.46319  0.55564  1.0000
  H   H1        1.0  0.63140  0.71380  0.30910  1.0000
  H   H2        1.0  0.11860  0.03620  0.30910  1.0000
  H   H3        1.0  0.11860  0.71380  0.44090  1.0000
  H   H4        1.0  0.63140  0.03620  0.44090  1.0000
  H   H5        1.0  0.63140  0.21380  0.80910  1.0000
  H   H6        1.0  0.11860  0.53620  0.80910  1.0000
  H   H7        1.0  0.11860  0.21380  0.94090  1.0000
  H   H8        1.0  0.63140  0.53620  0.94090  1.0000
  H   H9        1.0  0.13140  0.71380  0.80910  1.0000
  H   H10       1.0  0.61860  0.03620  0.80910  1.0000
  H   H11       1.0  0.61860  0.71380  0.94090  1.0000
  H   H12       1.0  0.13140  0.03620  0.94090  1.0000
  H   H13       1.0  0.13140  0.21380  0.30910  1.0000
  H   H14       1.0  0.61860  0.53620  0.30910  1.0000
  H   H15       1.0  0.61860  0.21380  0.44090  1.0000
  H   H16       1.0  0.13140  0.53620  0.44090  1.0000
  H   H17       1.0  0.36860  0.28620  0.69090  1.0000
  H   H18       1.0  0.88140  0.96380  0.69090  1.0000
  H   H19       1.0  0.88140  0.28620  0.55910  1.0000
  H   H20       1.0  0.36860  0.96380  0.55910  1.0000
  H   H21       1.0  0.36860  0.78620  0.19090  1.0000
  H   H22       1.0  0.88140  0.46380  0.19090  1.0000
  H   H23       1.0  0.88140  0.78620  0.05910  1.0000
  H   H24       1.0  0.36860  0.46380  0.05910  1.0000
  H   H25       1.0  0.86860  0.28620  0.19090  1.0000
  H   H26       1.0  0.38140  0.96380  0.19090  1.0000
  H   H27       1.0  0.38140  0.28620  0.05910  1.0000
  H   H28       1.0  0.86860  0.96380  0.05910  1.0000
  H   H29       1.0  0.86860  0.78620  0.69090  1.0000
  H   H30       1.0  0.38140  0.46380  0.69090  1.0000
  H   H31       1.0  0.38140  0.78620  0.55910  1.0000
  H   H32       1.0  0.86860  0.46380  0.55910  1.0000
  C   C33       1.0  0.69640  0.73519  0.28359  1.0000
  C   C34       1.0  0.05360  0.01481  0.28359  1.0000
  C   C35       1.0  0.05360  0.73519  0.46641  1.0000
  C   C36       1.0  0.69640  0.01481  0.46641  1.0000
  C   C37       1.0  0.69640  0.23519  0.78359  1.0000
  C   C38       1.0  0.05360  0.51481  0.78359  1.0000
  C   C39       1.0  0.05360  0.23519  0.96641  1.0000
  C   C40       1.0  0.69640  0.51481  0.96641  1.0000
  C   C41       1.0  0.19640  0.73519  0.78359  1.0000
  C   C42       1.0  0.55360  0.01481  0.78359  1.0000
  C   C43       1.0  0.55360  0.73519  0.96641  1.0000
  C   C44       1.0  0.19640  0.01481  0.96641  1.0000
  C   C45       1.0  0.19640  0.23519  0.28359  1.0000
  C   C46       1.0  0.55360  0.51481  0.28359  1.0000
  C   C47       1.0  0.55360  0.23519  0.46641  1.0000
  C   C48       1.0  0.19640  0.51481  0.46641  1.0000
  C   C49       1.0  0.30360  0.26481  0.71641  1.0000
  C   C50       1.0  0.94640  0.98519  0.71641  1.0000
  C   C51       1.0  0.94640  0.26481  0.53359  1.0000
  C   C52       1.0  0.30360  0.98519  0.53359  1.0000
  C   C53       1.0  0.30360  0.76481  0.21641  1.0000
  C   C54       1.0  0.94640  0.48519  0.21641  1.0000
  C   C55       1.0  0.94640  0.76481  0.03359  1.0000
  C   C56       1.0  0.30360  0.48519  0.03359  1.0000
  C   C57       1.0  0.80360  0.26481  0.21641  1.0000
  C   C58       1.0  0.44640  0.98519  0.21641  1.0000
  C   C59       1.0  0.44640  0.26481  0.03359  1.0000
  C   C60       1.0  0.80360  0.98519  0.03359  1.0000
  C   C61       1.0  0.80360  0.76481  0.71641  1.0000
  C   C62       1.0  0.44640  0.48519  0.71641  1.0000
  C   C63       1.0  0.44640  0.76481  0.53359  1.0000
  C   C64       1.0  0.80360  0.48519  0.53359  1.0000
  H   H33       1.0  0.67320  0.75070  0.27260  1.0000
  H   H34       1.0  0.07680  0.99930  0.27260  1.0000
  H   H35       1.0  0.07680  0.75070  0.47740  1.0000
  H   H36       1.0  0.67320  0.99930  0.47740  1.0000
  H   H37       1.0  0.67320  0.25070  0.77260  1.0000
  H   H38       1.0  0.07680  0.49930  0.77260  1.0000
  H   H39       1.0  0.07680  0.25070  0.97740  1.0000
  H   H40       1.0  0.67320  0.49930  0.97740  1.0000
  H   H41       1.0  0.17320  0.75070  0.77260  1.0000
  H   H42       1.0  0.57680  0.99930  0.77260  1.0000
  H   H43       1.0  0.57680  0.75070  0.97740  1.0000
  H   H44       1.0  0.17320  0.99930  0.97740  1.0000
  H   H45       1.0  0.17320  0.25070  0.27260  1.0000
  H   H46       1.0  0.57680  0.49930  0.27260  1.0000
  H   H47       1.0  0.57680  0.25070  0.47740  1.0000
  H   H48       1.0  0.17320  0.49930  0.47740  1.0000
  H   H49       1.0  0.32680  0.24930  0.72740  1.0000
  H   H50       1.0  0.92320  0.00070  0.72740  1.0000
  H   H51       1.0  0.92320  0.24930  0.52260  1.0000
  H   H52       1.0  0.32680  0.00070  0.52260  1.0000
  H   H53       1.0  0.32680  0.74930  0.22740  1.0000
  H   H54       1.0  0.92320  0.50070  0.22740  1.0000
  H   H55       1.0  0.92320  0.74930  0.02260  1.0000
  H   H56       1.0  0.32680  0.50070  0.02260  1.0000
  H   H57       1.0  0.82680  0.24930  0.22740  1.0000
  H   H58       1.0  0.42320  0.00070  0.22740  1.0000
  H   H59       1.0  0.42320  0.24930  0.02260  1.0000
  H   H60       1.0  0.82680  0.00070  0.02260  1.0000
  H   H61       1.0  0.82680  0.74930  0.72740  1.0000
  H   H62       1.0  0.42320  0.50070  0.72740  1.0000
  H   H63       1.0  0.42320  0.74930  0.52260  1.0000
  H   H64       1.0  0.82680  0.50070  0.52260  1.0000
  C   C65       1.0  0.75510  0.73491  0.27726  1.0000
  C   C66       1.0  0.99490  0.01509  0.27726  1.0000
  C   C67       1.0  0.99490  0.73491  0.47274  1.0000
  C   C68       1.0  0.75510  0.01509  0.47274  1.0000
  C   C69       1.0  0.75510  0.23491  0.77726  1.0000
  C   C70       1.0  0.99490  0.51509  0.77726  1.0000
  C   C71       1.0  0.99490  0.23491  0.97274  1.0000
  C   C72       1.0  0.75510  0.51509  0.97274  1.0000
  C   C73       1.0  0.25510  0.73491  0.77726  1.0000
  C   C74       1.0  0.49490  0.01509  0.77726  1.0000
  C   C75       1.0  0.49490  0.73491  0.97274  1.0000
  C   C76       1.0  0.25510  0.01509  0.97274  1.0000
  C   C77       1.0  0.25510  0.23491  0.27726  1.0000
  C   C78       1.0  0.49490  0.51509  0.27726  1.0000
  C   C79       1.0  0.49490  0.23491  0.47274  1.0000
  C   C80       1.0  0.25510  0.51509  0.47274  1.0000
  C   C81       1.0  0.24490  0.26509  0.72274  1.0000
  C   C82       1.0  0.00510  0.98491  0.72274  1.0000
  C   C83       1.0  0.00510  0.26509  0.52726  1.0000
  C   C84       1.0  0.24490  0.98491  0.52726  1.0000
  C   C85       1.0  0.24490  0.76509  0.22274  1.0000
  C   C86       1.0  0.00510  0.48491  0.22274  1.0000
  C   C87       1.0  0.00510  0.76509  0.02726  1.0000
  C   C88       1.0  0.24490  0.48491  0.02726  1.0000
  C   C89       1.0  0.74490  0.26509  0.22274  1.0000
  C   C90       1.0  0.50510  0.98491  0.22274  1.0000
  C   C91       1.0  0.50510  0.26509  0.02726  1.0000
  C   C92       1.0  0.74490  0.98491  0.02726  1.0000
  C   C93       1.0  0.74490  0.76509  0.72274  1.0000
  C   C94       1.0  0.50510  0.48491  0.72274  1.0000
  C   C95       1.0  0.50510  0.76509  0.52726  1.0000
  C   C96       1.0  0.74490  0.48491  0.52726  1.0000
  C   C97       1.0  0.78810  0.71128  0.29398  1.0000
  C   C98       1.0  0.96190  0.03872  0.29398  1.0000
  C   C99       1.0  0.96190  0.71128  0.45602  1.0000
  C   C100      1.0  0.78810  0.03872  0.45602  1.0000
  C   C101      1.0  0.78810  0.21128  0.79398  1.0000
  C   C102      1.0  0.96190  0.53872  0.79398  1.0000
  C   C103      1.0  0.96190  0.21128  0.95602  1.0000
  C   C104      1.0  0.78810  0.53872  0.95602  1.0000
  C   C105      1.0  0.28810  0.71128  0.79398  1.0000
  C   C106      1.0  0.46190  0.03872  0.79398  1.0000
  C   C107      1.0  0.46190  0.71128  0.95602  1.0000
  C   C108      1.0  0.28810  0.03872  0.95602  1.0000
  C   C109      1.0  0.28810  0.21128  0.29398  1.0000
  C   C110      1.0  0.46190  0.53872  0.29398  1.0000
  C   C111      1.0  0.46190  0.21128  0.45602  1.0000
  C   C112      1.0  0.28810  0.53872  0.45602  1.0000
  C   C113      1.0  0.21190  0.28872  0.70602  1.0000
  C   C114      1.0  0.03810  0.96128  0.70602  1.0000
  C   C115      1.0  0.03810  0.28872  0.54398  1.0000
  C   C116      1.0  0.21190  0.96128  0.54398  1.0000
  C   C117      1.0  0.21190  0.78872  0.20602  1.0000
  C   C118      1.0  0.03810  0.46128  0.20602  1.0000
  C   C119      1.0  0.03810  0.78872  0.04398  1.0000
  C   C120      1.0  0.21190  0.46128  0.04398  1.0000
  C   C121      1.0  0.71190  0.28872  0.20602  1.0000
  C   C122      1.0  0.53810  0.96128  0.20602  1.0000
  C   C123      1.0  0.53810  0.28872  0.04398  1.0000
  C   C124      1.0  0.71190  0.96128  0.04398  1.0000
  C   C125      1.0  0.71190  0.78872  0.70602  1.0000
  C   C126      1.0  0.53810  0.46128  0.70602  1.0000
  C   C127      1.0  0.53810  0.78872  0.54398  1.0000
  C   C128      1.0  0.71190  0.46128  0.54398  1.0000
  H   H65       1.0  0.82760  0.70970  0.29000  1.0000
  H   H66       1.0  0.92240  0.04030  0.29000  1.0000
  H   H67       1.0  0.92240  0.70970  0.46000  1.0000
  H   H68       1.0  0.82760  0.04030  0.46000  1.0000
  H   H69       1.0  0.82760  0.20970  0.79000  1.0000
  H   H70       1.0  0.92240  0.54030  0.79000  1.0000
  H   H71       1.0  0.92240  0.20970  0.96000  1.0000
  H   H72       1.0  0.82760  0.54030  0.96000  1.0000
  H   H73       1.0  0.32760  0.70970  0.79000  1.0000
  H   H74       1.0  0.42240  0.04030  0.79000  1.0000
  H   H75       1.0  0.42240  0.70970  0.96000  1.0000
  H   H76       1.0  0.32760  0.04030  0.96000  1.0000
  H   H77       1.0  0.32760  0.20970  0.29000  1.0000
  H   H78       1.0  0.42240  0.54030  0.29000  1.0000
  H   H79       1.0  0.42240  0.20970  0.46000  1.0000
  H   H80       1.0  0.32760  0.54030  0.46000  1.0000
  H   H81       1.0  0.17240  0.29030  0.71000  1.0000
  H   H82       1.0  0.07760  0.95970  0.71000  1.0000
  H   H83       1.0  0.07760  0.29030  0.54000  1.0000
  H   H84       1.0  0.17240  0.95970  0.54000  1.0000
  H   H85       1.0  0.17240  0.79030  0.21000  1.0000
  H   H86       1.0  0.07760  0.45970  0.21000  1.0000
  H   H87       1.0  0.07760  0.79030  0.04000  1.0000
  H   H88       1.0  0.17240  0.45970  0.04000  1.0000
  H   H89       1.0  0.67240  0.29030  0.21000  1.0000
  H   H90       1.0  0.57760  0.95970  0.21000  1.0000
  H   H91       1.0  0.57760  0.29030  0.04000  1.0000
  H   H92       1.0  0.67240  0.95970  0.04000  1.0000
  H   H93       1.0  0.67240  0.79030  0.71000  1.0000
  H   H94       1.0  0.57760  0.45970  0.71000  1.0000
  H   H95       1.0  0.57760  0.79030  0.54000  1.0000
  H   H96       1.0  0.67240  0.45970  0.54000  1.0000
  C   C129      1.0  0.76270  0.69034  0.31635  1.0000
  C   C130      1.0  0.98730  0.05966  0.31635  1.0000
  C   C131      1.0  0.98730  0.69034  0.43365  1.0000
  C   C132      1.0  0.76270  0.05966  0.43365  1.0000
  C   C133      1.0  0.76270  0.19034  0.81635  1.0000
  C   C134      1.0  0.98730  0.55966  0.81635  1.0000
  C   C135      1.0  0.98730  0.19034  0.93365  1.0000
  C   C136      1.0  0.76270  0.55966  0.93365  1.0000
  C   C137      1.0  0.26270  0.69034  0.81635  1.0000
  C   C138      1.0  0.48730  0.05966  0.81635  1.0000
  C   C139      1.0  0.48730  0.69034  0.93365  1.0000
  C   C140      1.0  0.26270  0.05966  0.93365  1.0000
  C   C141      1.0  0.26270  0.19034  0.31635  1.0000
  C   C142      1.0  0.48730  0.55966  0.31635  1.0000
  C   C143      1.0  0.48730  0.19034  0.43365  1.0000
  C   C144      1.0  0.26270  0.55966  0.43365  1.0000
  C   C145      1.0  0.23730  0.30966  0.68365  1.0000
  C   C146      1.0  0.01270  0.94034  0.68365  1.0000
  C   C147      1.0  0.01270  0.30966  0.56635  1.0000
  C   C148      1.0  0.23730  0.94034  0.56635  1.0000
  C   C149      1.0  0.23730  0.80966  0.18365  1.0000
  C   C150      1.0  0.01270  0.44034  0.18365  1.0000
  C   C151      1.0  0.01270  0.80966  0.06635  1.0000
  C   C152      1.0  0.23730  0.44034  0.06635  1.0000
  C   C153      1.0  0.73730  0.30966  0.18365  1.0000
  C   C154      1.0  0.51270  0.94034  0.18365  1.0000
  C   C155      1.0  0.51270  0.30966  0.06635  1.0000
  C   C156      1.0  0.73730  0.94034  0.06635  1.0000
  C   C157      1.0  0.73730  0.80966  0.68365  1.0000
  C   C158      1.0  0.51270  0.44034  0.68365  1.0000
  C   C159      1.0  0.51270  0.80966  0.56635  1.0000
  C   C160      1.0  0.73730  0.44034  0.56635  1.0000
  H   H97       1.0  0.78610  0.67530  0.32800  1.0000
  H   H98       1.0  0.96390  0.07470  0.32800  1.0000
  H   H99       1.0  0.96390  0.67530  0.42200  1.0000
  H   H100      1.0  0.78610  0.07470  0.42200  1.0000
  H   H101      1.0  0.78610  0.17530  0.82800  1.0000
  H   H102      1.0  0.96390  0.57470  0.82800  1.0000
  H   H103      1.0  0.96390  0.17530  0.92200  1.0000
  H   H104      1.0  0.78610  0.57470  0.92200  1.0000
  H   H105      1.0  0.28610  0.67530  0.82800  1.0000
  H   H106      1.0  0.46390  0.07470  0.82800  1.0000
  H   H107      1.0  0.46390  0.67530  0.92200  1.0000
  H   H108      1.0  0.28610  0.07470  0.92200  1.0000
  H   H109      1.0  0.28610  0.17530  0.32800  1.0000
  H   H110      1.0  0.46390  0.57470  0.32800  1.0000
  H   H111      1.0  0.46390  0.17530  0.42200  1.0000
  H   H112      1.0  0.28610  0.57470  0.42200  1.0000
  H   H113      1.0  0.21390  0.32470  0.67200  1.0000
  H   H114      1.0  0.03610  0.92530  0.67200  1.0000
  H   H115      1.0  0.03610  0.32470  0.57800  1.0000
  H   H116      1.0  0.21390  0.92530  0.57800  1.0000
  H   H117      1.0  0.21390  0.82470  0.17200  1.0000
  H   H118      1.0  0.03610  0.42530  0.17200  1.0000
  H   H119      1.0  0.03610  0.82470  0.07800  1.0000
  H   H120      1.0  0.21390  0.42530  0.07800  1.0000
  H   H121      1.0  0.71390  0.32470  0.17200  1.0000
  H   H122      1.0  0.53610  0.92530  0.17200  1.0000
  H   H123      1.0  0.53610  0.32470  0.07800  1.0000
  H   H124      1.0  0.71390  0.92530  0.07800  1.0000
  H   H125      1.0  0.71390  0.82470  0.67200  1.0000
  H   H126      1.0  0.53610  0.42530  0.67200  1.0000
  H   H127      1.0  0.53610  0.82470  0.57800  1.0000
  H   H128      1.0  0.71390  0.42530  0.57800  1.0000
  C   C161      1.0  0.70490  0.69021  0.32261  1.0000
  C   C162      1.0  0.04510  0.05979  0.32261  1.0000
  C   C163      1.0  0.04510  0.69021  0.42739  1.0000
  C   C164      1.0  0.70490  0.05979  0.42739  1.0000
  C   C165      1.0  0.70490  0.19021  0.82261  1.0000
  C   C166      1.0  0.04510  0.55979  0.82261  1.0000
  C   C167      1.0  0.04510  0.19021  0.92739  1.0000
  C   C168      1.0  0.70490  0.55979  0.92739  1.0000
  C   C169      1.0  0.20490  0.69021  0.82261  1.0000
  C   C170      1.0  0.54510  0.05979  0.82261  1.0000
  C   C171      1.0  0.54510  0.69021  0.92739  1.0000
  C   C172      1.0  0.20490  0.05979  0.92739  1.0000
  C   C173      1.0  0.20490  0.19021  0.32261  1.0000
  C   C174      1.0  0.54510  0.55979  0.32261  1.0000
  C   C175      1.0  0.54510  0.19021  0.42739  1.0000
  C   C176      1.0  0.20490  0.55979  0.42739  1.0000
  C   C177      1.0  0.29510  0.30979  0.67739  1.0000
  C   C178      1.0  0.95490  0.94021  0.67739  1.0000
  C   C179      1.0  0.95490  0.30979  0.57261  1.0000
  C   C180      1.0  0.29510  0.94021  0.57261  1.0000
  C   C181      1.0  0.29510  0.80979  0.17739  1.0000
  C   C182      1.0  0.95490  0.44021  0.17739  1.0000
  C   C183      1.0  0.95490  0.80979  0.07261  1.0000
  C   C184      1.0  0.29510  0.44021  0.07261  1.0000
  C   C185      1.0  0.79510  0.30979  0.17739  1.0000
  C   C186      1.0  0.45490  0.94021  0.17739  1.0000
  C   C187      1.0  0.45490  0.30979  0.07261  1.0000
  C   C188      1.0  0.79510  0.94021  0.07261  1.0000
  C   C189      1.0  0.79510  0.80979  0.67739  1.0000
  C   C190      1.0  0.45490  0.44021  0.67739  1.0000
  C   C191      1.0  0.45490  0.80979  0.57261  1.0000
  C   C192      1.0  0.79510  0.44021  0.57261  1.0000
  C   C193      1.0  0.85910  0.79221  0.23157  1.0000
  C   C194      1.0  0.89090  0.95779  0.23157  1.0000
  C   C195      1.0  0.89090  0.79221  0.51843  1.0000
  C   C196      1.0  0.85910  0.95779  0.51843  1.0000
  C   C197      1.0  0.85910  0.29221  0.73157  1.0000
  C   C198      1.0  0.89090  0.45779  0.73157  1.0000
  C   C199      1.0  0.89090  0.29221  0.01843  1.0000
  C   C200      1.0  0.85910  0.45779  0.01843  1.0000
  C   C201      1.0  0.35910  0.79221  0.73157  1.0000
  C   C202      1.0  0.39090  0.95779  0.73157  1.0000
  C   C203      1.0  0.39090  0.79221  0.01843  1.0000
  C   C204      1.0  0.35910  0.95779  0.01843  1.0000
  C   C205      1.0  0.35910  0.29221  0.23157  1.0000
  C   C206      1.0  0.39090  0.45779  0.23157  1.0000
  C   C207      1.0  0.39090  0.29221  0.51843  1.0000
  C   C208      1.0  0.35910  0.45779  0.51843  1.0000
  C   C209      1.0  0.14090  0.20779  0.76843  1.0000
  C   C210      1.0  0.10910  0.04221  0.76843  1.0000
  C   C211      1.0  0.10910  0.20779  0.48157  1.0000
  C   C212      1.0  0.14090  0.04221  0.48157  1.0000
  C   C213      1.0  0.14090  0.70779  0.26843  1.0000
  C   C214      1.0  0.10910  0.54221  0.26843  1.0000
  C   C215      1.0  0.10910  0.70779  0.98157  1.0000
  C   C216      1.0  0.14090  0.54221  0.98157  1.0000
  C   C217      1.0  0.64090  0.20779  0.26843  1.0000
  C   C218      1.0  0.60910  0.04221  0.26843  1.0000
  C   C219      1.0  0.60910  0.20779  0.98157  1.0000
  C   C220      1.0  0.64090  0.04221  0.98157  1.0000
  C   C221      1.0  0.64090  0.70779  0.76843  1.0000
  C   C222      1.0  0.60910  0.54221  0.76843  1.0000
  C   C223      1.0  0.60910  0.70779  0.48157  1.0000
  C   C224      1.0  0.64090  0.54221  0.48157  1.0000
  H   H129      1.0  0.89730  0.79920  0.23310  1.0000
  H   H130      1.0  0.85270  0.95080  0.23310  1.0000
  H   H131      1.0  0.85270  0.79920  0.51690  1.0000
  H   H132      1.0  0.89730  0.95080  0.51690  1.0000
  H   H133      1.0  0.89730  0.29920  0.73310  1.0000
  H   H134      1.0  0.85270  0.45080  0.73310  1.0000
  H   H135      1.0  0.85270  0.29920  0.01690  1.0000
  H   H136      1.0  0.89730  0.45080  0.01690  1.0000
  H   H137      1.0  0.39730  0.79920  0.73310  1.0000
  H   H138      1.0  0.35270  0.95080  0.73310  1.0000
  H   H139      1.0  0.35270  0.79920  0.01690  1.0000
  H   H140      1.0  0.39730  0.95080  0.01690  1.0000
  H   H141      1.0  0.39730  0.29920  0.23310  1.0000
  H   H142      1.0  0.35270  0.45080  0.23310  1.0000
  H   H143      1.0  0.35270  0.29920  0.51690  1.0000
  H   H144      1.0  0.39730  0.45080  0.51690  1.0000
  H   H145      1.0  0.10270  0.20080  0.76690  1.0000
  H   H146      1.0  0.14730  0.04920  0.76690  1.0000
  H   H147      1.0  0.14730  0.20080  0.48310  1.0000
  H   H148      1.0  0.10270  0.04920  0.48310  1.0000
  H   H149      1.0  0.10270  0.70080  0.26690  1.0000
  H   H150      1.0  0.14730  0.54920  0.26690  1.0000
  H   H151      1.0  0.14730  0.70080  0.98310  1.0000
  H   H152      1.0  0.10270  0.54920  0.98310  1.0000
  H   H153      1.0  0.60270  0.20080  0.26690  1.0000
  H   H154      1.0  0.64730  0.04920  0.26690  1.0000
  H   H155      1.0  0.64730  0.20080  0.98310  1.0000
  H   H156      1.0  0.60270  0.04920  0.98310  1.0000
  H   H157      1.0  0.60270  0.70080  0.76690  1.0000
  H   H158      1.0  0.64730  0.54920  0.76690  1.0000
  H   H159      1.0  0.64730  0.70080  0.48310  1.0000
  H   H160      1.0  0.60270  0.54920  0.48310  1.0000
  C   C225      1.0  0.83530  0.76993  0.25446  1.0000
  C   C226      1.0  0.91470  0.98007  0.25446  1.0000
  C   C227      1.0  0.91470  0.76993  0.49554  1.0000
  C   C228      1.0  0.83530  0.98007  0.49554  1.0000
  C   C229      1.0  0.83530  0.26993  0.75446  1.0000
  C   C230      1.0  0.91470  0.48007  0.75446  1.0000
  C   C231      1.0  0.91470  0.26993  0.99554  1.0000
  C   C232      1.0  0.83530  0.48007  0.99554  1.0000
  C   C233      1.0  0.33530  0.76993  0.75446  1.0000
  C   C234      1.0  0.41470  0.98007  0.75446  1.0000
  C   C235      1.0  0.41470  0.76993  0.99554  1.0000
  C   C236      1.0  0.33530  0.98007  0.99554  1.0000
  C   C237      1.0  0.33530  0.26993  0.25446  1.0000
  C   C238      1.0  0.41470  0.48007  0.25446  1.0000
  C   C239      1.0  0.41470  0.26993  0.49554  1.0000
  C   C240      1.0  0.33530  0.48007  0.49554  1.0000
  C   C241      1.0  0.16470  0.23007  0.74554  1.0000
  C   C242      1.0  0.08530  0.01993  0.74554  1.0000
  C   C243      1.0  0.08530  0.23007  0.50446  1.0000
  C   C244      1.0  0.16470  0.01993  0.50446  1.0000
  C   C245      1.0  0.16470  0.73007  0.24554  1.0000
  C   C246      1.0  0.08530  0.51993  0.24554  1.0000
  C   C247      1.0  0.08530  0.73007  0.00446  1.0000
  C   C248      1.0  0.16470  0.51993  0.00446  1.0000
  C   C249      1.0  0.66470  0.23007  0.24554  1.0000
  C   C250      1.0  0.58530  0.01993  0.24554  1.0000
  C   C251      1.0  0.58530  0.23007  0.00446  1.0000
  C   C252      1.0  0.66470  0.01993  0.00446  1.0000
  C   C253      1.0  0.66470  0.73007  0.74554  1.0000
  C   C254      1.0  0.58530  0.51993  0.74554  1.0000
  C   C255      1.0  0.58530  0.73007  0.50446  1.0000
  C   C256      1.0  0.66470  0.51993  0.50446  1.0000
  H   H161      1.0  0.85850  0.76220  0.27160  1.0000
  H   H162      1.0  0.89150  0.98780  0.27160  1.0000
  H   H163      1.0  0.89150  0.76220  0.47840  1.0000
  H   H164      1.0  0.85850  0.98780  0.47840  1.0000
  H   H165      1.0  0.85850  0.26220  0.77160  1.0000
  H   H166      1.0  0.89150  0.48780  0.77160  1.0000
  H   H167      1.0  0.89150  0.26220  0.97840  1.0000
  H   H168      1.0  0.85850  0.48780  0.97840  1.0000
  H   H169      1.0  0.35850  0.76220  0.77160  1.0000
  H   H170      1.0  0.39150  0.98780  0.77160  1.0000
  H   H171      1.0  0.39150  0.76220  0.97840  1.0000
  H   H172      1.0  0.35850  0.98780  0.97840  1.0000
  H   H173      1.0  0.35850  0.26220  0.27160  1.0000
  H   H174      1.0  0.39150  0.48780  0.27160  1.0000
  H   H175      1.0  0.39150  0.26220  0.47840  1.0000
  H   H176      1.0  0.35850  0.48780  0.47840  1.0000
  H   H177      1.0  0.14150  0.23780  0.72840  1.0000
  H   H178      1.0  0.10850  0.01220  0.72840  1.0000
  H   H179      1.0  0.10850  0.23780  0.52160  1.0000
  H   H180      1.0  0.14150  0.01220  0.52160  1.0000
  H   H181      1.0  0.14150  0.73780  0.22840  1.0000
  H   H182      1.0  0.10850  0.51220  0.22840  1.0000
  H   H183      1.0  0.10850  0.73780  0.02160  1.0000
  H   H184      1.0  0.14150  0.51220  0.02160  1.0000
  H   H185      1.0  0.64150  0.23780  0.22840  1.0000
  H   H186      1.0  0.60850  0.01220  0.22840  1.0000
  H   H187      1.0  0.60850  0.23780  0.02160  1.0000
  H   H188      1.0  0.64150  0.01220  0.02160  1.0000
  H   H189      1.0  0.64150  0.73780  0.72840  1.0000
  H   H190      1.0  0.60850  0.51220  0.72840  1.0000
  H   H191      1.0  0.60850  0.73780  0.52160  1.0000
  H   H192      1.0  0.64150  0.51220  0.52160  1.0000
  C   C257      1.0  0.77900  0.75881  0.25296  1.0000
  C   C258      1.0  0.97100  0.99119  0.25296  1.0000
  C   C259      1.0  0.97100  0.75881  0.49704  1.0000
  C   C260      1.0  0.77900  0.99119  0.49704  1.0000
  C   C261      1.0  0.77900  0.25881  0.75296  1.0000
  C   C262      1.0  0.97100  0.49119  0.75296  1.0000
  C   C263      1.0  0.97100  0.25881  0.99704  1.0000
  C   C264      1.0  0.77900  0.49119  0.99704  1.0000
  C   C265      1.0  0.27900  0.75881  0.75296  1.0000
  C   C266      1.0  0.47100  0.99119  0.75296  1.0000
  C   C267      1.0  0.47100  0.75881  0.99704  1.0000
  C   C268      1.0  0.27900  0.99119  0.99704  1.0000
  C   C269      1.0  0.27900  0.25881  0.25296  1.0000
  C   C270      1.0  0.47100  0.49119  0.25296  1.0000
  C   C271      1.0  0.47100  0.25881  0.49704  1.0000
  C   C272      1.0  0.27900  0.49119  0.49704  1.0000
  C   C273      1.0  0.22100  0.24119  0.74704  1.0000
  C   C274      1.0  0.02900  0.00881  0.74704  1.0000
  C   C275      1.0  0.02900  0.24119  0.50296  1.0000
  C   C276      1.0  0.22100  0.00881  0.50296  1.0000
  C   C277      1.0  0.22100  0.74119  0.24704  1.0000
  C   C278      1.0  0.02900  0.50881  0.24704  1.0000
  C   C279      1.0  0.02900  0.74119  0.00296  1.0000
  C   C280      1.0  0.22100  0.50881  0.00296  1.0000
  C   C281      1.0  0.72100  0.24119  0.24704  1.0000
  C   C282      1.0  0.52900  0.00881  0.24704  1.0000
  C   C283      1.0  0.52900  0.24119  0.00296  1.0000
  C   C284      1.0  0.72100  0.00881  0.00296  1.0000
  C   C285      1.0  0.72100  0.74119  0.74704  1.0000
  C   C286      1.0  0.52900  0.50881  0.74704  1.0000
  C   C287      1.0  0.52900  0.74119  0.50296  1.0000
  C   C288      1.0  0.72100  0.50881  0.50296  1.0000
  C   C289      1.0  0.74530  0.77049  0.22680  1.0000
  C   C290      1.0  0.00470  0.97951  0.22680  1.0000
  C   C291      1.0  0.00470  0.77049  0.52320  1.0000
  C   C292      1.0  0.74530  0.97951  0.52320  1.0000
  C   C293      1.0  0.74530  0.27049  0.72680  1.0000
  C   C294      1.0  0.00470  0.47951  0.72680  1.0000
  C   C295      1.0  0.00470  0.27049  0.02320  1.0000
  C   C296      1.0  0.74530  0.47951  0.02320  1.0000
  C   C297      1.0  0.24530  0.77049  0.72680  1.0000
  C   C298      1.0  0.50470  0.97951  0.72680  1.0000
  C   C299      1.0  0.50470  0.77049  0.02320  1.0000
  C   C300      1.0  0.24530  0.97951  0.02320  1.0000
  C   C301      1.0  0.24530  0.27049  0.22680  1.0000
  C   C302      1.0  0.50470  0.47951  0.22680  1.0000
  C   C303      1.0  0.50470  0.27049  0.52320  1.0000
  C   C304      1.0  0.24530  0.47951  0.52320  1.0000
  C   C305      1.0  0.25470  0.22951  0.77320  1.0000
  C   C306      1.0  0.99530  0.02049  0.77320  1.0000
  C   C307      1.0  0.99530  0.22951  0.47680  1.0000
  C   C308      1.0  0.25470  0.02049  0.47680  1.0000
  C   C309      1.0  0.25470  0.72951  0.27320  1.0000
  C   C310      1.0  0.99530  0.52049  0.27320  1.0000
  C   C311      1.0  0.99530  0.72951  0.97680  1.0000
  C   C312      1.0  0.25470  0.52049  0.97680  1.0000
  C   C313      1.0  0.75470  0.22951  0.27320  1.0000
  C   C314      1.0  0.49530  0.02049  0.27320  1.0000
  C   C315      1.0  0.49530  0.22951  0.97680  1.0000
  C   C316      1.0  0.75470  0.02049  0.97680  1.0000
  C   C317      1.0  0.75470  0.72951  0.77320  1.0000
  C   C318      1.0  0.49530  0.52049  0.77320  1.0000
  C   C319      1.0  0.49530  0.72951  0.47680  1.0000
  C   C320      1.0  0.75470  0.52049  0.47680  1.0000
  H   H193      1.0  0.70740  0.76300  0.22460  1.0000
  H   H194      1.0  0.04260  0.98700  0.22460  1.0000
  H   H195      1.0  0.04260  0.76300  0.52540  1.0000
  H   H196      1.0  0.70740  0.98700  0.52540  1.0000
  H   H197      1.0  0.70740  0.26300  0.72460  1.0000
  H   H198      1.0  0.04260  0.48700  0.72460  1.0000
  H   H199      1.0  0.04260  0.26300  0.02540  1.0000
  H   H200      1.0  0.70740  0.48700  0.02540  1.0000
  H   H201      1.0  0.20740  0.76300  0.72460  1.0000
  H   H202      1.0  0.54260  0.98700  0.72460  1.0000
  H   H203      1.0  0.54260  0.76300  0.02540  1.0000
  H   H204      1.0  0.20740  0.98700  0.02540  1.0000
  H   H205      1.0  0.20740  0.26300  0.22460  1.0000
  H   H206      1.0  0.54260  0.48700  0.22460  1.0000
  H   H207      1.0  0.54260  0.26300  0.52540  1.0000
  H   H208      1.0  0.20740  0.48700  0.52540  1.0000
  H   H209      1.0  0.29260  0.23700  0.77540  1.0000
  H   H210      1.0  0.95740  0.01300  0.77540  1.0000
  H   H211      1.0  0.95740  0.23700  0.47460  1.0000
  H   H212      1.0  0.29260  0.01300  0.47460  1.0000
  H   H213      1.0  0.29260  0.73700  0.27540  1.0000
  H   H214      1.0  0.95740  0.51300  0.27540  1.0000
  H   H215      1.0  0.95740  0.73700  0.97460  1.0000
  H   H216      1.0  0.29260  0.51300  0.97460  1.0000
  H   H217      1.0  0.79260  0.23700  0.27540  1.0000
  H   H218      1.0  0.45740  0.01300  0.27540  1.0000
  H   H219      1.0  0.45740  0.23700  0.97460  1.0000
  H   H220      1.0  0.79260  0.01300  0.97460  1.0000
  H   H221      1.0  0.79260  0.73700  0.77540  1.0000
  H   H222      1.0  0.45740  0.51300  0.77540  1.0000
  H   H223      1.0  0.45740  0.73700  0.47460  1.0000
  H   H224      1.0  0.79260  0.51300  0.47460  1.0000
  C   C321      1.0  0.76770  0.79327  0.20394  1.0000
  C   C322      1.0  0.98230  0.95673  0.20394  1.0000
  C   C323      1.0  0.98230  0.79327  0.54606  1.0000
  C   C324      1.0  0.76770  0.95673  0.54606  1.0000
  C   C325      1.0  0.76770  0.29327  0.70394  1.0000
  C   C326      1.0  0.98230  0.45673  0.70394  1.0000
  C   C327      1.0  0.98230  0.29327  0.04606  1.0000
  C   C328      1.0  0.76770  0.45673  0.04606  1.0000
  C   C329      1.0  0.26770  0.79327  0.70394  1.0000
  C   C330      1.0  0.48230  0.95673  0.70394  1.0000
  C   C331      1.0  0.48230  0.79327  0.04606  1.0000
  C   C332      1.0  0.26770  0.95673  0.04606  1.0000
  C   C333      1.0  0.26770  0.29327  0.20394  1.0000
  C   C334      1.0  0.48230  0.45673  0.20394  1.0000
  C   C335      1.0  0.48230  0.29327  0.54606  1.0000
  C   C336      1.0  0.26770  0.45673  0.54606  1.0000
  C   C337      1.0  0.23230  0.20673  0.79606  1.0000
  C   C338      1.0  0.01770  0.04327  0.79606  1.0000
  C   C339      1.0  0.01770  0.20673  0.45394  1.0000
  C   C340      1.0  0.23230  0.04327  0.45394  1.0000
  C   C341      1.0  0.23230  0.70673  0.29606  1.0000
  C   C342      1.0  0.01770  0.54327  0.29606  1.0000
  C   C343      1.0  0.01770  0.70673  0.95394  1.0000
  C   C344      1.0  0.23230  0.54327  0.95394  1.0000
  C   C345      1.0  0.73230  0.20673  0.29606  1.0000
  C   C346      1.0  0.51770  0.04327  0.29606  1.0000
  C   C347      1.0  0.51770  0.20673  0.95394  1.0000
  C   C348      1.0  0.73230  0.04327  0.95394  1.0000
  C   C349      1.0  0.73230  0.70673  0.79606  1.0000
  C   C350      1.0  0.51770  0.54327  0.79606  1.0000
  C   C351      1.0  0.51770  0.70673  0.45394  1.0000
  C   C352      1.0  0.73230  0.54327  0.45394  1.0000
  H   H225      1.0  0.74430  0.80140  0.18710  1.0000
  H   H226      1.0  0.00570  0.94860  0.18710  1.0000
  H   H227      1.0  0.00570  0.80140  0.56290  1.0000
  H   H228      1.0  0.74430  0.94860  0.56290  1.0000
  H   H229      1.0  0.74430  0.30140  0.68710  1.0000
  H   H230      1.0  0.00570  0.44860  0.68710  1.0000
  H   H231      1.0  0.00570  0.30140  0.06290  1.0000
  H   H232      1.0  0.74430  0.44860  0.06290  1.0000
  H   H233      1.0  0.24430  0.80140  0.68710  1.0000
  H   H234      1.0  0.50570  0.94860  0.68710  1.0000
  H   H235      1.0  0.50570  0.80140  0.06290  1.0000
  H   H236      1.0  0.24430  0.94860  0.06290  1.0000
  H   H237      1.0  0.24430  0.30140  0.18710  1.0000
  H   H238      1.0  0.50570  0.44860  0.18710  1.0000
  H   H239      1.0  0.50570  0.30140  0.56290  1.0000
  H   H240      1.0  0.24430  0.44860  0.56290  1.0000
  H   H241      1.0  0.25570  0.19860  0.81290  1.0000
  H   H242      1.0  0.99430  0.05140  0.81290  1.0000
  H   H243      1.0  0.99430  0.19860  0.43710  1.0000
  H   H244      1.0  0.25570  0.05140  0.43710  1.0000
  H   H245      1.0  0.25570  0.69860  0.31290  1.0000
  H   H246      1.0  0.99430  0.55140  0.31290  1.0000
  H   H247      1.0  0.99430  0.69860  0.93710  1.0000
  H   H248      1.0  0.25570  0.55140  0.93710  1.0000
  H   H249      1.0  0.75570  0.19860  0.31290  1.0000
  H   H250      1.0  0.49430  0.05140  0.31290  1.0000
  H   H251      1.0  0.49430  0.19860  0.93710  1.0000
  H   H252      1.0  0.75570  0.05140  0.93710  1.0000
  H   H253      1.0  0.75570  0.69860  0.81290  1.0000
  H   H254      1.0  0.49430  0.55140  0.81290  1.0000
  H   H255      1.0  0.49430  0.69860  0.43710  1.0000
  H   H256      1.0  0.75570  0.55140  0.43710  1.0000
  C   C353      1.0  0.82320  0.80367  0.20610  1.0000
  C   C354      1.0  0.92680  0.94633  0.20610  1.0000
  C   C355      1.0  0.92680  0.80367  0.54390  1.0000
  C   C356      1.0  0.82320  0.94633  0.54390  1.0000
  C   C357      1.0  0.82320  0.30367  0.70610  1.0000
  C   C358      1.0  0.92680  0.44633  0.70610  1.0000
  C   C359      1.0  0.92680  0.30367  0.04390  1.0000
  C   C360      1.0  0.82320  0.44633  0.04390  1.0000
  C   C361      1.0  0.32320  0.80367  0.70610  1.0000
  C   C362      1.0  0.42680  0.94633  0.70610  1.0000
  C   C363      1.0  0.42680  0.80367  0.04390  1.0000
  C   C364      1.0  0.32320  0.94633  0.04390  1.0000
  C   C365      1.0  0.32320  0.30367  0.20610  1.0000
  C   C366      1.0  0.42680  0.44633  0.20610  1.0000
  C   C367      1.0  0.42680  0.30367  0.54390  1.0000
  C   C368      1.0  0.32320  0.44633  0.54390  1.0000
  C   C369      1.0  0.17680  0.19633  0.79390  1.0000
  C   C370      1.0  0.07320  0.05367  0.79390  1.0000
  C   C371      1.0  0.07320  0.19633  0.45610  1.0000
  C   C372      1.0  0.17680  0.05367  0.45610  1.0000
  C   C373      1.0  0.17680  0.69633  0.29390  1.0000
  C   C374      1.0  0.07320  0.55367  0.29390  1.0000
  C   C375      1.0  0.07320  0.69633  0.95610  1.0000
  C   C376      1.0  0.17680  0.55367  0.95610  1.0000
  C   C377      1.0  0.67680  0.19633  0.29390  1.0000
  C   C378      1.0  0.57320  0.05367  0.29390  1.0000
  C   C379      1.0  0.57320  0.19633  0.95610  1.0000
  C   C380      1.0  0.67680  0.05367  0.95610  1.0000
  C   C381      1.0  0.67680  0.69633  0.79390  1.0000
  C   C382      1.0  0.57320  0.55367  0.79390  1.0000
  C   C383      1.0  0.57320  0.69633  0.45610  1.0000
  C   C384      1.0  0.67680  0.55367  0.45610  1.0000
  C   C385      1.0  0.67860  0.66596  0.34654  1.0000
  C   C386      1.0  0.07140  0.08404  0.34654  1.0000
  C   C387      1.0  0.07140  0.66596  0.40346  1.0000
  C   C388      1.0  0.67860  0.08404  0.40346  1.0000
  C   C389      1.0  0.67860  0.16596  0.84654  1.0000
  C   C390      1.0  0.07140  0.58404  0.84654  1.0000
  C   C391      1.0  0.07140  0.16596  0.90346  1.0000
  C   C392      1.0  0.67860  0.58404  0.90346  1.0000
  C   C393      1.0  0.17860  0.66596  0.84654  1.0000
  C   C394      1.0  0.57140  0.08404  0.84654  1.0000
  C   C395      1.0  0.57140  0.66596  0.90346  1.0000
  C   C396      1.0  0.17860  0.08404  0.90346  1.0000
  C   C397      1.0  0.17860  0.16596  0.34654  1.0000
  C   C398      1.0  0.57140  0.58404  0.34654  1.0000
  C   C399      1.0  0.57140  0.16596  0.40346  1.0000
  C   C400      1.0  0.17860  0.58404  0.40346  1.0000
  C   C401      1.0  0.32140  0.33404  0.65346  1.0000
  C   C402      1.0  0.92860  0.91596  0.65346  1.0000
  C   C403      1.0  0.92860  0.33404  0.59654  1.0000
  C   C404      1.0  0.32140  0.91596  0.59654  1.0000
  C   C405      1.0  0.32140  0.83404  0.15346  1.0000
  C   C406      1.0  0.92860  0.41596  0.15346  1.0000
  C   C407      1.0  0.92860  0.83404  0.09654  1.0000
  C   C408      1.0  0.32140  0.41596  0.09654  1.0000
  C   C409      1.0  0.82140  0.33404  0.15346  1.0000
  C   C410      1.0  0.42860  0.91596  0.15346  1.0000
  C   C411      1.0  0.42860  0.33404  0.09654  1.0000
  C   C412      1.0  0.82140  0.91596  0.09654  1.0000
  C   C413      1.0  0.82140  0.83404  0.65346  1.0000
  C   C414      1.0  0.42860  0.41596  0.65346  1.0000
  C   C415      1.0  0.42860  0.83404  0.59654  1.0000
  C   C416      1.0  0.82140  0.41596  0.59654  1.0000
  C   C417      1.0  0.84650  0.82872  0.18262  1.0000
  C   C418      1.0  0.90350  0.92128  0.18262  1.0000
  C   C419      1.0  0.90350  0.82872  0.56738  1.0000
  C   C420      1.0  0.84650  0.92128  0.56738  1.0000
  C   C421      1.0  0.84650  0.32872  0.68262  1.0000
  C   C422      1.0  0.90350  0.42128  0.68262  1.0000
  C   C423      1.0  0.90350  0.32872  0.06738  1.0000
  C   C424      1.0  0.84650  0.42128  0.06738  1.0000
  C   C425      1.0  0.34650  0.82872  0.68262  1.0000
  C   C426      1.0  0.40350  0.92128  0.68262  1.0000
  C   C427      1.0  0.40350  0.82872  0.06738  1.0000
  C   C428      1.0  0.34650  0.92128  0.06738  1.0000
  C   C429      1.0  0.34650  0.32872  0.18262  1.0000
  C   C430      1.0  0.40350  0.42128  0.18262  1.0000
  C   C431      1.0  0.40350  0.32872  0.56738  1.0000
  C   C432      1.0  0.34650  0.42128  0.56738  1.0000
  C   C433      1.0  0.15350  0.17128  0.81738  1.0000
  C   C434      1.0  0.09650  0.07872  0.81738  1.0000
  C   C435      1.0  0.09650  0.17128  0.43262  1.0000
  C   C436      1.0  0.15350  0.07872  0.43262  1.0000
  C   C437      1.0  0.15350  0.67128  0.31738  1.0000
  C   C438      1.0  0.09650  0.57872  0.31738  1.0000
  C   C439      1.0  0.09650  0.67128  0.93262  1.0000
  C   C440      1.0  0.15350  0.57872  0.93262  1.0000
  C   C441      1.0  0.65350  0.17128  0.31738  1.0000
  C   C442      1.0  0.59650  0.07872  0.31738  1.0000
  C   C443      1.0  0.59650  0.17128  0.93262  1.0000
  C   C444      1.0  0.65350  0.07872  0.93262  1.0000
  C   C445      1.0  0.65350  0.67128  0.81738  1.0000
  C   C446      1.0  0.59650  0.57872  0.81738  1.0000
  C   C447      1.0  0.59650  0.67128  0.43262  1.0000
  C   C448      1.0  0.65350  0.57872  0.43262  1.0000
  C   C449      1.0  0.00170  0.32227  0.44189  1.0000
  C   C450      1.0  0.74830  0.42773  0.44189  1.0000
  C   C451      1.0  0.74830  0.32227  0.30811  1.0000
  C   C452      1.0  0.00170  0.42773  0.30811  1.0000
  C   C453      1.0  0.00170  0.82227  0.94189  1.0000
  C   C454      1.0  0.74830  0.92773  0.94189  1.0000
  C   C455      1.0  0.74830  0.82227  0.80811  1.0000
  C   C456      1.0  0.00170  0.92773  0.80811  1.0000
  C   C457      1.0  0.50170  0.32227  0.94189  1.0000
  C   C458      1.0  0.24830  0.42773  0.94189  1.0000
  C   C459      1.0  0.24830  0.32227  0.80811  1.0000
  C   C460      1.0  0.50170  0.42773  0.80811  1.0000
  C   C461      1.0  0.50170  0.82227  0.44189  1.0000
  C   C462      1.0  0.24830  0.92773  0.44189  1.0000
  C   C463      1.0  0.24830  0.82227  0.30811  1.0000
  C   C464      1.0  0.50170  0.92773  0.30811  1.0000
  C   C465      1.0  0.99830  0.67773  0.55811  1.0000
  C   C466      1.0  0.25170  0.57227  0.55811  1.0000
  C   C467      1.0  0.25170  0.67773  0.69189  1.0000
  C   C468      1.0  0.99830  0.57227  0.69189  1.0000
  C   C469      1.0  0.99830  0.17773  0.05811  1.0000
  C   C470      1.0  0.25170  0.07227  0.05811  1.0000
  C   C471      1.0  0.25170  0.17773  0.19189  1.0000
  C   C472      1.0  0.99830  0.07227  0.19189  1.0000
  C   C473      1.0  0.49830  0.67773  0.05811  1.0000
  C   C474      1.0  0.75170  0.57227  0.05811  1.0000
  C   C475      1.0  0.75170  0.67773  0.19189  1.0000
  C   C476      1.0  0.49830  0.57227  0.19189  1.0000
  C   C477      1.0  0.49830  0.17773  0.55811  1.0000
  C   C478      1.0  0.75170  0.07227  0.55811  1.0000
  C   C479      1.0  0.75170  0.17773  0.69189  1.0000
  C   C480      1.0  0.49830  0.07227  0.69189  1.0000
  H   H257      1.0  0.02540  0.31240  0.42610  1.0000
  H   H258      1.0  0.72460  0.43760  0.42610  1.0000
  H   H259      1.0  0.72460  0.31240  0.32390  1.0000
  H   H260      1.0  0.02540  0.43760  0.32390  1.0000
  H   H261      1.0  0.02540  0.81240  0.92610  1.0000
  H   H262      1.0  0.72460  0.93760  0.92610  1.0000
  H   H263      1.0  0.72460  0.81240  0.82390  1.0000
  H   H264      1.0  0.02540  0.93760  0.82390  1.0000
  H   H265      1.0  0.52540  0.31240  0.92610  1.0000
  H   H266      1.0  0.22460  0.43760  0.92610  1.0000
  H   H267      1.0  0.22460  0.31240  0.82390  1.0000
  H   H268      1.0  0.52540  0.43760  0.82390  1.0000
  H   H269      1.0  0.52540  0.81240  0.42610  1.0000
  H   H270      1.0  0.22460  0.93760  0.42610  1.0000
  H   H271      1.0  0.22460  0.81240  0.32390  1.0000
  H   H272      1.0  0.52540  0.93760  0.32390  1.0000
  H   H273      1.0  0.97460  0.68760  0.57390  1.0000
  H   H274      1.0  0.27540  0.56240  0.57390  1.0000
  H   H275      1.0  0.27540  0.68760  0.67610  1.0000
  H   H276      1.0  0.97460  0.56240  0.67610  1.0000
  H   H277      1.0  0.97460  0.18760  0.07390  1.0000
  H   H278      1.0  0.27540  0.06240  0.07390  1.0000
  H   H279      1.0  0.27540  0.18760  0.17610  1.0000
  H   H280      1.0  0.97460  0.06240  0.17610  1.0000
  H   H281      1.0  0.47460  0.68760  0.07390  1.0000
  H   H282      1.0  0.77540  0.56240  0.07390  1.0000
  H   H283      1.0  0.77540  0.68760  0.17610  1.0000
  H   H284      1.0  0.47460  0.56240  0.17610  1.0000
  H   H285      1.0  0.47460  0.18760  0.57390  1.0000
  H   H286      1.0  0.77540  0.06240  0.57390  1.0000
  H   H287      1.0  0.77540  0.18760  0.67610  1.0000
  H   H288      1.0  0.47460  0.06240  0.67610  1.0000
  C   C481      1.0  0.02430  0.34400  0.46505  1.0000
  C   C482      1.0  0.72570  0.40600  0.46505  1.0000
  C   C483      1.0  0.72570  0.34400  0.28495  1.0000
  C   C484      1.0  0.02430  0.40600  0.28495  1.0000
  C   C485      1.0  0.02430  0.84400  0.96505  1.0000
  C   C486      1.0  0.72570  0.90600  0.96505  1.0000
  C   C487      1.0  0.72570  0.84400  0.78495  1.0000
  C   C488      1.0  0.02430  0.90600  0.78495  1.0000
  C   C489      1.0  0.52430  0.34400  0.96505  1.0000
  C   C490      1.0  0.22570  0.40600  0.96505  1.0000
  C   C491      1.0  0.22570  0.34400  0.78495  1.0000
  C   C492      1.0  0.52430  0.40600  0.78495  1.0000
  C   C493      1.0  0.52430  0.84400  0.46505  1.0000
  C   C494      1.0  0.22570  0.90600  0.46505  1.0000
  C   C495      1.0  0.22570  0.84400  0.28495  1.0000
  C   C496      1.0  0.52430  0.90600  0.28495  1.0000
  C   C497      1.0  0.97570  0.65600  0.53495  1.0000
  C   C498      1.0  0.27430  0.59400  0.53495  1.0000
  C   C499      1.0  0.27430  0.65600  0.71505  1.0000
  C   C500      1.0  0.97570  0.59400  0.71505  1.0000
  C   C501      1.0  0.97570  0.15600  0.03495  1.0000
  C   C502      1.0  0.27430  0.09400  0.03495  1.0000
  C   C503      1.0  0.27430  0.15600  0.21505  1.0000
  C   C504      1.0  0.97570  0.09400  0.21505  1.0000
  C   C505      1.0  0.47570  0.65600  0.03495  1.0000
  C   C506      1.0  0.77430  0.59400  0.03495  1.0000
  C   C507      1.0  0.77430  0.65600  0.21505  1.0000
  C   C508      1.0  0.47570  0.59400  0.21505  1.0000
  C   C509      1.0  0.47570  0.15600  0.53495  1.0000
  C   C510      1.0  0.77430  0.09400  0.53495  1.0000
  C   C511      1.0  0.77430  0.15600  0.71505  1.0000
  C   C512      1.0  0.47570  0.09400  0.71505  1.0000
  H   H289      1.0  0.06420  0.34710  0.46490  1.0000
  H   H290      1.0  0.68580  0.40290  0.46490  1.0000
  H   H291      1.0  0.68580  0.34710  0.28510  1.0000
  H   H292      1.0  0.06420  0.40290  0.28510  1.0000
  H   H293      1.0  0.06420  0.84710  0.96490  1.0000
  H   H294      1.0  0.68580  0.90290  0.96490  1.0000
  H   H295      1.0  0.68580  0.84710  0.78510  1.0000
  H   H296      1.0  0.06420  0.90290  0.78510  1.0000
  H   H297      1.0  0.56420  0.34710  0.96490  1.0000
  H   H298      1.0  0.18580  0.40290  0.96490  1.0000
  H   H299      1.0  0.18580  0.34710  0.78510  1.0000
  H   H300      1.0  0.56420  0.40290  0.78510  1.0000
  H   H301      1.0  0.56420  0.84710  0.46490  1.0000
  H   H302      1.0  0.18580  0.90290  0.46490  1.0000
  H   H303      1.0  0.18580  0.84710  0.28510  1.0000
  H   H304      1.0  0.56420  0.90290  0.28510  1.0000
  H   H305      1.0  0.93580  0.65290  0.53510  1.0000
  H   H306      1.0  0.31420  0.59710  0.53510  1.0000
  H   H307      1.0  0.31420  0.65290  0.71490  1.0000
  H   H308      1.0  0.93580  0.59710  0.71490  1.0000
  H   H309      1.0  0.93580  0.15290  0.03510  1.0000
  H   H310      1.0  0.31420  0.09710  0.03510  1.0000
  H   H311      1.0  0.31420  0.15290  0.21490  1.0000
  H   H312      1.0  0.93580  0.09710  0.21490  1.0000
  H   H313      1.0  0.43580  0.65290  0.03510  1.0000
  H   H314      1.0  0.81420  0.59710  0.03510  1.0000
  H   H315      1.0  0.81420  0.65290  0.21490  1.0000
  H   H316      1.0  0.43580  0.59710  0.21490  1.0000
  H   H317      1.0  0.43580  0.15290  0.53510  1.0000
  H   H318      1.0  0.81420  0.09710  0.53510  1.0000
  H   H319      1.0  0.81420  0.15290  0.71490  1.0000
  H   H320      1.0  0.43580  0.09710  0.71490  1.0000
  C   C513      1.0  0.99350  0.36133  0.48809  1.0000
  C   C514      1.0  0.75650  0.38867  0.48809  1.0000
  C   C515      1.0  0.75650  0.36133  0.26191  1.0000
  C   C516      1.0  0.99350  0.38867  0.26191  1.0000
  C   C517      1.0  0.99350  0.86133  0.98809  1.0000
  C   C518      1.0  0.75650  0.88867  0.98809  1.0000
  C   C519      1.0  0.75650  0.86133  0.76191  1.0000
  C   C520      1.0  0.99350  0.88867  0.76191  1.0000
  C   C521      1.0  0.49350  0.36133  0.98809  1.0000
  C   C522      1.0  0.25650  0.38867  0.98809  1.0000
  C   C523      1.0  0.25650  0.36133  0.76191  1.0000
  C   C524      1.0  0.49350  0.38867  0.76191  1.0000
  C   C525      1.0  0.49350  0.86133  0.48809  1.0000
  C   C526      1.0  0.25650  0.88867  0.48809  1.0000
  C   C527      1.0  0.25650  0.86133  0.26191  1.0000
  C   C528      1.0  0.49350  0.88867  0.26191  1.0000
  C   C529      1.0  0.00650  0.63867  0.51191  1.0000
  C   C530      1.0  0.24350  0.61133  0.51191  1.0000
  C   C531      1.0  0.24350  0.63867  0.73809  1.0000
  C   C532      1.0  0.00650  0.61133  0.73809  1.0000
  C   C533      1.0  0.00650  0.13867  0.01191  1.0000
  C   C534      1.0  0.24350  0.11133  0.01191  1.0000
  C   C535      1.0  0.24350  0.13867  0.23809  1.0000
  C   C536      1.0  0.00650  0.11133  0.23809  1.0000
  C   C537      1.0  0.50650  0.63867  0.01191  1.0000
  C   C538      1.0  0.74350  0.61133  0.01191  1.0000
  C   C539      1.0  0.74350  0.63867  0.23809  1.0000
  C   C540      1.0  0.50650  0.61133  0.23809  1.0000
  C   C541      1.0  0.50650  0.13867  0.51191  1.0000
  C   C542      1.0  0.74350  0.11133  0.51191  1.0000
  C   C543      1.0  0.74350  0.13867  0.73809  1.0000
  C   C544      1.0  0.50650  0.11133  0.73809  1.0000
  C   C545      1.0  0.93750  0.35117  0.48942  1.0000
  C   C546      1.0  0.81250  0.39883  0.48942  1.0000
  C   C547      1.0  0.81250  0.35117  0.26058  1.0000
  C   C548      1.0  0.93750  0.39883  0.26058  1.0000
  C   C549      1.0  0.93750  0.85117  0.98942  1.0000
  C   C550      1.0  0.81250  0.89883  0.98942  1.0000
  C   C551      1.0  0.81250  0.85117  0.76058  1.0000
  C   C552      1.0  0.93750  0.89883  0.76058  1.0000
  C   C553      1.0  0.43750  0.35117  0.98942  1.0000
  C   C554      1.0  0.31250  0.39883  0.98942  1.0000
  C   C555      1.0  0.31250  0.35117  0.76058  1.0000
  C   C556      1.0  0.43750  0.39883  0.76058  1.0000
  C   C557      1.0  0.43750  0.85117  0.48942  1.0000
  C   C558      1.0  0.31250  0.89883  0.48942  1.0000
  C   C559      1.0  0.31250  0.85117  0.26058  1.0000
  C   C560      1.0  0.43750  0.89883  0.26058  1.0000
  C   C561      1.0  0.06250  0.64883  0.51058  1.0000
  C   C562      1.0  0.18750  0.60117  0.51058  1.0000
  C   C563      1.0  0.18750  0.64883  0.73942  1.0000
  C   C564      1.0  0.06250  0.60117  0.73942  1.0000
  C   C565      1.0  0.06250  0.14883  0.01058  1.0000
  C   C566      1.0  0.18750  0.10117  0.01058  1.0000
  C   C567      1.0  0.18750  0.14883  0.23942  1.0000
  C   C568      1.0  0.06250  0.10117  0.23942  1.0000
  C   C569      1.0  0.56250  0.64883  0.01058  1.0000
  C   C570      1.0  0.68750  0.60117  0.01058  1.0000
  C   C571      1.0  0.68750  0.64883  0.23942  1.0000
  C   C572      1.0  0.56250  0.60117  0.23942  1.0000
  C   C573      1.0  0.56250  0.14883  0.51058  1.0000
  C   C574      1.0  0.68750  0.10117  0.51058  1.0000
  C   C575      1.0  0.68750  0.14883  0.73942  1.0000
  C   C576      1.0  0.56250  0.10117  0.73942  1.0000
  H   H321      1.0  0.91400  0.36020  0.50580  1.0000
  H   H322      1.0  0.83600  0.38980  0.50580  1.0000
  H   H323      1.0  0.83600  0.36020  0.24420  1.0000
  H   H324      1.0  0.91400  0.38980  0.24420  1.0000
  H   H325      1.0  0.91400  0.86020  0.00580  1.0000
  H   H326      1.0  0.83600  0.88980  0.00580  1.0000
  H   H327      1.0  0.83600  0.86020  0.74420  1.0000
  H   H328      1.0  0.91400  0.88980  0.74420  1.0000
  H   H329      1.0  0.41400  0.36020  0.00580  1.0000
  H   H330      1.0  0.33600  0.38980  0.00580  1.0000
  H   H331      1.0  0.33600  0.36020  0.74420  1.0000
  H   H332      1.0  0.41400  0.38980  0.74420  1.0000
  H   H333      1.0  0.41400  0.86020  0.50580  1.0000
  H   H334      1.0  0.33600  0.88980  0.50580  1.0000
  H   H335      1.0  0.33600  0.86020  0.24420  1.0000
  H   H336      1.0  0.41400  0.88980  0.24420  1.0000
  H   H337      1.0  0.08600  0.63980  0.49420  1.0000
  H   H338      1.0  0.16400  0.61020  0.49420  1.0000
  H   H339      1.0  0.16400  0.63980  0.75580  1.0000
  H   H340      1.0  0.08600  0.61020  0.75580  1.0000
  H   H341      1.0  0.08600  0.13980  0.99420  1.0000
  H   H342      1.0  0.16400  0.11020  0.99420  1.0000
  H   H343      1.0  0.16400  0.13980  0.25580  1.0000
  H   H344      1.0  0.08600  0.11020  0.25580  1.0000
  H   H345      1.0  0.58600  0.63980  0.99420  1.0000
  H   H346      1.0  0.66400  0.61020  0.99420  1.0000
  H   H347      1.0  0.66400  0.63980  0.25580  1.0000
  H   H348      1.0  0.58600  0.61020  0.25580  1.0000
  H   H349      1.0  0.58600  0.13980  0.49420  1.0000
  H   H350      1.0  0.66400  0.11020  0.49420  1.0000
  H   H351      1.0  0.66400  0.13980  0.75580  1.0000
  H   H352      1.0  0.58600  0.11020  0.75580  1.0000
  C   C577      1.0  0.91370  0.32807  0.46772  1.0000
  C   C578      1.0  0.83630  0.42193  0.46772  1.0000
  C   C579      1.0  0.83630  0.32807  0.28228  1.0000
  C   C580      1.0  0.91370  0.42193  0.28228  1.0000
  C   C581      1.0  0.91370  0.82807  0.96772  1.0000
  C   C582      1.0  0.83630  0.92193  0.96772  1.0000
  C   C583      1.0  0.83630  0.82807  0.78228  1.0000
  C   C584      1.0  0.91370  0.92193  0.78228  1.0000
  C   C585      1.0  0.41370  0.32807  0.96772  1.0000
  C   C586      1.0  0.33630  0.42193  0.96772  1.0000
  C   C587      1.0  0.33630  0.32807  0.78228  1.0000
  C   C588      1.0  0.41370  0.42193  0.78228  1.0000
  C   C589      1.0  0.41370  0.82807  0.46772  1.0000
  C   C590      1.0  0.33630  0.92193  0.46772  1.0000
  C   C591      1.0  0.33630  0.82807  0.28228  1.0000
  C   C592      1.0  0.41370  0.92193  0.28228  1.0000
  C   C593      1.0  0.08630  0.67193  0.53228  1.0000
  C   C594      1.0  0.16370  0.57807  0.53228  1.0000
  C   C595      1.0  0.16370  0.67193  0.71772  1.0000
  C   C596      1.0  0.08630  0.57807  0.71772  1.0000
  C   C597      1.0  0.08630  0.17193  0.03228  1.0000
  C   C598      1.0  0.16370  0.07807  0.03228  1.0000
  C   C599      1.0  0.16370  0.17193  0.21772  1.0000
  C   C600      1.0  0.08630  0.07807  0.21772  1.0000
  C   C601      1.0  0.58630  0.67193  0.03228  1.0000
  C   C602      1.0  0.66370  0.57807  0.03228  1.0000
  C   C603      1.0  0.66370  0.67193  0.21772  1.0000
  C   C604      1.0  0.58630  0.57807  0.21772  1.0000
  C   C605      1.0  0.58630  0.17193  0.53228  1.0000
  C   C606      1.0  0.66370  0.07807  0.53228  1.0000
  C   C607      1.0  0.66370  0.17193  0.71772  1.0000
  C   C608      1.0  0.58630  0.07807  0.71772  1.0000
  H   H353      1.0  0.87560  0.32110  0.47080  1.0000
  H   H354      1.0  0.87440  0.42890  0.47080  1.0000
  H   H355      1.0  0.87440  0.32110  0.27920  1.0000
  H   H356      1.0  0.87560  0.42890  0.27920  1.0000
  H   H357      1.0  0.87560  0.82110  0.97080  1.0000
  H   H358      1.0  0.87440  0.92890  0.97080  1.0000
  H   H359      1.0  0.87440  0.82110  0.77920  1.0000
  H   H360      1.0  0.87560  0.92890  0.77920  1.0000
  H   H361      1.0  0.37560  0.32110  0.97080  1.0000
  H   H362      1.0  0.37440  0.42890  0.97080  1.0000
  H   H363      1.0  0.37440  0.32110  0.77920  1.0000
  H   H364      1.0  0.37560  0.42890  0.77920  1.0000
  H   H365      1.0  0.37560  0.82110  0.47080  1.0000
  H   H366      1.0  0.37440  0.92890  0.47080  1.0000
  H   H367      1.0  0.37440  0.82110  0.27920  1.0000
  H   H368      1.0  0.37560  0.92890  0.27920  1.0000
  H   H369      1.0  0.12440  0.67890  0.52920  1.0000
  H   H370      1.0  0.12560  0.57110  0.52920  1.0000
  H   H371      1.0  0.12560  0.67890  0.72080  1.0000
  H   H372      1.0  0.12440  0.57110  0.72080  1.0000
  H   H373      1.0  0.12440  0.17890  0.02920  1.0000
  H   H374      1.0  0.12560  0.07110  0.02920  1.0000
  H   H375      1.0  0.12560  0.17890  0.22080  1.0000
  H   H376      1.0  0.12440  0.07110  0.22080  1.0000
  H   H377      1.0  0.62440  0.67890  0.02920  1.0000
  H   H378      1.0  0.62560  0.57110  0.02920  1.0000
  H   H379      1.0  0.62560  0.67890  0.22080  1.0000
  H   H380      1.0  0.62440  0.57110  0.22080  1.0000
  H   H381      1.0  0.62440  0.17890  0.52920  1.0000
  H   H382      1.0  0.62560  0.07110  0.52920  1.0000
  H   H383      1.0  0.62560  0.17890  0.72080  1.0000
  H   H384      1.0  0.62440  0.07110  0.72080  1.0000
  C   C609      1.0  0.94400  0.31548  0.44236  1.0000
  C   C610      1.0  0.80600  0.43452  0.44236  1.0000
  C   C611      1.0  0.80600  0.31548  0.30764  1.0000
  C   C612      1.0  0.94400  0.43452  0.30764  1.0000
  C   C613      1.0  0.94400  0.81548  0.94236  1.0000
  C   C614      1.0  0.80600  0.93452  0.94236  1.0000
  C   C615      1.0  0.80600  0.81548  0.80764  1.0000
  C   C616      1.0  0.94400  0.93452  0.80764  1.0000
  C   C617      1.0  0.44400  0.31548  0.94236  1.0000
  C   C618      1.0  0.30600  0.43452  0.94236  1.0000
  C   C619      1.0  0.30600  0.31548  0.80764  1.0000
  C   C620      1.0  0.44400  0.43452  0.80764  1.0000
  C   C621      1.0  0.44400  0.81548  0.44236  1.0000
  C   C622      1.0  0.30600  0.93452  0.44236  1.0000
  C   C623      1.0  0.30600  0.81548  0.30764  1.0000
  C   C624      1.0  0.44400  0.93452  0.30764  1.0000
  C   C625      1.0  0.05600  0.68452  0.55764  1.0000
  C   C626      1.0  0.19400  0.56548  0.55764  1.0000
  C   C627      1.0  0.19400  0.68452  0.69236  1.0000
  C   C628      1.0  0.05600  0.56548  0.69236  1.0000
  C   C629      1.0  0.05600  0.18452  0.05764  1.0000
  C   C630      1.0  0.19400  0.06548  0.05764  1.0000
  C   C631      1.0  0.19400  0.18452  0.19236  1.0000
  C   C632      1.0  0.05600  0.06548  0.19236  1.0000
  C   C633      1.0  0.55600  0.68452  0.05764  1.0000
  C   C634      1.0  0.69400  0.56548  0.05764  1.0000
  C   C635      1.0  0.69400  0.68452  0.19236  1.0000
  C   C636      1.0  0.55600  0.56548  0.19236  1.0000
  C   C637      1.0  0.55600  0.18452  0.55764  1.0000
  C   C638      1.0  0.69400  0.06548  0.55764  1.0000
  C   C639      1.0  0.69400  0.18452  0.69236  1.0000
  C   C640      1.0  0.55600  0.06548  0.69236  1.0000
  C   C641      1.0  0.09390  0.41897  0.53203  1.0000
  C   C642      1.0  0.65610  0.33103  0.53203  1.0000
  C   C643      1.0  0.65610  0.41897  0.21797  1.0000
  C   C644      1.0  0.09390  0.33103  0.21797  1.0000
  C   C645      1.0  0.09390  0.91897  0.03203  1.0000
  C   C646      1.0  0.65610  0.83103  0.03203  1.0000
  C   C647      1.0  0.65610  0.91897  0.71797  1.0000
  C   C648      1.0  0.09390  0.83103  0.71797  1.0000
  C   C649      1.0  0.59390  0.41897  0.03203  1.0000
  C   C650      1.0  0.15610  0.33103  0.03203  1.0000
  C   C651      1.0  0.15610  0.41897  0.71797  1.0000
  C   C652      1.0  0.59390  0.33103  0.71797  1.0000
  C   C653      1.0  0.59390  0.91897  0.53203  1.0000
  C   C654      1.0  0.15610  0.83103  0.53203  1.0000
  C   C655      1.0  0.15610  0.91897  0.21797  1.0000
  C   C656      1.0  0.59390  0.83103  0.21797  1.0000
  C   C657      1.0  0.90610  0.58103  0.46797  1.0000
  C   C658      1.0  0.34390  0.66897  0.46797  1.0000
  C   C659      1.0  0.34390  0.58103  0.78203  1.0000
  C   C660      1.0  0.90610  0.66897  0.78203  1.0000
  C   C661      1.0  0.90610  0.08103  0.96797  1.0000
  C   C662      1.0  0.34390  0.16897  0.96797  1.0000
  C   C663      1.0  0.34390  0.08103  0.28203  1.0000
  C   C664      1.0  0.90610  0.16897  0.28203  1.0000
  C   C665      1.0  0.40610  0.58103  0.96797  1.0000
  C   C666      1.0  0.84390  0.66897  0.96797  1.0000
  C   C667      1.0  0.84390  0.58103  0.28203  1.0000
  C   C668      1.0  0.40610  0.66897  0.28203  1.0000
  C   C669      1.0  0.40610  0.08103  0.46797  1.0000
  C   C670      1.0  0.84390  0.16897  0.46797  1.0000
  C   C671      1.0  0.84390  0.08103  0.78203  1.0000
  C   C672      1.0  0.40610  0.16897  0.78203  1.0000
  H   H385      1.0  0.13230  0.42580  0.53010  1.0000
  H   H386      1.0  0.61770  0.32420  0.53010  1.0000
  H   H387      1.0  0.61770  0.42580  0.21990  1.0000
  H   H388      1.0  0.13230  0.32420  0.21990  1.0000
  H   H389      1.0  0.13230  0.92580  0.03010  1.0000
  H   H390      1.0  0.61770  0.82420  0.03010  1.0000
  H   H391      1.0  0.61770  0.92580  0.71990  1.0000
  H   H392      1.0  0.13230  0.82420  0.71990  1.0000
  H   H393      1.0  0.63230  0.42580  0.03010  1.0000
  H   H394      1.0  0.11770  0.32420  0.03010  1.0000
  H   H395      1.0  0.11770  0.42580  0.71990  1.0000
  H   H396      1.0  0.63230  0.32420  0.71990  1.0000
  H   H397      1.0  0.63230  0.92580  0.53010  1.0000
  H   H398      1.0  0.11770  0.82420  0.53010  1.0000
  H   H399      1.0  0.11770  0.92580  0.21990  1.0000
  H   H400      1.0  0.63230  0.82420  0.21990  1.0000
  H   H401      1.0  0.86770  0.57420  0.46990  1.0000
  H   H402      1.0  0.38230  0.67580  0.46990  1.0000
  H   H403      1.0  0.38230  0.57420  0.78010  1.0000
  H   H404      1.0  0.86770  0.67580  0.78010  1.0000
  H   H405      1.0  0.86770  0.07420  0.96990  1.0000
  H   H406      1.0  0.38230  0.17580  0.96990  1.0000
  H   H407      1.0  0.38230  0.07420  0.28010  1.0000
  H   H408      1.0  0.86770  0.17580  0.28010  1.0000
  H   H409      1.0  0.36770  0.57420  0.96990  1.0000
  H   H410      1.0  0.88230  0.67580  0.96990  1.0000
  H   H411      1.0  0.88230  0.57420  0.28010  1.0000
  H   H412      1.0  0.36770  0.67580  0.28010  1.0000
  H   H413      1.0  0.36770  0.07420  0.46990  1.0000
  H   H414      1.0  0.88230  0.17580  0.46990  1.0000
  H   H415      1.0  0.88230  0.07420  0.78010  1.0000
  H   H416      1.0  0.36770  0.17580  0.78010  1.0000
  C   C673      1.0  0.07100  0.39655  0.50912  1.0000
  C   C674      1.0  0.67900  0.35345  0.50912  1.0000
  C   C675      1.0  0.67900  0.39655  0.24088  1.0000
  C   C676      1.0  0.07100  0.35345  0.24088  1.0000
  C   C677      1.0  0.07100  0.89655  0.00912  1.0000
  C   C678      1.0  0.67900  0.85345  0.00912  1.0000
  C   C679      1.0  0.67900  0.89655  0.74088  1.0000
  C   C680      1.0  0.07100  0.85345  0.74088  1.0000
  C   C681      1.0  0.57100  0.39655  0.00912  1.0000
  C   C682      1.0  0.17900  0.35345  0.00912  1.0000
  C   C683      1.0  0.17900  0.39655  0.74088  1.0000
  C   C684      1.0  0.57100  0.35345  0.74088  1.0000
  C   C685      1.0  0.57100  0.89655  0.50912  1.0000
  C   C686      1.0  0.17900  0.85345  0.50912  1.0000
  C   C687      1.0  0.17900  0.89655  0.24088  1.0000
  C   C688      1.0  0.57100  0.85345  0.24088  1.0000
  C   C689      1.0  0.92900  0.60345  0.49088  1.0000
  C   C690      1.0  0.32100  0.64655  0.49088  1.0000
  C   C691      1.0  0.32100  0.60345  0.75912  1.0000
  C   C692      1.0  0.92900  0.64655  0.75912  1.0000
  C   C693      1.0  0.92900  0.10345  0.99088  1.0000
  C   C694      1.0  0.32100  0.14655  0.99088  1.0000
  C   C695      1.0  0.32100  0.10345  0.25912  1.0000
  C   C696      1.0  0.92900  0.14655  0.25912  1.0000
  C   C697      1.0  0.42900  0.60345  0.99088  1.0000
  C   C698      1.0  0.82100  0.64655  0.99088  1.0000
  C   C699      1.0  0.82100  0.60345  0.25912  1.0000
  C   C700      1.0  0.42900  0.64655  0.25912  1.0000
  C   C701      1.0  0.42900  0.10345  0.49088  1.0000
  C   C702      1.0  0.82100  0.14655  0.49088  1.0000
  C   C703      1.0  0.82100  0.10345  0.75912  1.0000
  C   C704      1.0  0.42900  0.14655  0.75912  1.0000
  H   H417      1.0  0.09390  0.38900  0.49180  1.0000
  H   H418      1.0  0.65610  0.36100  0.49180  1.0000
  H   H419      1.0  0.65610  0.38900  0.25820  1.0000
  H   H420      1.0  0.09390  0.36100  0.25820  1.0000
  H   H421      1.0  0.09390  0.88900  0.99180  1.0000
  H   H422      1.0  0.65610  0.86100  0.99180  1.0000
  H   H423      1.0  0.65610  0.88900  0.75820  1.0000
  H   H424      1.0  0.09390  0.86100  0.75820  1.0000
  H   H425      1.0  0.59390  0.38900  0.99180  1.0000
  H   H426      1.0  0.15610  0.36100  0.99180  1.0000
  H   H427      1.0  0.15610  0.38900  0.75820  1.0000
  H   H428      1.0  0.59390  0.36100  0.75820  1.0000
  H   H429      1.0  0.59390  0.88900  0.49180  1.0000
  H   H430      1.0  0.15610  0.86100  0.49180  1.0000
  H   H431      1.0  0.15610  0.88900  0.25820  1.0000
  H   H432      1.0  0.59390  0.86100  0.25820  1.0000
  H   H433      1.0  0.90610  0.61100  0.50820  1.0000
  H   H434      1.0  0.34390  0.63900  0.50820  1.0000
  H   H435      1.0  0.34390  0.61100  0.74180  1.0000
  H   H436      1.0  0.90610  0.63900  0.74180  1.0000
  H   H437      1.0  0.90610  0.11100  0.00820  1.0000
  H   H438      1.0  0.34390  0.13900  0.00820  1.0000
  H   H439      1.0  0.34390  0.11100  0.24180  1.0000
  H   H440      1.0  0.90610  0.13900  0.24180  1.0000
  H   H441      1.0  0.40610  0.61100  0.00820  1.0000
  H   H442      1.0  0.84390  0.63900  0.00820  1.0000
  H   H443      1.0  0.84390  0.61100  0.24180  1.0000
  H   H444      1.0  0.40610  0.63900  0.24180  1.0000
  H   H445      1.0  0.40610  0.11100  0.50820  1.0000
  H   H446      1.0  0.84390  0.13900  0.50820  1.0000
  H   H447      1.0  0.84390  0.11100  0.74180  1.0000
  H   H448      1.0  0.40610  0.13900  0.74180  1.0000
  C   C705      1.0  0.01520  0.38545  0.51183  1.0000
  C   C706      1.0  0.73480  0.36455  0.51183  1.0000
  C   C707      1.0  0.73480  0.38545  0.23817  1.0000
  C   C708      1.0  0.01520  0.36455  0.23817  1.0000
  C   C709      1.0  0.01520  0.88545  0.01183  1.0000
  C   C710      1.0  0.73480  0.86455  0.01183  1.0000
  C   C711      1.0  0.73480  0.88545  0.73817  1.0000
  C   C712      1.0  0.01520  0.86455  0.73817  1.0000
  C   C713      1.0  0.51520  0.38545  0.01183  1.0000
  C   C714      1.0  0.23480  0.36455  0.01183  1.0000
  C   C715      1.0  0.23480  0.38545  0.73817  1.0000
  C   C716      1.0  0.51520  0.36455  0.73817  1.0000
  C   C717      1.0  0.51520  0.88545  0.51183  1.0000
  C   C718      1.0  0.23480  0.86455  0.51183  1.0000
  C   C719      1.0  0.23480  0.88545  0.23817  1.0000
  C   C720      1.0  0.51520  0.86455  0.23817  1.0000
  C   C721      1.0  0.98480  0.61455  0.48817  1.0000
  C   C722      1.0  0.26520  0.63545  0.48817  1.0000
  C   C723      1.0  0.26520  0.61455  0.76183  1.0000
  C   C724      1.0  0.98480  0.63545  0.76183  1.0000
  C   C725      1.0  0.98480  0.11455  0.98817  1.0000
  C   C726      1.0  0.26520  0.13545  0.98817  1.0000
  C   C727      1.0  0.26520  0.11455  0.26183  1.0000
  C   C728      1.0  0.98480  0.13545  0.26183  1.0000
  C   C729      1.0  0.48480  0.61455  0.98817  1.0000
  C   C730      1.0  0.76520  0.63545  0.98817  1.0000
  C   C731      1.0  0.76520  0.61455  0.26183  1.0000
  C   C732      1.0  0.48480  0.63545  0.26183  1.0000
  C   C733      1.0  0.48480  0.11455  0.48817  1.0000
  C   C734      1.0  0.76520  0.13545  0.48817  1.0000
  C   C735      1.0  0.76520  0.11455  0.76183  1.0000
  C   C736      1.0  0.48480  0.13545  0.76183  1.0000
  C   C737      1.0  0.98290  0.39745  0.53715  1.0000
  C   C738      1.0  0.76710  0.35255  0.53715  1.0000
  C   C739      1.0  0.76710  0.39745  0.21285  1.0000
  C   C740      1.0  0.98290  0.35255  0.21285  1.0000
  C   C741      1.0  0.98290  0.89745  0.03715  1.0000
  C   C742      1.0  0.76710  0.85255  0.03715  1.0000
  C   C743      1.0  0.76710  0.89745  0.71285  1.0000
  C   C744      1.0  0.98290  0.85255  0.71285  1.0000
  C   C745      1.0  0.48290  0.39745  0.03715  1.0000
  C   C746      1.0  0.26710  0.35255  0.03715  1.0000
  C   C747      1.0  0.26710  0.39745  0.71285  1.0000
  C   C748      1.0  0.48290  0.35255  0.71285  1.0000
  C   C749      1.0  0.48290  0.89745  0.53715  1.0000
  C   C750      1.0  0.26710  0.85255  0.53715  1.0000
  C   C751      1.0  0.26710  0.89745  0.21285  1.0000
  C   C752      1.0  0.48290  0.85255  0.21285  1.0000
  C   C753      1.0  0.01710  0.60255  0.46285  1.0000
  C   C754      1.0  0.23290  0.64745  0.46285  1.0000
  C   C755      1.0  0.23290  0.60255  0.78715  1.0000
  C   C756      1.0  0.01710  0.64745  0.78715  1.0000
  C   C757      1.0  0.01710  0.10255  0.96285  1.0000
  C   C758      1.0  0.23290  0.14745  0.96285  1.0000
  C   C759      1.0  0.23290  0.10255  0.28715  1.0000
  C   C760      1.0  0.01710  0.14745  0.28715  1.0000
  C   C761      1.0  0.51710  0.60255  0.96285  1.0000
  C   C762      1.0  0.73290  0.64745  0.96285  1.0000
  C   C763      1.0  0.73290  0.60255  0.28715  1.0000
  C   C764      1.0  0.51710  0.64745  0.28715  1.0000
  C   C765      1.0  0.51710  0.10255  0.46285  1.0000
  C   C766      1.0  0.73290  0.14745  0.46285  1.0000
  C   C767      1.0  0.73290  0.10255  0.78715  1.0000
  C   C768      1.0  0.51710  0.14745  0.78715  1.0000
  H   H449      1.0  0.94510  0.38970  0.53950  1.0000
  H   H450      1.0  0.80490  0.36030  0.53950  1.0000
  H   H451      1.0  0.80490  0.38970  0.21050  1.0000
  H   H452      1.0  0.94510  0.36030  0.21050  1.0000
  H   H453      1.0  0.94510  0.88970  0.03950  1.0000
  H   H454      1.0  0.80490  0.86030  0.03950  1.0000
  H   H455      1.0  0.80490  0.88970  0.71050  1.0000
  H   H456      1.0  0.94510  0.86030  0.71050  1.0000
  H   H457      1.0  0.44510  0.38970  0.03950  1.0000
  H   H458      1.0  0.30490  0.36030  0.03950  1.0000
  H   H459      1.0  0.30490  0.38970  0.71050  1.0000
  H   H460      1.0  0.44510  0.36030  0.71050  1.0000
  H   H461      1.0  0.44510  0.88970  0.53950  1.0000
  H   H462      1.0  0.30490  0.86030  0.53950  1.0000
  H   H463      1.0  0.30490  0.88970  0.21050  1.0000
  H   H464      1.0  0.44510  0.86030  0.21050  1.0000
  H   H465      1.0  0.05490  0.61030  0.46050  1.0000
  H   H466      1.0  0.19510  0.63970  0.46050  1.0000
  H   H467      1.0  0.19510  0.61030  0.78950  1.0000
  H   H468      1.0  0.05490  0.63970  0.78950  1.0000
  H   H469      1.0  0.05490  0.11030  0.96050  1.0000
  H   H470      1.0  0.19510  0.13970  0.96050  1.0000
  H   H471      1.0  0.19510  0.11030  0.28950  1.0000
  H   H472      1.0  0.05490  0.13970  0.28950  1.0000
  H   H473      1.0  0.55490  0.61030  0.96050  1.0000
  H   H474      1.0  0.69510  0.63970  0.96050  1.0000
  H   H475      1.0  0.69510  0.61030  0.28950  1.0000
  H   H476      1.0  0.55490  0.63970  0.28950  1.0000
  H   H477      1.0  0.55490  0.11030  0.46050  1.0000
  H   H478      1.0  0.69510  0.13970  0.46050  1.0000
  H   H479      1.0  0.69510  0.11030  0.78950  1.0000
  H   H480      1.0  0.55490  0.13970  0.78950  1.0000
  C   C769      1.0  0.00440  0.42116  0.56013  1.0000
  C   C770      1.0  0.74560  0.32884  0.56013  1.0000
  C   C771      1.0  0.74560  0.42116  0.18987  1.0000
  C   C772      1.0  0.00440  0.32884  0.18987  1.0000
  C   C773      1.0  0.00440  0.92116  0.06013  1.0000
  C   C774      1.0  0.74560  0.82884  0.06013  1.0000
  C   C775      1.0  0.74560  0.92116  0.68987  1.0000
  C   C776      1.0  0.00440  0.82884  0.68987  1.0000
  C   C777      1.0  0.50440  0.42116  0.06013  1.0000
  C   C778      1.0  0.24560  0.32884  0.06013  1.0000
  C   C779      1.0  0.24560  0.42116  0.68987  1.0000
  C   C780      1.0  0.50440  0.32884  0.68987  1.0000
  C   C781      1.0  0.50440  0.92116  0.56013  1.0000
  C   C782      1.0  0.24560  0.82884  0.56013  1.0000
  C   C783      1.0  0.24560  0.92116  0.18987  1.0000
  C   C784      1.0  0.50440  0.82884  0.18987  1.0000
  C   C785      1.0  0.99560  0.57884  0.43987  1.0000
  C   C786      1.0  0.25440  0.67116  0.43987  1.0000
  C   C787      1.0  0.25440  0.57884  0.81013  1.0000
  C   C788      1.0  0.99560  0.67116  0.81013  1.0000
  C   C789      1.0  0.99560  0.07884  0.93987  1.0000
  C   C790      1.0  0.25440  0.17116  0.93987  1.0000
  C   C791      1.0  0.25440  0.07884  0.31013  1.0000
  C   C792      1.0  0.99560  0.17116  0.31013  1.0000
  C   C793      1.0  0.49560  0.57884  0.93987  1.0000
  C   C794      1.0  0.75440  0.67116  0.93987  1.0000
  C   C795      1.0  0.75440  0.57884  0.31013  1.0000
  C   C796      1.0  0.49560  0.67116  0.31013  1.0000
  C   C797      1.0  0.49560  0.07884  0.43987  1.0000
  C   C798      1.0  0.75440  0.17116  0.43987  1.0000
  C   C799      1.0  0.75440  0.07884  0.81013  1.0000
  C   C800      1.0  0.49560  0.17116  0.81013  1.0000
  H   H481      1.0  0.98060  0.42970  0.57660  1.0000
  H   H482      1.0  0.76940  0.32030  0.57660  1.0000
  H   H483      1.0  0.76940  0.42970  0.17340  1.0000
  H   H484      1.0  0.98060  0.32030  0.17340  1.0000
  H   H485      1.0  0.98060  0.92970  0.07660  1.0000
  H   H486      1.0  0.76940  0.82030  0.07660  1.0000
  H   H487      1.0  0.76940  0.92970  0.67340  1.0000
  H   H488      1.0  0.98060  0.82030  0.67340  1.0000
  H   H489      1.0  0.48060  0.42970  0.07660  1.0000
  H   H490      1.0  0.26940  0.32030  0.07660  1.0000
  H   H491      1.0  0.26940  0.42970  0.67340  1.0000
  H   H492      1.0  0.48060  0.32030  0.67340  1.0000
  H   H493      1.0  0.48060  0.92970  0.57660  1.0000
  H   H494      1.0  0.26940  0.82030  0.57660  1.0000
  H   H495      1.0  0.26940  0.92970  0.17340  1.0000
  H   H496      1.0  0.48060  0.82030  0.17340  1.0000
  H   H497      1.0  0.01940  0.57030  0.42340  1.0000
  H   H498      1.0  0.23060  0.67970  0.42340  1.0000
  H   H499      1.0  0.23060  0.57030  0.82660  1.0000
  H   H500      1.0  0.01940  0.67970  0.82660  1.0000
  H   H501      1.0  0.01940  0.07030  0.92340  1.0000
  H   H502      1.0  0.23060  0.17970  0.92340  1.0000
  H   H503      1.0  0.23060  0.07030  0.32660  1.0000
  H   H504      1.0  0.01940  0.17970  0.32660  1.0000
  H   H505      1.0  0.51940  0.57030  0.92340  1.0000
  H   H506      1.0  0.73060  0.67970  0.92340  1.0000
  H   H507      1.0  0.73060  0.57030  0.32660  1.0000
  H   H508      1.0  0.51940  0.67970  0.32660  1.0000
  H   H509      1.0  0.51940  0.07030  0.42340  1.0000
  H   H510      1.0  0.73060  0.17970  0.42340  1.0000
  H   H511      1.0  0.73060  0.07030  0.82660  1.0000
  H   H512      1.0  0.51940  0.17970  0.82660  1.0000
  C   C801      1.0  0.06040  0.43134  0.55774  1.0000
  C   C802      1.0  0.68960  0.31866  0.55774  1.0000
  C   C803      1.0  0.68960  0.43134  0.19226  1.0000
  C   C804      1.0  0.06040  0.31866  0.19226  1.0000
  C   C805      1.0  0.06040  0.93134  0.05774  1.0000
  C   C806      1.0  0.68960  0.81866  0.05774  1.0000
  C   C807      1.0  0.68960  0.93134  0.69226  1.0000
  C   C808      1.0  0.06040  0.81866  0.69226  1.0000
  C   C809      1.0  0.56040  0.43134  0.05774  1.0000
  C   C810      1.0  0.18960  0.31866  0.05774  1.0000
  C   C811      1.0  0.18960  0.43134  0.69226  1.0000
  C   C812      1.0  0.56040  0.31866  0.69226  1.0000
  C   C813      1.0  0.56040  0.93134  0.55774  1.0000
  C   C814      1.0  0.18960  0.81866  0.55774  1.0000
  C   C815      1.0  0.18960  0.93134  0.19226  1.0000
  C   C816      1.0  0.56040  0.81866  0.19226  1.0000
  C   C817      1.0  0.93960  0.56866  0.44226  1.0000
  C   C818      1.0  0.31040  0.68134  0.44226  1.0000
  C   C819      1.0  0.31040  0.56866  0.80774  1.0000
  C   C820      1.0  0.93960  0.68134  0.80774  1.0000
  C   C821      1.0  0.93960  0.06866  0.94226  1.0000
  C   C822      1.0  0.31040  0.18134  0.94226  1.0000
  C   C823      1.0  0.31040  0.06866  0.30774  1.0000
  C   C824      1.0  0.93960  0.18134  0.30774  1.0000
  C   C825      1.0  0.43960  0.56866  0.94226  1.0000
  C   C826      1.0  0.81040  0.68134  0.94226  1.0000
  C   C827      1.0  0.81040  0.56866  0.30774  1.0000
  C   C828      1.0  0.43960  0.68134  0.30774  1.0000
  C   C829      1.0  0.43960  0.06866  0.44226  1.0000
  C   C830      1.0  0.81040  0.18134  0.44226  1.0000
  C   C831      1.0  0.81040  0.06866  0.80774  1.0000
  C   C832      1.0  0.43960  0.18134  0.80774  1.0000
  C   C833      1.0  0.91790  0.29217  0.41779  1.0000
  C   C834      1.0  0.83210  0.45783  0.41779  1.0000
  C   C835      1.0  0.83210  0.29217  0.33221  1.0000
  C   C836      1.0  0.91790  0.45783  0.33221  1.0000
  C   C837      1.0  0.91790  0.79217  0.91779  1.0000
  C   C838      1.0  0.83210  0.95783  0.91779  1.0000
  C   C839      1.0  0.83210  0.79217  0.83221  1.0000
  C   C840      1.0  0.91790  0.95783  0.83221  1.0000
  C   C841      1.0  0.41790  0.29217  0.91779  1.0000
  C   C842      1.0  0.33210  0.45783  0.91779  1.0000
  C   C843      1.0  0.33210  0.29217  0.83221  1.0000
  C   C844      1.0  0.41790  0.45783  0.83221  1.0000
  C   C845      1.0  0.41790  0.79217  0.41779  1.0000
  C   C846      1.0  0.33210  0.95783  0.41779  1.0000
  C   C847      1.0  0.33210  0.79217  0.33221  1.0000
  C   C848      1.0  0.41790  0.95783  0.33221  1.0000
  C   C849      1.0  0.08210  0.70783  0.58221  1.0000
  C   C850      1.0  0.16790  0.54217  0.58221  1.0000
  C   C851      1.0  0.16790  0.70783  0.66779  1.0000
  C   C852      1.0  0.08210  0.54217  0.66779  1.0000
  C   C853      1.0  0.08210  0.20783  0.08221  1.0000
  C   C854      1.0  0.16790  0.04217  0.08221  1.0000
  C   C855      1.0  0.16790  0.20783  0.16779  1.0000
  C   C856      1.0  0.08210  0.04217  0.16779  1.0000
  C   C857      1.0  0.58210  0.70783  0.08221  1.0000
  C   C858      1.0  0.66790  0.54217  0.08221  1.0000
  C   C859      1.0  0.66790  0.70783  0.16779  1.0000
  C   C860      1.0  0.58210  0.54217  0.16779  1.0000
  C   C861      1.0  0.58210  0.20783  0.58221  1.0000
  C   C862      1.0  0.66790  0.04217  0.58221  1.0000
  C   C863      1.0  0.66790  0.20783  0.66779  1.0000
  C   C864      1.0  0.58210  0.04217  0.66779  1.0000
  C   C865      1.0  0.08440  0.45553  0.58232  1.0000
  C   C866      1.0  0.66560  0.29447  0.58232  1.0000
  C   C867      1.0  0.66560  0.45553  0.16768  1.0000
  C   C868      1.0  0.08440  0.29447  0.16768  1.0000
  C   C869      1.0  0.08440  0.95553  0.08232  1.0000
  C   C870      1.0  0.66560  0.79447  0.08232  1.0000
  C   C871      1.0  0.66560  0.95553  0.66768  1.0000
  C   C872      1.0  0.08440  0.79447  0.66768  1.0000
  C   C873      1.0  0.58440  0.45553  0.08232  1.0000
  C   C874      1.0  0.16560  0.29447  0.08232  1.0000
  C   C875      1.0  0.16560  0.45553  0.66768  1.0000
  C   C876      1.0  0.58440  0.29447  0.66768  1.0000
  C   C877      1.0  0.58440  0.95553  0.58232  1.0000
  C   C878      1.0  0.16560  0.79447  0.58232  1.0000
  C   C879      1.0  0.16560  0.95553  0.16768  1.0000
  C   C880      1.0  0.58440  0.79447  0.16768  1.0000
  C   C881      1.0  0.91560  0.54447  0.41768  1.0000
  C   C882      1.0  0.33440  0.70553  0.41768  1.0000
  C   C883      1.0  0.33440  0.54447  0.83232  1.0000
  C   C884      1.0  0.91560  0.70553  0.83232  1.0000
  C   C885      1.0  0.91560  0.04447  0.91768  1.0000
  C   C886      1.0  0.33440  0.20553  0.91768  1.0000
  C   C887      1.0  0.33440  0.04447  0.33232  1.0000
  C   C888      1.0  0.91560  0.20553  0.33232  1.0000
  C   C889      1.0  0.41560  0.54447  0.91768  1.0000
  C   C890      1.0  0.83440  0.70553  0.91768  1.0000
  C   C891      1.0  0.83440  0.54447  0.33232  1.0000
  C   C892      1.0  0.41560  0.70553  0.33232  1.0000
  C   C893      1.0  0.41560  0.04447  0.41768  1.0000
  C   C894      1.0  0.83440  0.20553  0.41768  1.0000
  C   C895      1.0  0.83440  0.04447  0.83232  1.0000
  C   C896      1.0  0.41560  0.20553  0.83232  1.0000
