data_image0
_chemical_formula_structural       Cd2N12C24H12C12
_chemical_formula_sum              "Cd2 N12 C36 H12"
_cell_length_a       12.9515
_cell_length_b       12.9515
_cell_length_c       10.8818
_cell_angle_alpha    90
_cell_angle_beta     90
_cell_angle_gamma    120

_space_group_name_H-M_alt    "P 1"
_space_group_IT_number       1

loop_
  _space_group_symop_operation_xyz
  'x, y, z'

loop_
  _atom_site_type_symbol
  _atom_site_label
  _atom_site_symmetry_multiplicity
  _atom_site_fract_x
  _atom_site_fract_y
  _atom_site_fract_z
  _atom_site_occupancy
  Cd  Cd1       1.0  0.33330  0.66670  0.50000  1.0000
  Cd  Cd2       1.0  0.66670  0.33330  0.50000  1.0000
  N   N1        1.0  0.48200  0.67400  0.37580  1.0000
  N   N2        1.0  0.32600  0.80800  0.37580  1.0000
  N   N3        1.0  0.32600  0.51800  0.62420  1.0000
  N   N4        1.0  0.19200  0.51800  0.37580  1.0000
  N   N5        1.0  0.48200  0.80800  0.62420  1.0000
  N   N6        1.0  0.19200  0.67400  0.62420  1.0000
  N   N7        1.0  0.51800  0.32600  0.62420  1.0000
  N   N8        1.0  0.67400  0.19200  0.62420  1.0000
  N   N9        1.0  0.67400  0.48200  0.37580  1.0000
  N   N10       1.0  0.80800  0.48200  0.62420  1.0000
  N   N11       1.0  0.51800  0.19200  0.37580  1.0000
  N   N12       1.0  0.80800  0.32600  0.37580  1.0000
  C   C1        1.0  0.55810  0.55810  0.25640  1.0000
  C   C2        1.0  0.44190  0.00000  0.25640  1.0000
  C   C3        1.0  0.44190  0.44190  0.74360  1.0000
  C   C4        1.0  0.00000  0.44190  0.25640  1.0000
  C   C5        1.0  0.55810  0.00000  0.74360  1.0000
  C   C6        1.0  0.00000  0.55810  0.74360  1.0000
  C   C7        1.0  0.52870  0.52870  0.12580  1.0000
  C   C8        1.0  0.47130  0.00000  0.12580  1.0000
  C   C9        1.0  0.47130  0.47130  0.87420  1.0000
  C   C10       1.0  0.00000  0.47130  0.12580  1.0000
  C   C11       1.0  0.52870  0.00000  0.87420  1.0000
  C   C12       1.0  0.00000  0.52870  0.87420  1.0000
  C   C13       1.0  0.46140  0.56630  0.06150  1.0000
  C   C14       1.0  0.43370  0.89510  0.06150  1.0000
  C   C15       1.0  0.43370  0.53860  0.93850  1.0000
  C   C16       1.0  0.10490  0.53860  0.06150  1.0000
  C   C17       1.0  0.46140  0.89510  0.93850  1.0000
  C   C18       1.0  0.10490  0.56630  0.93850  1.0000
  C   C19       1.0  0.53860  0.43370  0.93850  1.0000
  C   C20       1.0  0.56630  0.10490  0.93850  1.0000
  C   C21       1.0  0.56630  0.46140  0.06150  1.0000
  C   C22       1.0  0.89510  0.46140  0.93850  1.0000
  C   C23       1.0  0.53860  0.10490  0.06150  1.0000
  C   C24       1.0  0.89510  0.43370  0.06150  1.0000
  H   H1        1.0  0.43340  0.61230  0.10270  1.0000
  H   H2        1.0  0.38770  0.82110  0.10270  1.0000
  H   H3        1.0  0.38770  0.56660  0.89730  1.0000
  H   H4        1.0  0.17890  0.56660  0.10270  1.0000
  H   H5        1.0  0.43340  0.82110  0.89730  1.0000
  H   H6        1.0  0.17890  0.61230  0.89730  1.0000
  H   H7        1.0  0.56660  0.38770  0.89730  1.0000
  H   H8        1.0  0.61230  0.17890  0.89730  1.0000
  H   H9        1.0  0.61230  0.43340  0.10270  1.0000
  H   H10       1.0  0.82110  0.43340  0.89730  1.0000
  H   H11       1.0  0.56660  0.17890  0.10270  1.0000
  H   H12       1.0  0.82110  0.38770  0.10270  1.0000
  C   C25       1.0  0.51560  0.62170  0.32200  1.0000
  C   C26       1.0  0.37830  0.89390  0.32200  1.0000
  C   C27       1.0  0.37830  0.48440  0.67800  1.0000
  C   C28       1.0  0.10610  0.48440  0.32200  1.0000
  C   C29       1.0  0.51560  0.89390  0.67800  1.0000
  C   C30       1.0  0.10610  0.62170  0.67800  1.0000
  C   C31       1.0  0.48440  0.37830  0.67800  1.0000
  C   C32       1.0  0.62170  0.10610  0.67800  1.0000
  C   C33       1.0  0.62170  0.51560  0.32200  1.0000
  C   C34       1.0  0.89390  0.51560  0.67800  1.0000
  C   C35       1.0  0.48440  0.10610  0.32200  1.0000
  C   C36       1.0  0.89390  0.37830  0.32200  1.0000
