data_image0
_chemical_formula_structural       Mn2N12C36H12
_chemical_formula_sum              "Mn2 N12 C36 H12"
_cell_length_a       13.0158
_cell_length_b       13.0158
_cell_length_c       10.8532
_cell_angle_alpha    90
_cell_angle_beta     90
_cell_angle_gamma    120

_space_group_name_H-M_alt    "P 1"
_space_group_IT_number       1

loop_
  _space_group_symop_operation_xyz
  'x, y, z'

loop_
  _atom_site_type_symbol
  _atom_site_label
  _atom_site_symmetry_multiplicity
  _atom_site_fract_x
  _atom_site_fract_y
  _atom_site_fract_z
  _atom_site_occupancy
  Mn  Mn1       1.0  0.66670  0.33330  0.00000  1.0000
  Mn  Mn2       1.0  0.33330  0.66670  0.00000  1.0000
  N   N1        1.0  0.53240  0.33940  0.12000  1.0000
  N   N2        1.0  0.66060  0.19300  0.12000  1.0000
  N   N3        1.0  0.80700  0.46760  0.12000  1.0000
  N   N4        1.0  0.66060  0.46760  0.88000  1.0000
  N   N5        1.0  0.53240  0.19300  0.88000  1.0000
  N   N6        1.0  0.80700  0.33940  0.88000  1.0000
  N   N7        1.0  0.46760  0.66060  0.88000  1.0000
  N   N8        1.0  0.33940  0.80700  0.88000  1.0000
  N   N9        1.0  0.19300  0.53240  0.88000  1.0000
  N   N10       1.0  0.33940  0.53240  0.12000  1.0000
  N   N11       1.0  0.46760  0.80700  0.12000  1.0000
  N   N12       1.0  0.19300  0.66060  0.12000  1.0000
  C   C1        1.0  0.49650  0.39150  0.17420  1.0000
  C   C2        1.0  0.60850  0.10500  0.17420  1.0000
  C   C3        1.0  0.89500  0.50350  0.17420  1.0000
  C   C4        1.0  0.60850  0.50350  0.82580  1.0000
  C   C5        1.0  0.49650  0.10500  0.82580  1.0000
  C   C6        1.0  0.89500  0.39150  0.82580  1.0000
  C   C7        1.0  0.50350  0.60850  0.82580  1.0000
  C   C8        1.0  0.39150  0.89500  0.82580  1.0000
  C   C9        1.0  0.10500  0.49650  0.82580  1.0000
  C   C10       1.0  0.39150  0.49650  0.17420  1.0000
  C   C11       1.0  0.50350  0.89500  0.17420  1.0000
  C   C12       1.0  0.10500  0.60850  0.17420  1.0000
  C   C13       1.0  0.45400  0.45400  0.23950  1.0000
  C   C14       1.0  0.54600  0.00000  0.23950  1.0000
  C   C15       1.0  0.00000  0.54600  0.23950  1.0000
  C   C16       1.0  0.54600  0.54600  0.76050  1.0000
  C   C17       1.0  0.45400  0.00000  0.76050  1.0000
  C   C18       1.0  0.00000  0.45400  0.76050  1.0000
  C   C19       1.0  0.47770  0.47770  0.37360  1.0000
  C   C20       1.0  0.52230  0.00000  0.37360  1.0000
  C   C21       1.0  0.00000  0.52230  0.37360  1.0000
  C   C22       1.0  0.52230  0.52230  0.62640  1.0000
  C   C23       1.0  0.47770  0.00000  0.62640  1.0000
  C   C24       1.0  0.00000  0.47770  0.62640  1.0000
  C   C25       1.0  0.43500  0.54200  0.43770  1.0000
  C   C26       1.0  0.45800  0.89300  0.43770  1.0000
  C   C27       1.0  0.10700  0.56500  0.43770  1.0000
  C   C28       1.0  0.45800  0.56500  0.56230  1.0000
  C   C29       1.0  0.43500  0.89300  0.56230  1.0000
  C   C30       1.0  0.10700  0.54200  0.56230  1.0000
  C   C31       1.0  0.56500  0.45800  0.56230  1.0000
  C   C32       1.0  0.54200  0.10700  0.56230  1.0000
  C   C33       1.0  0.89300  0.43500  0.56230  1.0000
  C   C34       1.0  0.54200  0.43500  0.43770  1.0000
  C   C35       1.0  0.56500  0.10700  0.43770  1.0000
  C   C36       1.0  0.89300  0.45800  0.43770  1.0000
  H   H1        1.0  0.39000  0.57020  0.39540  1.0000
  H   H2        1.0  0.42980  0.81980  0.39540  1.0000
  H   H3        1.0  0.18020  0.61000  0.39540  1.0000
  H   H4        1.0  0.42980  0.61000  0.60460  1.0000
  H   H5        1.0  0.39000  0.81980  0.60460  1.0000
  H   H6        1.0  0.18020  0.57020  0.60460  1.0000
  H   H7        1.0  0.61000  0.42980  0.60460  1.0000
  H   H8        1.0  0.57020  0.18020  0.60460  1.0000
  H   H9        1.0  0.81980  0.39000  0.60460  1.0000
  H   H10       1.0  0.57020  0.39000  0.39540  1.0000
  H   H11       1.0  0.61000  0.18020  0.39540  1.0000
  H   H12       1.0  0.81980  0.42980  0.39540  1.0000
