data_image0
_chemical_formula_structural       Cu8Sr4N16O48C40H8C8H8C8H8C16H24C8H24C40H8C8H8C8H8C16H24C8H24
_chemical_formula_sum              "Cu8 Sr4 N16 O48 C160 H144"
_cell_length_a       17.731
_cell_length_b       15.981
_cell_length_c       28.505
_cell_angle_alpha    90
_cell_angle_beta     90
_cell_angle_gamma    90

_space_group_name_H-M_alt    "P 1"
_space_group_IT_number       1

loop_
  _space_group_symop_operation_xyz
  'x, y, z'

loop_
  _atom_site_type_symbol
  _atom_site_label
  _atom_site_symmetry_multiplicity
  _atom_site_fract_x
  _atom_site_fract_y
  _atom_site_fract_z
  _atom_site_occupancy
  Cu  Cu1       1.0  0.25110  0.24735  0.49994  1.0000
  Cu  Cu2       1.0  0.24890  0.75265  0.99994  1.0000
  Cu  Cu3       1.0  0.75110  0.25265  0.50006  1.0000
  Cu  Cu4       1.0  0.74890  0.74735  0.00006  1.0000
  Cu  Cu5       1.0  0.74890  0.75265  0.50006  1.0000
  Cu  Cu6       1.0  0.75110  0.24735  0.00006  1.0000
  Cu  Cu7       1.0  0.24890  0.74735  0.49994  1.0000
  Cu  Cu8       1.0  0.25110  0.25265  0.99994  1.0000
  Sr  Sr1       1.0  0.00000  0.00000  0.50000  1.0000
  Sr  Sr2       1.0  0.50000  0.00000  0.00000  1.0000
  Sr  Sr3       1.0  0.50000  0.50000  0.50000  1.0000
  Sr  Sr4       1.0  0.00000  0.50000  0.00000  1.0000
  N   N1        1.0  0.20746  0.16571  0.45644  1.0000
  N   N2        1.0  0.29254  0.83429  0.95644  1.0000
  N   N3        1.0  0.70746  0.33429  0.54356  1.0000
  N   N4        1.0  0.79254  0.66571  0.04356  1.0000
  N   N5        1.0  0.79254  0.83429  0.54356  1.0000
  N   N6        1.0  0.70746  0.16571  0.04356  1.0000
  N   N7        1.0  0.29254  0.66571  0.45644  1.0000
  N   N8        1.0  0.20746  0.33429  0.95644  1.0000
  N   N9        1.0  0.79961  0.17858  0.45450  1.0000
  N   N10       1.0  0.70039  0.82142  0.95450  1.0000
  N   N11       1.0  0.29961  0.32142  0.54550  1.0000
  N   N12       1.0  0.20039  0.67858  0.04550  1.0000
  N   N13       1.0  0.20039  0.82142  0.54550  1.0000
  N   N14       1.0  0.29961  0.17858  0.04550  1.0000
  N   N15       1.0  0.70039  0.67858  0.45450  1.0000
  N   N16       1.0  0.79961  0.32142  0.95450  1.0000
  O   O1        1.0  0.17325  0.20829  0.54314  1.0000
  O   O2        1.0  0.32675  0.79171  0.04314  1.0000
  O   O3        1.0  0.67325  0.29171  0.45686  1.0000
  O   O4        1.0  0.82675  0.70829  0.95686  1.0000
  O   O5        1.0  0.82675  0.79171  0.45686  1.0000
  O   O6        1.0  0.67325  0.20829  0.95686  1.0000
  O   O7        1.0  0.32675  0.70829  0.54314  1.0000
  O   O8        1.0  0.17325  0.29171  0.04314  1.0000
  O   O9        1.0  0.07978  0.11430  0.54566  1.0000
  O   O10       1.0  0.42022  0.88570  0.04566  1.0000
  O   O11       1.0  0.57978  0.38570  0.45434  1.0000
  O   O12       1.0  0.92022  0.61430  0.95434  1.0000
  O   O13       1.0  0.92022  0.88570  0.45434  1.0000
  O   O14       1.0  0.57978  0.11430  0.95434  1.0000
  O   O15       1.0  0.42022  0.61430  0.54566  1.0000
  O   O16       1.0  0.07978  0.38570  0.04566  1.0000
  O   O17       1.0  0.10218  0.07983  0.45349  1.0000
  O   O18       1.0  0.39782  0.92017  0.95349  1.0000
  O   O19       1.0  0.60218  0.42017  0.54651  1.0000
  O   O20       1.0  0.89782  0.57983  0.04651  1.0000
  O   O21       1.0  0.89782  0.92017  0.54651  1.0000
  O   O22       1.0  0.60218  0.07983  0.04651  1.0000
  O   O23       1.0  0.39782  0.57983  0.45349  1.0000
  O   O24       1.0  0.10218  0.42017  0.95349  1.0000
  O   O25       1.0  0.82186  0.20376  0.54421  1.0000
  O   O26       1.0  0.67814  0.79624  0.04421  1.0000
  O   O27       1.0  0.32186  0.29624  0.45579  1.0000
  O   O28       1.0  0.17814  0.70376  0.95579  1.0000
  O   O29       1.0  0.17814  0.79624  0.45579  1.0000
  O   O30       1.0  0.32186  0.20376  0.95579  1.0000
  O   O31       1.0  0.67814  0.70376  0.54421  1.0000
  O   O32       1.0  0.82186  0.29624  0.04421  1.0000
  O   O33       1.0  0.91585  0.11034  0.54623  1.0000
  O   O34       1.0  0.58415  0.88966  0.04623  1.0000
  O   O35       1.0  0.41585  0.38966  0.45377  1.0000
  O   O36       1.0  0.08415  0.61034  0.95377  1.0000
  O   O37       1.0  0.08415  0.88966  0.45377  1.0000
  O   O38       1.0  0.41585  0.11034  0.95377  1.0000
  O   O39       1.0  0.58415  0.61034  0.54623  1.0000
  O   O40       1.0  0.91585  0.38966  0.04623  1.0000
  O   O41       1.0  0.90042  0.08580  0.45191  1.0000
  O   O42       1.0  0.59958  0.91420  0.95191  1.0000
  O   O43       1.0  0.40042  0.41420  0.54809  1.0000
  O   O44       1.0  0.09958  0.58580  0.04809  1.0000
  O   O45       1.0  0.09958  0.91420  0.54809  1.0000
  O   O46       1.0  0.40042  0.08580  0.04809  1.0000
  O   O47       1.0  0.59958  0.58580  0.45191  1.0000
  O   O48       1.0  0.90042  0.41420  0.95191  1.0000
  C   C1        1.0  0.13064  0.15176  0.52527  1.0000
  C   C2        1.0  0.36936  0.84824  0.02527  1.0000
  C   C3        1.0  0.63064  0.34824  0.47473  1.0000
  C   C4        1.0  0.86936  0.65176  0.97473  1.0000
  C   C5        1.0  0.86936  0.84824  0.47473  1.0000
  C   C6        1.0  0.63064  0.15176  0.97473  1.0000
  C   C7        1.0  0.36936  0.65176  0.52527  1.0000
  C   C8        1.0  0.13064  0.34824  0.02527  1.0000
  C   C9        1.0  0.14578  0.12928  0.47365  1.0000
  C   C10       1.0  0.35422  0.87072  0.97365  1.0000
  C   C11       1.0  0.64578  0.37072  0.52635  1.0000
  C   C12       1.0  0.85422  0.62928  0.02635  1.0000
  C   C13       1.0  0.85422  0.87072  0.52635  1.0000
  C   C14       1.0  0.64578  0.12928  0.02635  1.0000
  C   C15       1.0  0.35422  0.62928  0.47365  1.0000
  C   C16       1.0  0.14578  0.37072  0.97365  1.0000
  C   C17       1.0  0.22919  0.14094  0.41029  1.0000
  C   C18       1.0  0.27081  0.85906  0.91029  1.0000
  C   C19       1.0  0.72919  0.35906  0.58971  1.0000
  C   C20       1.0  0.77081  0.64094  0.08971  1.0000
  C   C21       1.0  0.77081  0.85906  0.58971  1.0000
  C   C22       1.0  0.72919  0.14094  0.08971  1.0000
  C   C23       1.0  0.27081  0.64094  0.41029  1.0000
  C   C24       1.0  0.22919  0.35906  0.91029  1.0000
  C   C25       1.0  0.26568  0.06361  0.40411  1.0000
  C   C26       1.0  0.23432  0.93639  0.90411  1.0000
  C   C27       1.0  0.76568  0.43639  0.59589  1.0000
  C   C28       1.0  0.73432  0.56361  0.09589  1.0000
  C   C29       1.0  0.73432  0.93639  0.59589  1.0000
  C   C30       1.0  0.76568  0.06361  0.09589  1.0000
  C   C31       1.0  0.23432  0.56361  0.40411  1.0000
  C   C32       1.0  0.26568  0.43639  0.90411  1.0000
  C   C33       1.0  0.28357  0.03759  0.35869  1.0000
  C   C34       1.0  0.21643  0.96241  0.85869  1.0000
  C   C35       1.0  0.78357  0.46241  0.64131  1.0000
  C   C36       1.0  0.71643  0.53759  0.14131  1.0000
  C   C37       1.0  0.71643  0.96241  0.64131  1.0000
  C   C38       1.0  0.78357  0.03759  0.14131  1.0000
  C   C39       1.0  0.21643  0.53759  0.35869  1.0000
  C   C40       1.0  0.28357  0.46241  0.85869  1.0000
  H   H1        1.0  0.30820  0.98680  0.35430  1.0000
  H   H2        1.0  0.19180  0.01320  0.85430  1.0000
  H   H3        1.0  0.80820  0.51320  0.64570  1.0000
  H   H4        1.0  0.69180  0.48680  0.14570  1.0000
  H   H5        1.0  0.69180  0.01320  0.64570  1.0000
  H   H6        1.0  0.80820  0.98680  0.14570  1.0000
  H   H7        1.0  0.19180  0.48680  0.35430  1.0000
  H   H8        1.0  0.30820  0.51320  0.85430  1.0000
  C   C41       1.0  0.26526  0.08605  0.32034  1.0000
  C   C42       1.0  0.23474  0.91395  0.82034  1.0000
  C   C43       1.0  0.76526  0.41395  0.67966  1.0000
  C   C44       1.0  0.73474  0.58605  0.17966  1.0000
  C   C45       1.0  0.73474  0.91395  0.67966  1.0000
  C   C46       1.0  0.76526  0.08605  0.17966  1.0000
  C   C47       1.0  0.23474  0.58605  0.32034  1.0000
  C   C48       1.0  0.26526  0.41395  0.82034  1.0000
  H   H9        1.0  0.27670  0.06760  0.29020  1.0000
  H   H10       1.0  0.22330  0.93240  0.79020  1.0000
  H   H11       1.0  0.77670  0.43240  0.70980  1.0000
  H   H12       1.0  0.72330  0.56760  0.20980  1.0000
  H   H13       1.0  0.72330  0.93240  0.70980  1.0000
  H   H14       1.0  0.77670  0.06760  0.20980  1.0000
  H   H15       1.0  0.22330  0.56760  0.29020  1.0000
  H   H16       1.0  0.27670  0.43240  0.79020  1.0000
  C   C49       1.0  0.22967  0.16247  0.32690  1.0000
  C   C50       1.0  0.27033  0.83753  0.82690  1.0000
  C   C51       1.0  0.72967  0.33753  0.67310  1.0000
  C   C52       1.0  0.77033  0.66247  0.17310  1.0000
  C   C53       1.0  0.77033  0.83753  0.67310  1.0000
  C   C54       1.0  0.72967  0.16247  0.17310  1.0000
  C   C55       1.0  0.27033  0.66247  0.32690  1.0000
  C   C56       1.0  0.22967  0.33753  0.82690  1.0000
  H   H17       1.0  0.21700  0.19480  0.30090  1.0000
  H   H18       1.0  0.28300  0.80520  0.80090  1.0000
  H   H19       1.0  0.71700  0.30520  0.69910  1.0000
  H   H20       1.0  0.78300  0.69480  0.19910  1.0000
  H   H21       1.0  0.78300  0.80520  0.69910  1.0000
  H   H22       1.0  0.71700  0.19480  0.19910  1.0000
  H   H23       1.0  0.28300  0.69480  0.30090  1.0000
  H   H24       1.0  0.21700  0.30520  0.80090  1.0000
  C   C57       1.0  0.21246  0.19173  0.37181  1.0000
  C   C58       1.0  0.28754  0.80827  0.87181  1.0000
  C   C59       1.0  0.71246  0.30827  0.62819  1.0000
  C   C60       1.0  0.78754  0.69173  0.12819  1.0000
  C   C61       1.0  0.78754  0.80827  0.62819  1.0000
  C   C62       1.0  0.71246  0.19173  0.12819  1.0000
  C   C63       1.0  0.28754  0.69173  0.37181  1.0000
  C   C64       1.0  0.21246  0.30827  0.87181  1.0000
  C   C65       1.0  0.28324  0.00893  0.44547  1.0000
  C   C66       1.0  0.21676  0.99107  0.94547  1.0000
  C   C67       1.0  0.78324  0.49107  0.55453  1.0000
  C   C68       1.0  0.71676  0.50893  0.05453  1.0000
  C   C69       1.0  0.71676  0.99107  0.55453  1.0000
  C   C70       1.0  0.78324  0.00893  0.05453  1.0000
  C   C71       1.0  0.21676  0.50893  0.44547  1.0000
  C   C72       1.0  0.28324  0.49107  0.94547  1.0000
  H   H25       1.0  0.26740  0.03640  0.47380  1.0000
  H   H26       1.0  0.23260  0.96360  0.97380  1.0000
  H   H27       1.0  0.76740  0.46360  0.52620  1.0000
  H   H28       1.0  0.73260  0.53640  0.02620  1.0000
  H   H29       1.0  0.73260  0.96360  0.52620  1.0000
  H   H30       1.0  0.76740  0.03640  0.02620  1.0000
  H   H31       1.0  0.23260  0.53640  0.47380  1.0000
  H   H32       1.0  0.26740  0.46360  0.97380  1.0000
  H   H33       1.0  0.33660  0.99870  0.44680  1.0000
  H   H34       1.0  0.16340  0.00130  0.94680  1.0000
  H   H35       1.0  0.83660  0.50130  0.55320  1.0000
  H   H36       1.0  0.66340  0.49870  0.05320  1.0000
  H   H37       1.0  0.66340  0.00130  0.55320  1.0000
  H   H38       1.0  0.83660  0.99870  0.05320  1.0000
  H   H39       1.0  0.16340  0.49870  0.44680  1.0000
  H   H40       1.0  0.33660  0.50130  0.94680  1.0000
  H   H41       1.0  0.25700  0.95670  0.44240  1.0000
  H   H42       1.0  0.24300  0.04330  0.94240  1.0000
  H   H43       1.0  0.75700  0.54330  0.55760  1.0000
  H   H44       1.0  0.74300  0.45670  0.05760  1.0000
  H   H45       1.0  0.74300  0.04330  0.55760  1.0000
  H   H46       1.0  0.75700  0.95670  0.05760  1.0000
  H   H47       1.0  0.24300  0.45670  0.44240  1.0000
  H   H48       1.0  0.25700  0.54330  0.94240  1.0000
  C   C73       1.0  0.17432  0.27466  0.37864  1.0000
  C   C74       1.0  0.32568  0.72534  0.87864  1.0000
  C   C75       1.0  0.67432  0.22534  0.62136  1.0000
  C   C76       1.0  0.82568  0.77466  0.12136  1.0000
  C   C77       1.0  0.82568  0.72534  0.62136  1.0000
  C   C78       1.0  0.67432  0.27466  0.12136  1.0000
  C   C79       1.0  0.32568  0.77466  0.37864  1.0000
  C   C80       1.0  0.17432  0.22534  0.87864  1.0000
  H   H49       1.0  0.16710  0.30110  0.34870  1.0000
  H   H50       1.0  0.33290  0.69890  0.84870  1.0000
  H   H51       1.0  0.66710  0.19890  0.65130  1.0000
  H   H52       1.0  0.83290  0.80110  0.15130  1.0000
  H   H53       1.0  0.83290  0.69890  0.65130  1.0000
  H   H54       1.0  0.66710  0.30110  0.15130  1.0000
  H   H55       1.0  0.33290  0.80110  0.34870  1.0000
  H   H56       1.0  0.16710  0.19890  0.84870  1.0000
  H   H57       1.0  0.20520  0.30970  0.39820  1.0000
  H   H58       1.0  0.29480  0.69030  0.89820  1.0000
  H   H59       1.0  0.70520  0.19030  0.60180  1.0000
  H   H60       1.0  0.79480  0.80970  0.10180  1.0000
  H   H61       1.0  0.79480  0.69030  0.60180  1.0000
  H   H62       1.0  0.70520  0.30970  0.10180  1.0000
  H   H63       1.0  0.29480  0.80970  0.39820  1.0000
  H   H64       1.0  0.20520  0.19030  0.89820  1.0000
  H   H65       1.0  0.12630  0.26620  0.39340  1.0000
  H   H66       1.0  0.37370  0.73380  0.89340  1.0000
  H   H67       1.0  0.62630  0.23380  0.60660  1.0000
  H   H68       1.0  0.87370  0.76620  0.10660  1.0000
  H   H69       1.0  0.87370  0.73380  0.60660  1.0000
  H   H70       1.0  0.62630  0.26620  0.10660  1.0000
  H   H71       1.0  0.37370  0.76620  0.39340  1.0000
  H   H72       1.0  0.12630  0.23380  0.89340  1.0000
  C   C81       1.0  0.86645  0.14977  0.52538  1.0000
  C   C82       1.0  0.63355  0.85023  0.02538  1.0000
  C   C83       1.0  0.36645  0.35023  0.47462  1.0000
  C   C84       1.0  0.13355  0.64977  0.97462  1.0000
  C   C85       1.0  0.13355  0.85023  0.47462  1.0000
  C   C86       1.0  0.36645  0.14977  0.97462  1.0000
  C   C87       1.0  0.63355  0.64977  0.52538  1.0000
  C   C88       1.0  0.86645  0.35023  0.02538  1.0000
  C   C89       1.0  0.85677  0.13505  0.47232  1.0000
  C   C90       1.0  0.64323  0.86495  0.97232  1.0000
  C   C91       1.0  0.35677  0.36495  0.52768  1.0000
  C   C92       1.0  0.14323  0.63505  0.02768  1.0000
  C   C93       1.0  0.14323  0.86495  0.52768  1.0000
  C   C94       1.0  0.35677  0.13505  0.02768  1.0000
  C   C95       1.0  0.64323  0.63505  0.47232  1.0000
  C   C96       1.0  0.85677  0.36495  0.97232  1.0000
  C   C97       1.0  0.77855  0.16639  0.40675  1.0000
  C   C98       1.0  0.72145  0.83361  0.90675  1.0000
  C   C99       1.0  0.27855  0.33361  0.59325  1.0000
  C   C100      1.0  0.22145  0.66639  0.09325  1.0000
  C   C101      1.0  0.22145  0.83361  0.59325  1.0000
  C   C102      1.0  0.27855  0.16639  0.09325  1.0000
  C   C103      1.0  0.72145  0.66639  0.40675  1.0000
  C   C104      1.0  0.77855  0.33361  0.90675  1.0000
  C   C105      1.0  0.78937  0.23048  0.37407  1.0000
  C   C106      1.0  0.71063  0.76952  0.87407  1.0000
  C   C107      1.0  0.28937  0.26952  0.62593  1.0000
  C   C108      1.0  0.21063  0.73048  0.12593  1.0000
  C   C109      1.0  0.21063  0.76952  0.62593  1.0000
  C   C110      1.0  0.28937  0.23048  0.12593  1.0000
  C   C111      1.0  0.71063  0.73048  0.37407  1.0000
  C   C112      1.0  0.78937  0.26952  0.87407  1.0000
  C   C113      1.0  0.76555  0.21792  0.32791  1.0000
  C   C114      1.0  0.73445  0.78208  0.82791  1.0000
  C   C115      1.0  0.26555  0.28208  0.67209  1.0000
  C   C116      1.0  0.23445  0.71792  0.17209  1.0000
  C   C117      1.0  0.23445  0.78208  0.67209  1.0000
  C   C118      1.0  0.26555  0.21792  0.17209  1.0000
  C   C119      1.0  0.73445  0.71792  0.32791  1.0000
  C   C120      1.0  0.76555  0.28208  0.82791  1.0000
  H   H73       1.0  0.77230  0.26030  0.30590  1.0000
  H   H74       1.0  0.72770  0.73970  0.80590  1.0000
  H   H75       1.0  0.27230  0.23970  0.69410  1.0000
  H   H76       1.0  0.22770  0.76030  0.19410  1.0000
  H   H77       1.0  0.22770  0.73970  0.69410  1.0000
  H   H78       1.0  0.27230  0.26030  0.19410  1.0000
  H   H79       1.0  0.72770  0.76030  0.30590  1.0000
  H   H80       1.0  0.77230  0.23970  0.80590  1.0000
  C   C121      1.0  0.73216  0.14360  0.31435  1.0000
  C   C122      1.0  0.76784  0.85640  0.81435  1.0000
  C   C123      1.0  0.23216  0.35640  0.68565  1.0000
  C   C124      1.0  0.26784  0.64360  0.18565  1.0000
  C   C125      1.0  0.26784  0.85640  0.68565  1.0000
  C   C126      1.0  0.23216  0.14360  0.18565  1.0000
  C   C127      1.0  0.76784  0.64360  0.31435  1.0000
  C   C128      1.0  0.73216  0.35640  0.81435  1.0000
  H   H81       1.0  0.71650  0.13620  0.28350  1.0000
  H   H82       1.0  0.78350  0.86380  0.78350  1.0000
  H   H83       1.0  0.21650  0.36380  0.71650  1.0000
  H   H84       1.0  0.28350  0.63620  0.21650  1.0000
  H   H85       1.0  0.28350  0.86380  0.71650  1.0000
  H   H86       1.0  0.21650  0.13620  0.21650  1.0000
  H   H87       1.0  0.78350  0.63620  0.28350  1.0000
  H   H88       1.0  0.71650  0.36380  0.78350  1.0000
  C   C129      1.0  0.72215  0.08083  0.34658  1.0000
  C   C130      1.0  0.77785  0.91917  0.84658  1.0000
  C   C131      1.0  0.22215  0.41917  0.65342  1.0000
  C   C132      1.0  0.27785  0.58083  0.15342  1.0000
  C   C133      1.0  0.27785  0.91917  0.65342  1.0000
  C   C134      1.0  0.22215  0.08083  0.15342  1.0000
  C   C135      1.0  0.77785  0.58083  0.34658  1.0000
  C   C136      1.0  0.72215  0.41917  0.84658  1.0000
  H   H89       1.0  0.70050  0.03050  0.33720  1.0000
  H   H90       1.0  0.79950  0.96950  0.83720  1.0000
  H   H91       1.0  0.20050  0.46950  0.66280  1.0000
  H   H92       1.0  0.29950  0.53050  0.16280  1.0000
  H   H93       1.0  0.29950  0.96950  0.66280  1.0000
  H   H94       1.0  0.20050  0.03050  0.16280  1.0000
  H   H95       1.0  0.79950  0.53050  0.33720  1.0000
  H   H96       1.0  0.70050  0.46950  0.83720  1.0000
  C   C137      1.0  0.74396  0.09136  0.39332  1.0000
  C   C138      1.0  0.75604  0.90864  0.89332  1.0000
  C   C139      1.0  0.24396  0.40864  0.60668  1.0000
  C   C140      1.0  0.25604  0.59136  0.10668  1.0000
  C   C141      1.0  0.25604  0.90864  0.60668  1.0000
  C   C142      1.0  0.24396  0.09136  0.10668  1.0000
  C   C143      1.0  0.75604  0.59136  0.39332  1.0000
  C   C144      1.0  0.74396  0.40864  0.89332  1.0000
  C   C145      1.0  0.82693  0.31042  0.38887  1.0000
  C   C146      1.0  0.67307  0.68958  0.88887  1.0000
  C   C147      1.0  0.32693  0.18958  0.61113  1.0000
  C   C148      1.0  0.17307  0.81042  0.11113  1.0000
  C   C149      1.0  0.17307  0.68958  0.61113  1.0000
  C   C150      1.0  0.32693  0.31042  0.11113  1.0000
  C   C151      1.0  0.67307  0.81042  0.38887  1.0000
  C   C152      1.0  0.82693  0.18958  0.88887  1.0000
  H   H97       1.0  0.82980  0.34780  0.36260  1.0000
  H   H98       1.0  0.67020  0.65220  0.86260  1.0000
  H   H99       1.0  0.32980  0.15220  0.63740  1.0000
  H   H100      1.0  0.17020  0.84780  0.13740  1.0000
  H   H101      1.0  0.17020  0.65220  0.63740  1.0000
  H   H102      1.0  0.32980  0.34780  0.13740  1.0000
  H   H103      1.0  0.67020  0.84780  0.36260  1.0000
  H   H104      1.0  0.82980  0.15220  0.86260  1.0000
  H   H105      1.0  0.87690  0.29850  0.40000  1.0000
  H   H106      1.0  0.62310  0.70150  0.90000  1.0000
  H   H107      1.0  0.37690  0.20150  0.60000  1.0000
  H   H108      1.0  0.12310  0.79850  0.10000  1.0000
  H   H109      1.0  0.12310  0.70150  0.60000  1.0000
  H   H110      1.0  0.37690  0.29850  0.10000  1.0000
  H   H111      1.0  0.62310  0.79850  0.40000  1.0000
  H   H112      1.0  0.87690  0.20150  0.90000  1.0000
  H   H113      1.0  0.79820  0.33610  0.41350  1.0000
  H   H114      1.0  0.70180  0.66390  0.91350  1.0000
  H   H115      1.0  0.29820  0.16390  0.58650  1.0000
  H   H116      1.0  0.20180  0.83610  0.08650  1.0000
  H   H117      1.0  0.20180  0.66390  0.58650  1.0000
  H   H118      1.0  0.29820  0.33610  0.08650  1.0000
  H   H119      1.0  0.70180  0.83610  0.41350  1.0000
  H   H120      1.0  0.79820  0.16390  0.91350  1.0000
  C   C153      1.0  0.72922  0.02367  0.42866  1.0000
  C   C154      1.0  0.77078  0.97633  0.92866  1.0000
  C   C155      1.0  0.22922  0.47633  0.57134  1.0000
  C   C156      1.0  0.27078  0.52367  0.07134  1.0000
  C   C157      1.0  0.27078  0.97633  0.57134  1.0000
  C   C158      1.0  0.22922  0.02367  0.07134  1.0000
  C   C159      1.0  0.77078  0.52367  0.42866  1.0000
  C   C160      1.0  0.72922  0.47633  0.92866  1.0000
  H   H121      1.0  0.70530  0.97710  0.41350  1.0000
  H   H122      1.0  0.79470  0.02290  0.91350  1.0000
  H   H123      1.0  0.20530  0.52290  0.58650  1.0000
  H   H124      1.0  0.29470  0.47710  0.08650  1.0000
  H   H125      1.0  0.29470  0.02290  0.58650  1.0000
  H   H126      1.0  0.20530  0.97710  0.08650  1.0000
  H   H127      1.0  0.79470  0.47710  0.41350  1.0000
  H   H128      1.0  0.70530  0.52290  0.91350  1.0000
  H   H129      1.0  0.69680  0.04480  0.45290  1.0000
  H   H130      1.0  0.80320  0.95520  0.95290  1.0000
  H   H131      1.0  0.19680  0.45520  0.54710  1.0000
  H   H132      1.0  0.30320  0.54480  0.04710  1.0000
  H   H133      1.0  0.30320  0.95520  0.54710  1.0000
  H   H134      1.0  0.19680  0.04480  0.04710  1.0000
  H   H135      1.0  0.80320  0.54480  0.45290  1.0000
  H   H136      1.0  0.69680  0.45520  0.95290  1.0000
  H   H137      1.0  0.77610  0.00580  0.44220  1.0000
  H   H138      1.0  0.72390  0.99420  0.94220  1.0000
  H   H139      1.0  0.27610  0.49420  0.55780  1.0000
  H   H140      1.0  0.22390  0.50580  0.05780  1.0000
  H   H141      1.0  0.22390  0.99420  0.55780  1.0000
  H   H142      1.0  0.27610  0.00580  0.05780  1.0000
  H   H143      1.0  0.72390  0.50580  0.44220  1.0000
  H   H144      1.0  0.77610  0.49420  0.94220  1.0000
