data_image0
_chemical_formula_structural       Eu4N12O36C4H4C4H4C8H4C4H4C8H4C12H4C12H4C4H4C4H4C4H4C16H4C4H4C8H4C4H4C4
_chemical_formula_sum              "Eu4 N12 O36 C100 H56"
_cell_length_a       10.6381
_cell_length_b       18.837
_cell_length_c       12.0604
_cell_angle_alpha    90
_cell_angle_beta     94.139
_cell_angle_gamma    90

_space_group_name_H-M_alt    "P 1"
_space_group_IT_number       1

loop_
  _space_group_symop_operation_xyz
  'x, y, z'

loop_
  _atom_site_type_symbol
  _atom_site_label
  _atom_site_symmetry_multiplicity
  _atom_site_fract_x
  _atom_site_fract_y
  _atom_site_fract_z
  _atom_site_occupancy
  Eu  Eu1       1.0  0.37984  0.03950  0.09976  1.0000
  Eu  Eu2       1.0  0.12016  0.53950  0.40024  1.0000
  Eu  Eu3       1.0  0.62016  0.96050  0.90024  1.0000
  Eu  Eu4       1.0  0.87984  0.46050  0.59976  1.0000
  N   N1        1.0  0.64400  0.24510  0.48970  1.0000
  N   N2        1.0  0.85600  0.74510  0.01030  1.0000
  N   N3        1.0  0.35600  0.75490  0.51030  1.0000
  N   N4        1.0  0.14400  0.25490  0.98970  1.0000
  N   N5        1.0  0.61740  0.27310  0.16860  1.0000
  N   N6        1.0  0.88260  0.77310  0.33140  1.0000
  N   N7        1.0  0.38260  0.72690  0.83140  1.0000
  N   N8        1.0  0.11740  0.22690  0.66860  1.0000
  N   N9        1.0  0.27840  0.93620  0.24890  1.0000
  N   N10       1.0  0.22160  0.43620  0.25110  1.0000
  N   N11       1.0  0.72160  0.06380  0.75110  1.0000
  N   N12       1.0  0.77840  0.56380  0.74890  1.0000
  O   O1        1.0  0.38420  0.13682  0.23890  1.0000
  O   O2        1.0  0.11580  0.63682  0.26110  1.0000
  O   O3        1.0  0.61580  0.86318  0.76110  1.0000
  O   O4        1.0  0.88420  0.36318  0.73890  1.0000
  O   O5        1.0  0.20200  0.10754  0.15610  1.0000
  O   O6        1.0  0.29800  0.60754  0.34390  1.0000
  O   O7        1.0  0.79800  0.89246  0.84390  1.0000
  O   O8        1.0  0.70200  0.39246  0.65610  1.0000
  O   O9        1.0  0.58770  0.03980  0.17540  1.0000
  O   O10       1.0  0.91230  0.53980  0.32460  1.0000
  O   O11       1.0  0.41230  0.96020  0.82460  1.0000
  O   O12       1.0  0.08770  0.46020  0.67540  1.0000
  O   O13       1.0  0.72930  0.99028  0.07030  1.0000
  O   O14       1.0  0.77070  0.49028  0.42970  1.0000
  O   O15       1.0  0.27070  0.00972  0.92970  1.0000
  O   O16       1.0  0.22930  0.50972  0.57030  1.0000
  O   O17       1.0  0.03310  0.42676  0.44870  1.0000
  O   O18       1.0  0.46690  0.92676  0.05130  1.0000
  O   O19       1.0  0.96690  0.57324  0.55130  1.0000
  O   O20       1.0  0.53310  0.07324  0.94870  1.0000
  O   O21       1.0  0.89170  0.34871  0.48770  1.0000
  O   O22       1.0  0.60830  0.84871  0.01230  1.0000
  O   O23       1.0  0.10830  0.65129  0.51230  1.0000
  O   O24       1.0  0.39170  0.15129  0.98770  1.0000
  O   O25       1.0  0.37420  0.97280  0.27870  1.0000
  O   O26       1.0  0.12580  0.47280  0.22130  1.0000
  O   O27       1.0  0.62580  0.02720  0.72130  1.0000
  O   O28       1.0  0.87420  0.52720  0.77870  1.0000
  O   O29       1.0  0.22090  0.95100  0.15630  1.0000
  O   O30       1.0  0.27910  0.45100  0.34370  1.0000
  O   O31       1.0  0.77910  0.04900  0.84370  1.0000
  O   O32       1.0  0.72090  0.54900  0.65630  1.0000
  O   O33       1.0  0.24230  0.88888  0.30860  1.0000
  O   O34       1.0  0.25770  0.38888  0.19140  1.0000
  O   O35       1.0  0.75770  0.11112  0.69140  1.0000
  O   O36       1.0  0.74230  0.61112  0.80860  1.0000
  C   C1        1.0  0.59480  0.30110  0.44740  1.0000
  C   C2        1.0  0.90520  0.80110  0.05260  1.0000
  C   C3        1.0  0.40520  0.69890  0.55260  1.0000
  C   C4        1.0  0.09480  0.19890  0.94740  1.0000
  H   H1        1.0  0.64410  0.34170  0.44400  1.0000
  H   H2        1.0  0.85590  0.84170  0.05600  1.0000
  H   H3        1.0  0.35590  0.65830  0.55600  1.0000
  H   H4        1.0  0.14410  0.15830  0.94400  1.0000
  C   C5        1.0  0.46990  0.30370  0.40620  1.0000
  C   C6        1.0  0.03010  0.80370  0.09380  1.0000
  C   C7        1.0  0.53010  0.69630  0.59380  1.0000
  C   C8        1.0  0.96990  0.19630  0.90620  1.0000
  H   H5        1.0  0.43620  0.34570  0.37620  1.0000
  H   H6        1.0  0.06380  0.84570  0.12380  1.0000
  H   H7        1.0  0.56380  0.65430  0.62380  1.0000
  H   H8        1.0  0.93620  0.15430  0.87620  1.0000
  C   C9        1.0  0.39490  0.24320  0.40990  1.0000
  C   C10       1.0  0.10510  0.74320  0.09010  1.0000
  C   C11       1.0  0.60510  0.75680  0.59010  1.0000
  C   C12       1.0  0.89490  0.25680  0.90990  1.0000
  C   C13       1.0  0.44820  0.18230  0.45820  1.0000
  C   C14       1.0  0.05180  0.68230  0.04180  1.0000
  C   C15       1.0  0.55180  0.81770  0.54180  1.0000
  C   C16       1.0  0.94820  0.31770  0.95820  1.0000
  H   H9        1.0  0.40130  0.14090  0.46360  1.0000
  H   H10       1.0  0.09870  0.64090  0.03640  1.0000
  H   H11       1.0  0.59870  0.85910  0.53640  1.0000
  H   H12       1.0  0.90130  0.35910  0.96360  1.0000
  C   C17       1.0  0.57500  0.18520  0.49860  1.0000
  C   C18       1.0  0.92500  0.68520  0.00140  1.0000
  C   C19       1.0  0.42500  0.81480  0.50140  1.0000
  C   C20       1.0  0.07500  0.31480  0.99860  1.0000
  H   H13       1.0  0.61240  0.14520  0.53210  1.0000
  H   H14       1.0  0.88760  0.64520  0.96790  1.0000
  H   H15       1.0  0.38760  0.85480  0.46790  1.0000
  H   H16       1.0  0.11240  0.35480  0.03210  1.0000
  C   C21       1.0  0.25950  0.24640  0.36850  1.0000
  C   C22       1.0  0.24050  0.74640  0.13150  1.0000
  C   C23       1.0  0.74050  0.75360  0.63150  1.0000
  C   C24       1.0  0.75950  0.25360  0.86850  1.0000
  C   C25       1.0  0.18720  0.30023  0.41240  1.0000
  C   C26       1.0  0.31280  0.80023  0.08760  1.0000
  C   C27       1.0  0.81280  0.69977  0.58760  1.0000
  C   C28       1.0  0.68720  0.19977  0.91240  1.0000
  H   H17       1.0  0.22630  0.33170  0.46320  1.0000
  H   H18       1.0  0.27370  0.83170  0.03680  1.0000
  H   H19       1.0  0.77370  0.66830  0.53680  1.0000
  H   H20       1.0  0.72630  0.16830  0.96320  1.0000
  C   C29       1.0  0.05930  0.30848  0.38300  1.0000
  C   C30       1.0  0.44070  0.80848  0.11700  1.0000
  C   C31       1.0  0.94070  0.69152  0.61700  1.0000
  C   C32       1.0  0.55930  0.19152  0.88300  1.0000
  C   C33       1.0  0.00000  0.26180  0.30510  1.0000
  C   C34       1.0  0.50000  0.76180  0.19490  1.0000
  C   C35       1.0  0.00000  0.73820  0.69490  1.0000
  C   C36       1.0  0.50000  0.23820  0.80510  1.0000
  C   C37       1.0  0.07230  0.20911  0.26060  1.0000
  C   C38       1.0  0.42770  0.70911  0.23940  1.0000
  C   C39       1.0  0.92770  0.79089  0.73940  1.0000
  C   C40       1.0  0.57230  0.29089  0.76060  1.0000
  H   H21       1.0  0.03320  0.17800  0.20900  1.0000
  H   H22       1.0  0.46680  0.67800  0.29100  1.0000
  H   H23       1.0  0.96680  0.82200  0.79100  1.0000
  H   H24       1.0  0.53320  0.32200  0.70900  1.0000
  C   C41       1.0  0.20030  0.20053  0.28940  1.0000
  C   C42       1.0  0.29970  0.70053  0.21060  1.0000
  C   C43       1.0  0.79970  0.79947  0.71060  1.0000
  C   C44       1.0  0.70030  0.29947  0.78940  1.0000
  C   C45       1.0  0.86490  0.26735  0.26300  1.0000
  C   C46       1.0  0.63510  0.76735  0.23700  1.0000
  C   C47       1.0  0.13510  0.73265  0.73700  1.0000
  C   C48       1.0  0.36490  0.23265  0.76300  1.0000
  C   C49       1.0  0.81480  0.33020  0.21950  1.0000
  C   C50       1.0  0.68520  0.83020  0.28050  1.0000
  C   C51       1.0  0.18520  0.66980  0.78050  1.0000
  C   C52       1.0  0.31480  0.16980  0.71950  1.0000
  H   H25       1.0  0.86230  0.37170  0.22230  1.0000
  H   H26       1.0  0.63770  0.87170  0.27770  1.0000
  H   H27       1.0  0.13770  0.62830  0.77770  1.0000
  H   H28       1.0  0.36230  0.12830  0.72230  1.0000
  C   C53       1.0  0.69260  0.32990  0.17200  1.0000
  C   C54       1.0  0.80740  0.82990  0.32800  1.0000
  C   C55       1.0  0.30740  0.67010  0.82800  1.0000
  C   C56       1.0  0.19260  0.17010  0.67200  1.0000
  H   H29       1.0  0.66080  0.37190  0.14040  1.0000
  H   H30       1.0  0.83920  0.87190  0.35960  1.0000
  H   H31       1.0  0.33920  0.62810  0.85960  1.0000
  H   H32       1.0  0.16080  0.12810  0.64040  1.0000
  C   C57       1.0  0.66510  0.21400  0.21120  1.0000
  C   C58       1.0  0.83490  0.71400  0.28880  1.0000
  C   C59       1.0  0.33490  0.78600  0.78880  1.0000
  C   C60       1.0  0.16510  0.28600  0.71120  1.0000
  H   H33       1.0  0.61430  0.17380  0.20950  1.0000
  H   H34       1.0  0.88570  0.67380  0.29050  1.0000
  H   H35       1.0  0.38570  0.82620  0.79050  1.0000
  H   H36       1.0  0.11430  0.32620  0.70950  1.0000
  C   C61       1.0  0.78810  0.20850  0.25860  1.0000
  C   C62       1.0  0.71190  0.70850  0.24140  1.0000
  C   C63       1.0  0.21190  0.79150  0.74140  1.0000
  C   C64       1.0  0.28810  0.29150  0.75860  1.0000
  H   H37       1.0  0.81810  0.16540  0.28710  1.0000
  H   H38       1.0  0.68190  0.66540  0.21290  1.0000
  H   H39       1.0  0.18190  0.83460  0.71290  1.0000
  H   H40       1.0  0.31810  0.33460  0.78710  1.0000
  C   C65       1.0  0.26710  0.14485  0.22580  1.0000
  C   C66       1.0  0.23290  0.64485  0.27420  1.0000
  C   C67       1.0  0.73290  0.85515  0.77420  1.0000
  C   C68       1.0  0.76710  0.35515  0.72580  1.0000
  C   C69       1.0  0.69450  0.01496  0.15980  1.0000
  C   C70       1.0  0.80550  0.51496  0.34020  1.0000
  C   C71       1.0  0.30550  0.98504  0.84020  1.0000
  C   C72       1.0  0.19450  0.48504  0.65980  1.0000
  C   C73       1.0  0.78700  0.01399  0.25950  1.0000
  C   C74       1.0  0.71300  0.51399  0.24050  1.0000
  C   C75       1.0  0.21300  0.98601  0.74050  1.0000
  C   C76       1.0  0.28700  0.48601  0.75950  1.0000
  C   C77       1.0  0.74390  0.01700  0.36520  1.0000
  C   C78       1.0  0.75610  0.51700  0.13480  1.0000
  C   C79       1.0  0.25610  0.98300  0.63480  1.0000
  C   C80       1.0  0.24390  0.48300  0.86520  1.0000
  H   H41       1.0  0.65840  0.02330  0.37350  1.0000
  H   H42       1.0  0.84160  0.52330  0.12650  1.0000
  H   H43       1.0  0.34160  0.97670  0.62650  1.0000
  H   H44       1.0  0.15840  0.47670  0.87350  1.0000
  C   C81       1.0  0.82680  0.01070  0.45840  1.0000
  C   C82       1.0  0.67320  0.51070  0.04160  1.0000
  C   C83       1.0  0.17320  0.98930  0.54160  1.0000
  C   C84       1.0  0.32680  0.48930  0.95840  1.0000
  H   H45       1.0  0.79540  0.01100  0.52840  1.0000
  H   H46       1.0  0.70460  0.51100  0.97160  1.0000
  H   H47       1.0  0.20460  0.98900  0.47160  1.0000
  H   H48       1.0  0.29540  0.48900  0.02840  1.0000
  C   C85       1.0  0.95580  0.00390  0.45020  1.0000
  C   C86       1.0  0.54420  0.50390  0.04980  1.0000
  C   C87       1.0  0.04420  0.99610  0.54980  1.0000
  C   C88       1.0  0.45580  0.49610  0.95020  1.0000
  C   C89       1.0  0.99730  0.00500  0.34370  1.0000
  C   C90       1.0  0.50270  0.50500  0.15630  1.0000
  C   C91       1.0  0.00270  0.99500  0.65630  1.0000
  C   C92       1.0  0.49730  0.49500  0.84370  1.0000
  H   H49       1.0  0.08350  0.00350  0.33520  1.0000
  H   H50       1.0  0.41650  0.50350  0.16480  1.0000
  H   H51       1.0  0.91650  0.99650  0.66480  1.0000
  H   H52       1.0  0.58350  0.49650  0.83520  1.0000
  C   C93       1.0  0.91490  0.00830  0.25000  1.0000
  C   C94       1.0  0.58510  0.50830  0.25000  1.0000
  C   C95       1.0  0.08510  0.99170  0.75000  1.0000
  C   C96       1.0  0.41490  0.49170  0.75000  1.0000
  H   H53       1.0  0.94590  0.00670  0.17990  1.0000
  H   H54       1.0  0.55410  0.50670  0.32010  1.0000
  H   H55       1.0  0.05410  0.99330  0.82010  1.0000
  H   H56       1.0  0.44590  0.49330  0.67990  1.0000
  C   C97       1.0  0.98910  0.36444  0.44170  1.0000
  C   C98       1.0  0.51090  0.86444  0.05830  1.0000
  C   C99       1.0  0.01090  0.63556  0.55830  1.0000
  C   C100      1.0  0.48910  0.13556  0.94170  1.0000
