data_image0
_chemical_formula_structural       Tb4N12O36C4H4C4H4C8H4C4H4C8H4C12H4C12H4C4H4C4H4C4H4C20H4C4H4C8H4C4H4
_chemical_formula_sum              "Tb4 N12 O36 C100 H56"
_cell_length_a       10.6273
_cell_length_b       18.7534
_cell_length_c       11.9852
_cell_angle_alpha    90
_cell_angle_beta     94.028
_cell_angle_gamma    90

_space_group_name_H-M_alt    "P 1"
_space_group_IT_number       1

loop_
  _space_group_symop_operation_xyz
  'x, y, z'

loop_
  _atom_site_type_symbol
  _atom_site_label
  _atom_site_symmetry_multiplicity
  _atom_site_fract_x
  _atom_site_fract_y
  _atom_site_fract_z
  _atom_site_occupancy
  Tb  Tb1       1.0  0.38188  0.03979  0.59967  1.0000
  Tb  Tb2       1.0  0.11812  0.53979  0.90033  1.0000
  Tb  Tb3       1.0  0.61812  0.96021  0.40033  1.0000
  Tb  Tb4       1.0  0.88188  0.46021  0.09967  1.0000
  N   N1        1.0  0.64880  0.24900  0.98710  1.0000
  N   N2        1.0  0.85120  0.74900  0.51290  1.0000
  N   N3        1.0  0.35120  0.75100  0.01290  1.0000
  N   N4        1.0  0.14880  0.25100  0.48710  1.0000
  N   N5        1.0  0.62050  0.27160  0.66870  1.0000
  N   N6        1.0  0.87950  0.77160  0.83130  1.0000
  N   N7        1.0  0.37950  0.72840  0.33130  1.0000
  N   N8        1.0  0.12050  0.22840  0.16870  1.0000
  N   N9        1.0  0.27910  0.93766  0.74820  1.0000
  N   N10       1.0  0.22090  0.43766  0.75180  1.0000
  N   N11       1.0  0.72090  0.06234  0.25180  1.0000
  N   N12       1.0  0.77910  0.56234  0.24820  1.0000
  O   O1        1.0  0.20620  0.10741  0.65600  1.0000
  O   O2        1.0  0.29380  0.60741  0.84400  1.0000
  O   O3        1.0  0.79380  0.89259  0.34400  1.0000
  O   O4        1.0  0.70620  0.39259  0.15600  1.0000
  O   O5        1.0  0.38780  0.13619  0.73990  1.0000
  O   O6        1.0  0.11220  0.63619  0.76010  1.0000
  O   O7        1.0  0.61220  0.86381  0.26010  1.0000
  O   O8        1.0  0.88780  0.36381  0.23990  1.0000
  O   O9        1.0  0.03484  0.42754  0.94914  1.0000
  O   O10       1.0  0.46516  0.92754  0.55086  1.0000
  O   O11       1.0  0.96516  0.57246  0.05086  1.0000
  O   O12       1.0  0.53484  0.07246  0.44914  1.0000
  O   O13       1.0  0.89510  0.34850  0.99040  1.0000
  O   O14       1.0  0.60490  0.84850  0.50960  1.0000
  O   O15       1.0  0.10490  0.65150  0.00960  1.0000
  O   O16       1.0  0.39510  0.15150  0.49040  1.0000
  O   O17       1.0  0.58700  0.03881  0.67500  1.0000
  O   O18       1.0  0.91300  0.53881  0.82500  1.0000
  O   O19       1.0  0.41300  0.96119  0.32500  1.0000
  O   O20       1.0  0.08700  0.46119  0.17500  1.0000
  O   O21       1.0  0.72779  0.98787  0.56947  1.0000
  O   O22       1.0  0.77221  0.48787  0.93053  1.0000
  O   O23       1.0  0.27221  0.01213  0.43053  1.0000
  O   O24       1.0  0.22779  0.51213  0.06947  1.0000
  O   O25       1.0  0.37490  0.97362  0.77740  1.0000
  O   O26       1.0  0.12510  0.47362  0.72260  1.0000
  O   O27       1.0  0.62510  0.02638  0.22260  1.0000
  O   O28       1.0  0.87490  0.52638  0.27740  1.0000
  O   O29       1.0  0.22240  0.95222  0.65470  1.0000
  O   O30       1.0  0.27760  0.45222  0.84530  1.0000
  O   O31       1.0  0.77760  0.04778  0.34530  1.0000
  O   O32       1.0  0.72240  0.54778  0.15470  1.0000
  O   O33       1.0  0.24130  0.89015  0.80790  1.0000
  O   O34       1.0  0.25870  0.39015  0.69210  1.0000
  O   O35       1.0  0.75870  0.10985  0.19210  1.0000
  O   O36       1.0  0.74130  0.60985  0.30790  1.0000
  C   C1        1.0  0.66920  0.21200  0.71250  1.0000
  C   C2        1.0  0.83080  0.71200  0.78750  1.0000
  C   C3        1.0  0.33080  0.78800  0.28750  1.0000
  C   C4        1.0  0.16920  0.28800  0.21250  1.0000
  H   H1        1.0  0.61870  0.17150  0.71140  1.0000
  H   H2        1.0  0.88130  0.67150  0.78860  1.0000
  H   H3        1.0  0.38130  0.82850  0.28860  1.0000
  H   H4        1.0  0.11870  0.32850  0.21140  1.0000
  C   C5        1.0  0.79170  0.20701  0.75980  1.0000
  C   C6        1.0  0.70830  0.70701  0.74020  1.0000
  C   C7        1.0  0.20830  0.79299  0.24020  1.0000
  C   C8        1.0  0.29170  0.29299  0.25980  1.0000
  H   H5        1.0  0.82210  0.16380  0.78860  1.0000
  H   H6        1.0  0.67790  0.66380  0.71140  1.0000
  H   H7        1.0  0.17790  0.83620  0.21140  1.0000
  H   H8        1.0  0.32210  0.33620  0.28860  1.0000
  C   C9        1.0  0.86850  0.26681  0.76410  1.0000
  C   C10       1.0  0.63150  0.76681  0.73590  1.0000
  C   C11       1.0  0.13150  0.73319  0.23590  1.0000
  C   C12       1.0  0.36850  0.23319  0.26410  1.0000
  C   C13       1.0  0.81760  0.32950  0.71970  1.0000
  C   C14       1.0  0.68240  0.82950  0.78030  1.0000
  C   C15       1.0  0.18240  0.67050  0.28030  1.0000
  C   C16       1.0  0.31760  0.17050  0.21970  1.0000
  H   H9        1.0  0.86490  0.37130  0.72200  1.0000
  H   H10       1.0  0.63510  0.87130  0.77800  1.0000
  H   H11       1.0  0.13510  0.62870  0.27800  1.0000
  H   H12       1.0  0.36490  0.12870  0.22200  1.0000
  C   C17       1.0  0.69540  0.32890  0.67180  1.0000
  C   C18       1.0  0.80460  0.82890  0.82820  1.0000
  C   C19       1.0  0.30460  0.67110  0.32820  1.0000
  C   C20       1.0  0.19540  0.17110  0.17180  1.0000
  H   H13       1.0  0.66340  0.37090  0.63980  1.0000
  H   H14       1.0  0.83660  0.87090  0.86020  1.0000
  H   H15       1.0  0.33660  0.62910  0.36020  1.0000
  H   H16       1.0  0.16340  0.12910  0.13980  1.0000
  C   C21       1.0  0.00340  0.26144  0.80630  1.0000
  C   C22       1.0  0.49660  0.76144  0.69370  1.0000
  C   C23       1.0  0.99660  0.73856  0.19370  1.0000
  C   C24       1.0  0.50340  0.23856  0.30630  1.0000
  C   C25       1.0  0.07610  0.20876  0.76120  1.0000
  C   C26       1.0  0.42390  0.70876  0.73880  1.0000
  C   C27       1.0  0.92390  0.79124  0.23880  1.0000
  C   C28       1.0  0.57610  0.29124  0.26120  1.0000
  H   H17       1.0  0.03720  0.17750  0.70930  1.0000
  H   H18       1.0  0.46280  0.67750  0.79070  1.0000
  H   H19       1.0  0.96280  0.82250  0.29070  1.0000
  H   H20       1.0  0.53720  0.32250  0.20930  1.0000
  C   C29       1.0  0.20410  0.20049  0.78980  1.0000
  C   C30       1.0  0.29590  0.70049  0.71020  1.0000
  C   C31       1.0  0.79590  0.79951  0.21020  1.0000
  C   C32       1.0  0.70410  0.29951  0.28980  1.0000
  C   C33       1.0  0.26310  0.24720  0.86900  1.0000
  C   C34       1.0  0.23690  0.74720  0.63100  1.0000
  C   C35       1.0  0.73690  0.75280  0.13100  1.0000
  C   C36       1.0  0.76310  0.25280  0.36900  1.0000
  C   C37       1.0  0.19050  0.30081  0.91350  1.0000
  C   C38       1.0  0.30950  0.80081  0.58650  1.0000
  C   C39       1.0  0.80950  0.69919  0.08650  1.0000
  C   C40       1.0  0.69050  0.19919  0.41350  1.0000
  H   H21       1.0  0.22920  0.33240  0.96500  1.0000
  H   H22       1.0  0.27080  0.83240  0.53500  1.0000
  H   H23       1.0  0.77080  0.66760  0.03500  1.0000
  H   H24       1.0  0.72920  0.16760  0.46500  1.0000
  C   C41       1.0  0.06250  0.30875  0.88360  1.0000
  C   C42       1.0  0.43750  0.80875  0.61640  1.0000
  C   C43       1.0  0.93750  0.69125  0.11640  1.0000
  C   C44       1.0  0.56250  0.19125  0.38360  1.0000
  C   C45       1.0  0.39900  0.24470  0.91000  1.0000
  C   C46       1.0  0.10100  0.74470  0.59000  1.0000
  C   C47       1.0  0.60100  0.75530  0.09000  1.0000
  C   C48       1.0  0.89900  0.25530  0.41000  1.0000
  C   C49       1.0  0.45460  0.18400  0.95820  1.0000
  C   C50       1.0  0.04540  0.68400  0.54180  1.0000
  C   C51       1.0  0.54540  0.81600  0.04180  1.0000
  C   C52       1.0  0.95460  0.31600  0.45820  1.0000
  H   H25       1.0  0.40960  0.14170  0.96380  1.0000
  H   H26       1.0  0.09040  0.64170  0.53620  1.0000
  H   H27       1.0  0.59040  0.85830  0.03620  1.0000
  H   H28       1.0  0.90960  0.35830  0.46380  1.0000
  C   C53       1.0  0.58280  0.18930  0.99820  1.0000
  C   C54       1.0  0.91720  0.68930  0.50180  1.0000
  C   C55       1.0  0.41720  0.81070  0.00180  1.0000
  C   C56       1.0  0.08280  0.31070  0.49820  1.0000
  H   H29       1.0  0.62200  0.15010  0.03320  1.0000
  H   H30       1.0  0.87800  0.65010  0.46680  1.0000
  H   H31       1.0  0.37800  0.84990  0.96680  1.0000
  H   H32       1.0  0.12200  0.34990  0.53320  1.0000
  C   C57       1.0  0.59780  0.30670  0.94420  1.0000
  C   C58       1.0  0.90220  0.80670  0.55580  1.0000
  C   C59       1.0  0.40220  0.69330  0.05580  1.0000
  C   C60       1.0  0.09780  0.19330  0.44420  1.0000
  H   H33       1.0  0.64560  0.34800  0.93940  1.0000
  H   H34       1.0  0.85440  0.84800  0.56060  1.0000
  H   H35       1.0  0.35440  0.65200  0.06060  1.0000
  H   H36       1.0  0.14560  0.15200  0.43940  1.0000
  C   C61       1.0  0.47240  0.30630  0.90570  1.0000
  C   C62       1.0  0.02760  0.80630  0.59430  1.0000
  C   C63       1.0  0.52760  0.69370  0.09430  1.0000
  C   C64       1.0  0.97240  0.19370  0.40570  1.0000
  H   H37       1.0  0.43590  0.34790  0.87620  1.0000
  H   H38       1.0  0.06410  0.84790  0.62380  1.0000
  H   H39       1.0  0.56410  0.65210  0.12380  1.0000
  H   H40       1.0  0.93590  0.15210  0.37620  1.0000
  C   C65       1.0  0.27140  0.14446  0.72600  1.0000
  C   C66       1.0  0.22860  0.64446  0.77400  1.0000
  C   C67       1.0  0.72860  0.85554  0.27400  1.0000
  C   C68       1.0  0.77140  0.35554  0.22600  1.0000
  C   C69       1.0  0.99140  0.36450  0.94320  1.0000
  C   C70       1.0  0.50860  0.86450  0.55680  1.0000
  C   C71       1.0  0.00860  0.63550  0.05680  1.0000
  C   C72       1.0  0.49140  0.13550  0.44320  1.0000
  C   C73       1.0  0.69390  0.01334  0.65980  1.0000
  C   C74       1.0  0.80610  0.51334  0.84020  1.0000
  C   C75       1.0  0.30610  0.98666  0.34020  1.0000
  C   C76       1.0  0.19390  0.48666  0.15980  1.0000
  C   C77       1.0  0.78650  0.01245  0.75890  1.0000
  C   C78       1.0  0.71350  0.51245  0.74110  1.0000
  C   C79       1.0  0.21350  0.98755  0.24110  1.0000
  C   C80       1.0  0.28650  0.48755  0.25890  1.0000
  C   C81       1.0  0.74330  0.01530  0.86550  1.0000
  C   C82       1.0  0.75670  0.51530  0.63450  1.0000
  C   C83       1.0  0.25670  0.98470  0.13450  1.0000
  C   C84       1.0  0.24330  0.48470  0.36550  1.0000
  H   H41       1.0  0.65750  0.02070  0.87400  1.0000
  H   H42       1.0  0.84250  0.52070  0.62600  1.0000
  H   H43       1.0  0.34250  0.97930  0.12600  1.0000
  H   H44       1.0  0.15750  0.47930  0.37400  1.0000
  C   C85       1.0  0.82590  0.01020  0.95850  1.0000
  C   C86       1.0  0.67410  0.51020  0.54150  1.0000
  C   C87       1.0  0.17410  0.98980  0.04150  1.0000
  C   C88       1.0  0.32590  0.48980  0.45850  1.0000
  H   H45       1.0  0.79480  0.01100  0.02900  1.0000
  H   H46       1.0  0.70520  0.51100  0.47100  1.0000
  H   H47       1.0  0.20520  0.98900  0.97100  1.0000
  H   H48       1.0  0.29480  0.48900  0.52900  1.0000
  C   C89       1.0  0.95530  0.00368  0.94940  1.0000
  C   C90       1.0  0.54470  0.50368  0.55060  1.0000
  C   C91       1.0  0.04470  0.99632  0.05060  1.0000
  C   C92       1.0  0.45530  0.49632  0.44940  1.0000
  C   C93       1.0  0.99720  0.00470  0.84300  1.0000
  C   C94       1.0  0.50280  0.50470  0.65700  1.0000
  C   C95       1.0  0.00280  0.99530  0.15700  1.0000
  C   C96       1.0  0.49720  0.49530  0.34300  1.0000
  H   H49       1.0  0.08360  0.00360  0.83460  1.0000
  H   H50       1.0  0.41640  0.50360  0.66540  1.0000
  H   H51       1.0  0.91640  0.99640  0.16540  1.0000
  H   H52       1.0  0.58360  0.49640  0.33460  1.0000
  C   C97       1.0  0.91460  0.00750  0.74800  1.0000
  C   C98       1.0  0.58540  0.50750  0.75200  1.0000
  C   C99       1.0  0.08540  0.99250  0.25200  1.0000
  C   C100      1.0  0.41460  0.49250  0.24800  1.0000
  H   H53       1.0  0.94560  0.00600  0.67730  1.0000
  H   H54       1.0  0.55440  0.50600  0.82270  1.0000
  H   H55       1.0  0.05440  0.99400  0.32270  1.0000
  H   H56       1.0  0.44560  0.49400  0.17730  1.0000
