data_image0
_chemical_formula_structural       Zn8P4O40C40H8C16H8C8H8
_chemical_formula_sum              "Zn8 P4 O40 C64 H24"
_cell_length_a       10.7239
_cell_length_b       15.3597
_cell_length_c       17.7316
_cell_angle_alpha    90
_cell_angle_beta     90
_cell_angle_gamma    90

_space_group_name_H-M_alt    "P 1"
_space_group_IT_number       1

loop_
  _space_group_symop_operation_xyz
  'x, y, z'

loop_
  _atom_site_type_symbol
  _atom_site_label
  _atom_site_symmetry_multiplicity
  _atom_site_fract_x
  _atom_site_fract_y
  _atom_site_fract_z
  _atom_site_occupancy
  Zn  Zn1       1.0  0.42798  0.65020  0.84266  1.0000
  Zn  Zn2       1.0  0.07202  0.84980  0.34266  1.0000
  Zn  Zn3       1.0  0.92798  0.84980  0.15734  1.0000
  Zn  Zn4       1.0  0.57202  0.65020  0.65734  1.0000
  Zn  Zn5       1.0  0.57202  0.34980  0.15734  1.0000
  Zn  Zn6       1.0  0.92798  0.15020  0.65734  1.0000
  Zn  Zn7       1.0  0.07202  0.15020  0.84266  1.0000
  Zn  Zn8       1.0  0.42798  0.34980  0.34266  1.0000
  P   P1        1.0  0.00000  0.98466  0.75000  1.0000
  P   P2        1.0  0.50000  0.51534  0.25000  1.0000
  P   P3        1.0  0.00000  0.01534  0.25000  1.0000
  P   P4        1.0  0.50000  0.48466  0.75000  1.0000
  O   O1        1.0  0.90731  0.03624  0.70388  1.0000
  O   O2        1.0  0.59269  0.46376  0.20388  1.0000
  O   O3        1.0  0.40731  0.46376  0.29612  1.0000
  O   O4        1.0  0.09269  0.03624  0.79612  1.0000
  O   O5        1.0  0.09269  0.96376  0.29612  1.0000
  O   O6        1.0  0.40731  0.53624  0.79612  1.0000
  O   O7        1.0  0.59269  0.53624  0.70388  1.0000
  O   O8        1.0  0.90731  0.96376  0.20388  1.0000
  O   O9        1.0  0.01580  0.90007  0.45768  1.0000
  O   O10       1.0  0.48420  0.59993  0.95768  1.0000
  O   O11       1.0  0.51580  0.59993  0.54232  1.0000
  O   O12       1.0  0.98420  0.90007  0.04232  1.0000
  O   O13       1.0  0.98420  0.09993  0.54232  1.0000
  O   O14       1.0  0.51580  0.40007  0.04232  1.0000
  O   O15       1.0  0.48420  0.40007  0.45768  1.0000
  O   O16       1.0  0.01580  0.09993  0.95768  1.0000
  O   O17       1.0  0.33760  0.73382  0.77744  1.0000
  O   O18       1.0  0.16240  0.76618  0.27744  1.0000
  O   O19       1.0  0.83760  0.76618  0.22256  1.0000
  O   O20       1.0  0.66240  0.73382  0.72256  1.0000
  O   O21       1.0  0.66240  0.26618  0.22256  1.0000
  O   O22       1.0  0.83760  0.23382  0.72256  1.0000
  O   O23       1.0  0.16240  0.23382  0.77744  1.0000
  O   O24       1.0  0.33760  0.26618  0.27744  1.0000
  O   O25       1.0  0.40308  0.69904  0.66143  1.0000
  O   O26       1.0  0.09692  0.80096  0.16143  1.0000
  O   O27       1.0  0.90308  0.80096  0.33857  1.0000
  O   O28       1.0  0.59692  0.69904  0.83857  1.0000
  O   O29       1.0  0.59692  0.30096  0.33857  1.0000
  O   O30       1.0  0.90308  0.19904  0.83857  1.0000
  O   O31       1.0  0.09692  0.19904  0.66143  1.0000
  O   O32       1.0  0.40308  0.30096  0.16143  1.0000
  O   O33       1.0  0.18030  0.82279  0.43673  1.0000
  O   O34       1.0  0.31970  0.67721  0.93673  1.0000
  O   O35       1.0  0.68030  0.67721  0.56327  1.0000
  O   O36       1.0  0.81970  0.82279  0.06327  1.0000
  O   O37       1.0  0.81970  0.17721  0.56327  1.0000
  O   O38       1.0  0.68030  0.32279  0.06327  1.0000
  O   O39       1.0  0.31970  0.32279  0.43673  1.0000
  O   O40       1.0  0.18030  0.17721  0.93673  1.0000
  C   C1        1.0  0.11030  0.86166  0.48113  1.0000
  C   C2        1.0  0.38970  0.63834  0.98113  1.0000
  C   C3        1.0  0.61030  0.63834  0.51887  1.0000
  C   C4        1.0  0.88970  0.86166  0.01887  1.0000
  C   C5        1.0  0.88970  0.13834  0.51887  1.0000
  C   C6        1.0  0.61030  0.36166  0.01887  1.0000
  C   C7        1.0  0.38970  0.36166  0.48113  1.0000
  C   C8        1.0  0.11030  0.13834  0.98113  1.0000
  C   C9        1.0  0.24300  0.80216  0.67338  1.0000
  C   C10       1.0  0.25700  0.69784  0.17338  1.0000
  C   C11       1.0  0.74300  0.69784  0.32662  1.0000
  C   C12       1.0  0.75700  0.80216  0.82662  1.0000
  C   C13       1.0  0.75700  0.19784  0.32662  1.0000
  C   C14       1.0  0.74300  0.30216  0.82662  1.0000
  C   C15       1.0  0.25700  0.30216  0.67338  1.0000
  C   C16       1.0  0.24300  0.19784  0.17338  1.0000
  C   C17       1.0  0.33560  0.73993  0.70675  1.0000
  C   C18       1.0  0.16440  0.76007  0.20675  1.0000
  C   C19       1.0  0.83560  0.76007  0.29325  1.0000
  C   C20       1.0  0.66440  0.73993  0.79325  1.0000
  C   C21       1.0  0.66440  0.26007  0.29325  1.0000
  C   C22       1.0  0.83560  0.23993  0.79325  1.0000
  C   C23       1.0  0.16440  0.23993  0.70675  1.0000
  C   C24       1.0  0.33560  0.26007  0.20675  1.0000
  C   C25       1.0  0.13720  0.86137  0.56458  1.0000
  C   C26       1.0  0.36280  0.63863  0.06458  1.0000
  C   C27       1.0  0.63720  0.63863  0.43542  1.0000
  C   C28       1.0  0.86280  0.86137  0.93542  1.0000
  C   C29       1.0  0.86280  0.13863  0.43542  1.0000
  C   C30       1.0  0.63720  0.36137  0.93542  1.0000
  C   C31       1.0  0.36280  0.36137  0.56458  1.0000
  C   C32       1.0  0.13720  0.13863  0.06458  1.0000
  C   C33       1.0  0.22600  0.80540  0.59500  1.0000
  C   C34       1.0  0.27400  0.69460  0.09500  1.0000
  C   C35       1.0  0.72600  0.69460  0.40500  1.0000
  C   C36       1.0  0.77400  0.80540  0.90500  1.0000
  C   C37       1.0  0.77400  0.19460  0.40500  1.0000
  C   C38       1.0  0.72600  0.30540  0.90500  1.0000
  C   C39       1.0  0.27400  0.30540  0.59500  1.0000
  C   C40       1.0  0.22600  0.19460  0.09500  1.0000
  H   H1        1.0  0.27490  0.76960  0.56280  1.0000
  H   H2        1.0  0.22510  0.73040  0.06280  1.0000
  H   H3        1.0  0.77490  0.73040  0.43720  1.0000
  H   H4        1.0  0.72510  0.76960  0.93720  1.0000
  H   H5        1.0  0.72510  0.23040  0.43720  1.0000
  H   H6        1.0  0.77490  0.26960  0.93720  1.0000
  H   H7        1.0  0.22510  0.26960  0.56280  1.0000
  H   H8        1.0  0.27490  0.23040  0.06280  1.0000
  C   C41       1.0  0.08700  0.91396  0.68903  1.0000
  C   C42       1.0  0.41300  0.58604  0.18903  1.0000
  C   C43       1.0  0.58700  0.58604  0.31097  1.0000
  C   C44       1.0  0.91300  0.91396  0.81097  1.0000
  C   C45       1.0  0.91300  0.08604  0.31097  1.0000
  C   C46       1.0  0.58700  0.41396  0.81097  1.0000
  C   C47       1.0  0.41300  0.41396  0.68903  1.0000
  C   C48       1.0  0.08700  0.08604  0.18903  1.0000
  C   C49       1.0  0.17280  0.85601  0.71964  1.0000
  C   C50       1.0  0.32720  0.64399  0.21964  1.0000
  C   C51       1.0  0.67280  0.64399  0.28036  1.0000
  C   C52       1.0  0.82720  0.85601  0.78036  1.0000
  C   C53       1.0  0.82720  0.14399  0.28036  1.0000
  C   C54       1.0  0.67280  0.35601  0.78036  1.0000
  C   C55       1.0  0.32720  0.35601  0.71964  1.0000
  C   C56       1.0  0.17280  0.14399  0.21964  1.0000
  H   H9        1.0  0.18340  0.85330  0.77280  1.0000
  H   H10       1.0  0.31660  0.64670  0.27280  1.0000
  H   H11       1.0  0.68340  0.64670  0.22720  1.0000
  H   H12       1.0  0.81660  0.85330  0.72720  1.0000
  H   H13       1.0  0.81660  0.14670  0.22720  1.0000
  H   H14       1.0  0.68340  0.35330  0.72720  1.0000
  H   H15       1.0  0.31660  0.35330  0.77280  1.0000
  H   H16       1.0  0.18340  0.14670  0.27280  1.0000
  C   C57       1.0  0.06860  0.91564  0.61101  1.0000
  C   C58       1.0  0.43140  0.58436  0.11101  1.0000
  C   C59       1.0  0.56860  0.58436  0.38899  1.0000
  C   C60       1.0  0.93140  0.91564  0.88899  1.0000
  C   C61       1.0  0.93140  0.08436  0.38899  1.0000
  C   C62       1.0  0.56860  0.41564  0.88899  1.0000
  C   C63       1.0  0.43140  0.41564  0.61101  1.0000
  C   C64       1.0  0.06860  0.08436  0.11101  1.0000
  H   H17       1.0  0.00870  0.95410  0.58980  1.0000
  H   H18       1.0  0.49130  0.54590  0.08980  1.0000
  H   H19       1.0  0.50870  0.54590  0.41020  1.0000
  H   H20       1.0  0.99130  0.95410  0.91020  1.0000
  H   H21       1.0  0.99130  0.04590  0.41020  1.0000
  H   H22       1.0  0.50870  0.45410  0.91020  1.0000
  H   H23       1.0  0.49130  0.45410  0.58980  1.0000
  H   H24       1.0  0.00870  0.04590  0.08980  1.0000
