data_image0
_chemical_formula_structural       Cd4S4O22C4H4
_chemical_formula_sum              "Cd4 S4 O22 C4 H4"
_cell_length_a       6.2237
_cell_length_b       8.0397
_cell_length_c       16.7299
_cell_angle_alpha    86.119
_cell_angle_beta     87.147
_cell_angle_gamma    71.784

_space_group_name_H-M_alt    "P 1"
_space_group_IT_number       1

loop_
  _space_group_symop_operation_xyz
  'x, y, z'

loop_
  _atom_site_type_symbol
  _atom_site_label
  _atom_site_symmetry_multiplicity
  _atom_site_fract_x
  _atom_site_fract_y
  _atom_site_fract_z
  _atom_site_occupancy
  Cd  Cd1       1.0  0.89143  0.80844  0.77135  1.0000
  Cd  Cd2       1.0  0.10857  0.19156  0.22865  1.0000
  Cd  Cd3       1.0  0.25259  0.03893  0.86398  1.0000
  Cd  Cd4       1.0  0.74741  0.96107  0.13602  1.0000
  S   S1        1.0  0.76123  0.96125  0.93804  1.0000
  S   S2        1.0  0.23877  0.03875  0.06196  1.0000
  S   S3        1.0  0.12157  0.37768  0.76729  1.0000
  S   S4        1.0  0.87843  0.62232  0.23271  1.0000
  O   O1        1.0  0.05250  0.53220  0.82169  1.0000
  O   O2        1.0  0.94750  0.46780  0.17831  1.0000
  O   O3        1.0  0.35550  0.26660  0.79536  1.0000
  O   O4        1.0  0.64450  0.73340  0.20464  1.0000
  O   O5        1.0  0.07620  0.73660  0.65051  1.0000
  O   O6        1.0  0.92380  0.26340  0.34949  1.0000
  O   O7        1.0  0.76480  0.84660  0.01472  1.0000
  O   O8        1.0  0.23520  0.15340  0.98528  1.0000
  O   O9        1.0  0.26700  0.85640  0.76361  1.0000
  O   O10       1.0  0.73300  0.14360  0.23639  1.0000
  O   O11       1.0  0.99920  0.89280  0.89982  1.0000
  O   O12       1.0  0.00080  0.10720  0.10018  1.0000
  O   O13       1.0  0.62470  0.89550  0.87974  1.0000
  O   O14       1.0  0.37530  0.10450  0.12026  1.0000
  O   O15       1.0  0.97720  0.26180  0.79796  1.0000
  O   O16       1.0  0.02280  0.73820  0.20204  1.0000
  O   O17       1.0  0.60720  0.75310  0.70157  1.0000
  O   O18       1.0  0.39280  0.24690  0.29843  1.0000
  O   O19       1.0  0.75230  0.09390  0.71886  1.0000
  O   O20       1.0  0.24770  0.90610  0.28114  1.0000
  O   O21       1.0  0.38460  0.69910  0.57280  1.0000
  O   O22       1.0  0.61540  0.30090  0.42720  1.0000
  C   C1        1.0  0.27850  0.73490  0.63740  1.0000
  C   C2        1.0  0.72150  0.26510  0.36260  1.0000
  C   C3        1.0  0.39940  0.78390  0.70790  1.0000
  C   C4        1.0  0.60060  0.21610  0.29210  1.0000
  H   H1        1.0  0.62200  0.14800  0.73500  1.0000
  H   H2        1.0  0.37800  0.85200  0.26500  1.0000
  H   H3        1.0  0.83100  0.15200  0.73300  1.0000
  H   H4        1.0  0.16900  0.84800  0.26700  1.0000
