data_image0
_chemical_formula_structural       Zn24C32H16C32H16C32H16C32O112P16
_chemical_formula_sum              "Zn24 C128 H48 O112 P16"
_cell_length_a       18.453
_cell_length_b       18.453
_cell_length_c       23.283
_cell_angle_alpha    90
_cell_angle_beta     90
_cell_angle_gamma    90

_space_group_name_H-M_alt    "P 1"
_space_group_IT_number       1

loop_
  _space_group_symop_operation_xyz
  'x, y, z'

loop_
  _atom_site_type_symbol
  _atom_site_label
  _atom_site_symmetry_multiplicity
  _atom_site_fract_x
  _atom_site_fract_y
  _atom_site_fract_z
  _atom_site_occupancy
  Zn  Zn1       1.0  0.25000  0.87470  0.37500  1.0000
  Zn  Zn2       1.0  0.87470  0.75000  0.62500  1.0000
  Zn  Zn3       1.0  0.75000  0.12530  0.37500  1.0000
  Zn  Zn4       1.0  0.12530  0.25000  0.62500  1.0000
  Zn  Zn5       1.0  0.25000  0.62530  0.87500  1.0000
  Zn  Zn6       1.0  0.62530  0.75000  0.12500  1.0000
  Zn  Zn7       1.0  0.75000  0.37470  0.87500  1.0000
  Zn  Zn8       1.0  0.37470  0.25000  0.12500  1.0000
  Zn  Zn9       1.0  0.22558  0.26644  0.22373  1.0000
  Zn  Zn10      1.0  0.26644  0.77442  0.77627  1.0000
  Zn  Zn11      1.0  0.77442  0.73356  0.22373  1.0000
  Zn  Zn12      1.0  0.73356  0.22558  0.77627  1.0000
  Zn  Zn13      1.0  0.22558  0.23356  0.02627  1.0000
  Zn  Zn14      1.0  0.23356  0.77442  0.97373  1.0000
  Zn  Zn15      1.0  0.77442  0.76644  0.02627  1.0000
  Zn  Zn16      1.0  0.76644  0.22558  0.97373  1.0000
  Zn  Zn17      1.0  0.72558  0.76644  0.72373  1.0000
  Zn  Zn18      1.0  0.76644  0.27442  0.27627  1.0000
  Zn  Zn19      1.0  0.27442  0.23356  0.72373  1.0000
  Zn  Zn20      1.0  0.23356  0.72558  0.27627  1.0000
  Zn  Zn21      1.0  0.72558  0.73356  0.52627  1.0000
  Zn  Zn22      1.0  0.73356  0.27442  0.47373  1.0000
  Zn  Zn23      1.0  0.27442  0.26644  0.52627  1.0000
  Zn  Zn24      1.0  0.26644  0.72558  0.47373  1.0000
  C   C1        1.0  0.23600  0.04540  0.14550  1.0000
  C   C2        1.0  0.04540  0.76400  0.85450  1.0000
  C   C3        1.0  0.76400  0.95460  0.14550  1.0000
  C   C4        1.0  0.95460  0.23600  0.85450  1.0000
  C   C5        1.0  0.23600  0.45460  0.10450  1.0000
  C   C6        1.0  0.45460  0.76400  0.89550  1.0000
  C   C7        1.0  0.76400  0.54540  0.10450  1.0000
  C   C8        1.0  0.54540  0.23600  0.89550  1.0000
  C   C9        1.0  0.73600  0.54540  0.64550  1.0000
  C   C10       1.0  0.54540  0.26400  0.35450  1.0000
  C   C11       1.0  0.26400  0.45460  0.64550  1.0000
  C   C12       1.0  0.45460  0.73600  0.35450  1.0000
  C   C13       1.0  0.73600  0.95460  0.60450  1.0000
  C   C14       1.0  0.95460  0.26400  0.39550  1.0000
  C   C15       1.0  0.26400  0.04540  0.60450  1.0000
  C   C16       1.0  0.04540  0.73600  0.39550  1.0000
  C   C17       1.0  0.23580  0.01030  0.19860  1.0000
  C   C18       1.0  0.01030  0.76420  0.80140  1.0000
  C   C19       1.0  0.76420  0.98970  0.19860  1.0000
  C   C20       1.0  0.98970  0.23580  0.80140  1.0000
  C   C21       1.0  0.23580  0.48970  0.05140  1.0000
  C   C22       1.0  0.48970  0.76420  0.94860  1.0000
  C   C23       1.0  0.76420  0.51030  0.05140  1.0000
  C   C24       1.0  0.51030  0.23580  0.94860  1.0000
  C   C25       1.0  0.73580  0.51030  0.69860  1.0000
  C   C26       1.0  0.51030  0.26420  0.30140  1.0000
  C   C27       1.0  0.26420  0.48970  0.69860  1.0000
  C   C28       1.0  0.48970  0.73580  0.30140  1.0000
  C   C29       1.0  0.73580  0.98970  0.55140  1.0000
  C   C30       1.0  0.98970  0.26420  0.44860  1.0000
  C   C31       1.0  0.26420  0.01030  0.55140  1.0000
  C   C32       1.0  0.01030  0.73580  0.44860  1.0000
  H   H1        1.0  0.23780  0.03770  0.23200  1.0000
  H   H2        1.0  0.03770  0.76220  0.76800  1.0000
  H   H3        1.0  0.76220  0.96230  0.23200  1.0000
  H   H4        1.0  0.96230  0.23780  0.76800  1.0000
  H   H5        1.0  0.23780  0.46230  0.01800  1.0000
  H   H6        1.0  0.46230  0.76220  0.98200  1.0000
  H   H7        1.0  0.76220  0.53770  0.01800  1.0000
  H   H8        1.0  0.53770  0.23780  0.98200  1.0000
  H   H9        1.0  0.73780  0.53770  0.73200  1.0000
  H   H10       1.0  0.53770  0.26220  0.26800  1.0000
  H   H11       1.0  0.26220  0.46230  0.73200  1.0000
  H   H12       1.0  0.46230  0.73780  0.26800  1.0000
  H   H13       1.0  0.73780  0.96230  0.51800  1.0000
  H   H14       1.0  0.96230  0.26220  0.48200  1.0000
  H   H15       1.0  0.26220  0.03770  0.51800  1.0000
  H   H16       1.0  0.03770  0.73780  0.48200  1.0000
  C   C33       1.0  0.23250  0.93540  0.20260  1.0000
  C   C34       1.0  0.93540  0.76750  0.79740  1.0000
  C   C35       1.0  0.76750  0.06460  0.20260  1.0000
  C   C36       1.0  0.06460  0.23250  0.79740  1.0000
  C   C37       1.0  0.23250  0.56460  0.04740  1.0000
  C   C38       1.0  0.56460  0.76750  0.95260  1.0000
  C   C39       1.0  0.76750  0.43540  0.04740  1.0000
  C   C40       1.0  0.43540  0.23250  0.95260  1.0000
  C   C41       1.0  0.73250  0.43540  0.70260  1.0000
  C   C42       1.0  0.43540  0.26750  0.29740  1.0000
  C   C43       1.0  0.26750  0.56460  0.70260  1.0000
  C   C44       1.0  0.56460  0.73250  0.29740  1.0000
  C   C45       1.0  0.73250  0.06460  0.54740  1.0000
  C   C46       1.0  0.06460  0.26750  0.45260  1.0000
  C   C47       1.0  0.26750  0.93540  0.54740  1.0000
  C   C48       1.0  0.93540  0.73250  0.45260  1.0000
  C   C49       1.0  0.22960  0.89360  0.15270  1.0000
  C   C50       1.0  0.89360  0.77040  0.84730  1.0000
  C   C51       1.0  0.77040  0.10640  0.15270  1.0000
  C   C52       1.0  0.10640  0.22960  0.84730  1.0000
  C   C53       1.0  0.22960  0.60640  0.09730  1.0000
  C   C54       1.0  0.60640  0.77040  0.90270  1.0000
  C   C55       1.0  0.77040  0.39360  0.09730  1.0000
  C   C56       1.0  0.39360  0.22960  0.90270  1.0000
  C   C57       1.0  0.72960  0.39360  0.65270  1.0000
  C   C58       1.0  0.39360  0.27040  0.34730  1.0000
  C   C59       1.0  0.27040  0.60640  0.65270  1.0000
  C   C60       1.0  0.60640  0.72960  0.34730  1.0000
  C   C61       1.0  0.72960  0.10640  0.59730  1.0000
  C   C62       1.0  0.10640  0.27040  0.40270  1.0000
  C   C63       1.0  0.27040  0.89360  0.59730  1.0000
  C   C64       1.0  0.89360  0.72960  0.40270  1.0000
  H   H17       1.0  0.22690  0.84340  0.15540  1.0000
  H   H18       1.0  0.84340  0.77310  0.84460  1.0000
  H   H19       1.0  0.77310  0.15660  0.15540  1.0000
  H   H20       1.0  0.15660  0.22690  0.84460  1.0000
  H   H21       1.0  0.22690  0.65660  0.09460  1.0000
  H   H22       1.0  0.65660  0.77310  0.90540  1.0000
  H   H23       1.0  0.77310  0.34340  0.09460  1.0000
  H   H24       1.0  0.34340  0.22690  0.90540  1.0000
  H   H25       1.0  0.72690  0.34340  0.65540  1.0000
  H   H26       1.0  0.34340  0.27310  0.34460  1.0000
  H   H27       1.0  0.27310  0.65660  0.65540  1.0000
  H   H28       1.0  0.65660  0.72690  0.34460  1.0000
  H   H29       1.0  0.72690  0.15660  0.59460  1.0000
  H   H30       1.0  0.15660  0.27310  0.40540  1.0000
  H   H31       1.0  0.27310  0.84340  0.59460  1.0000
  H   H32       1.0  0.84340  0.72690  0.40540  1.0000
  C   C65       1.0  0.23090  0.92620  0.09950  1.0000
  C   C66       1.0  0.92620  0.76910  0.90050  1.0000
  C   C67       1.0  0.76910  0.07380  0.09950  1.0000
  C   C68       1.0  0.07380  0.23090  0.90050  1.0000
  C   C69       1.0  0.23090  0.57380  0.15050  1.0000
  C   C70       1.0  0.57380  0.76910  0.84950  1.0000
  C   C71       1.0  0.76910  0.42620  0.15050  1.0000
  C   C72       1.0  0.42620  0.23090  0.84950  1.0000
  C   C73       1.0  0.73090  0.42620  0.59950  1.0000
  C   C74       1.0  0.42620  0.26910  0.40050  1.0000
  C   C75       1.0  0.26910  0.57380  0.59950  1.0000
  C   C76       1.0  0.57380  0.73090  0.40050  1.0000
  C   C77       1.0  0.73090  0.07380  0.65050  1.0000
  C   C78       1.0  0.07380  0.26910  0.34950  1.0000
  C   C79       1.0  0.26910  0.92620  0.65050  1.0000
  C   C80       1.0  0.92620  0.73090  0.34950  1.0000
  C   C81       1.0  0.23440  0.00200  0.09590  1.0000
  C   C82       1.0  0.00200  0.76560  0.90410  1.0000
  C   C83       1.0  0.76560  0.99800  0.09590  1.0000
  C   C84       1.0  0.99800  0.23440  0.90410  1.0000
  C   C85       1.0  0.23440  0.49800  0.15410  1.0000
  C   C86       1.0  0.49800  0.76560  0.84590  1.0000
  C   C87       1.0  0.76560  0.50200  0.15410  1.0000
  C   C88       1.0  0.50200  0.23440  0.84590  1.0000
  C   C89       1.0  0.73440  0.50200  0.59590  1.0000
  C   C90       1.0  0.50200  0.26560  0.40410  1.0000
  C   C91       1.0  0.26560  0.49800  0.59590  1.0000
  C   C92       1.0  0.49800  0.73440  0.40410  1.0000
  C   C93       1.0  0.73440  0.99800  0.65410  1.0000
  C   C94       1.0  0.99800  0.26560  0.34590  1.0000
  C   C95       1.0  0.26560  0.00200  0.65410  1.0000
  C   C96       1.0  0.00200  0.73440  0.34590  1.0000
  H   H33       1.0  0.23560  0.02400  0.05990  1.0000
  H   H34       1.0  0.02400  0.76440  0.94010  1.0000
  H   H35       1.0  0.76440  0.97600  0.05990  1.0000
  H   H36       1.0  0.97600  0.23560  0.94010  1.0000
  H   H37       1.0  0.23560  0.47600  0.19010  1.0000
  H   H38       1.0  0.47600  0.76440  0.80990  1.0000
  H   H39       1.0  0.76440  0.52400  0.19010  1.0000
  H   H40       1.0  0.52400  0.23560  0.80990  1.0000
  H   H41       1.0  0.73560  0.52400  0.55990  1.0000
  H   H42       1.0  0.52400  0.26440  0.44010  1.0000
  H   H43       1.0  0.26440  0.47600  0.55990  1.0000
  H   H44       1.0  0.47600  0.73560  0.44010  1.0000
  H   H45       1.0  0.73560  0.97600  0.69010  1.0000
  H   H46       1.0  0.97600  0.26440  0.30990  1.0000
  H   H47       1.0  0.26440  0.02400  0.69010  1.0000
  H   H48       1.0  0.02400  0.73560  0.30990  1.0000
  C   C97       1.0  0.60330  0.73340  0.23990  1.0000
  C   C98       1.0  0.73340  0.39670  0.76010  1.0000
  C   C99       1.0  0.39670  0.26660  0.23990  1.0000
  C   C100      1.0  0.26660  0.60330  0.76010  1.0000
  C   C101      1.0  0.60330  0.76660  0.01010  1.0000
  C   C102      1.0  0.76660  0.39670  0.98990  1.0000
  C   C103      1.0  0.39670  0.23340  0.01010  1.0000
  C   C104      1.0  0.23340  0.60330  0.98990  1.0000
  C   C105      1.0  0.10330  0.23340  0.73990  1.0000
  C   C106      1.0  0.23340  0.89670  0.26010  1.0000
  C   C107      1.0  0.89670  0.76660  0.73990  1.0000
  C   C108      1.0  0.76660  0.10330  0.26010  1.0000
  C   C109      1.0  0.10330  0.26660  0.51010  1.0000
  C   C110      1.0  0.26660  0.89670  0.48990  1.0000
  C   C111      1.0  0.89670  0.73340  0.51010  1.0000
  C   C112      1.0  0.73340  0.10330  0.48990  1.0000
  C   C113      1.0  0.22950  0.88360  0.04550  1.0000
  C   C114      1.0  0.88360  0.77050  0.95450  1.0000
  C   C115      1.0  0.77050  0.11640  0.04550  1.0000
  C   C116      1.0  0.11640  0.22950  0.95450  1.0000
  C   C117      1.0  0.22950  0.61640  0.20450  1.0000
  C   C118      1.0  0.61640  0.77050  0.79550  1.0000
  C   C119      1.0  0.77050  0.38360  0.20450  1.0000
  C   C120      1.0  0.38360  0.22950  0.79550  1.0000
  C   C121      1.0  0.72950  0.38360  0.54550  1.0000
  C   C122      1.0  0.38360  0.27050  0.45450  1.0000
  C   C123      1.0  0.27050  0.61640  0.54550  1.0000
  C   C124      1.0  0.61640  0.72950  0.45450  1.0000
  C   C125      1.0  0.72950  0.11640  0.70450  1.0000
  C   C126      1.0  0.11640  0.27050  0.29550  1.0000
  C   C127      1.0  0.27050  0.88360  0.70450  1.0000
  C   C128      1.0  0.88360  0.72950  0.29550  1.0000
  O   O1        1.0  0.34160  0.82440  0.36280  1.0000
  O   O2        1.0  0.82440  0.65840  0.63720  1.0000
  O   O3        1.0  0.65840  0.17560  0.36280  1.0000
  O   O4        1.0  0.17560  0.34160  0.63720  1.0000
  O   O5        1.0  0.34160  0.67560  0.88720  1.0000
  O   O6        1.0  0.67560  0.65840  0.11280  1.0000
  O   O7        1.0  0.65840  0.32440  0.88720  1.0000
  O   O8        1.0  0.32440  0.34160  0.11280  1.0000
  O   O9        1.0  0.84160  0.32440  0.86280  1.0000
  O   O10       1.0  0.32440  0.15840  0.13720  1.0000
  O   O11       1.0  0.15840  0.67560  0.86280  1.0000
  O   O12       1.0  0.67560  0.84160  0.13720  1.0000
  O   O13       1.0  0.84160  0.17560  0.38720  1.0000
  O   O14       1.0  0.17560  0.15840  0.61280  1.0000
  O   O15       1.0  0.15840  0.82440  0.38720  1.0000
  O   O16       1.0  0.82440  0.84160  0.61280  1.0000
  O   O17       1.0  0.20690  0.17280  0.19010  1.0000
  O   O18       1.0  0.17280  0.79310  0.80990  1.0000
  O   O19       1.0  0.79310  0.82720  0.19010  1.0000
  O   O20       1.0  0.82720  0.20690  0.80990  1.0000
  O   O21       1.0  0.20690  0.32720  0.05990  1.0000
  O   O22       1.0  0.32720  0.79310  0.94010  1.0000
  O   O23       1.0  0.79310  0.67280  0.05990  1.0000
  O   O24       1.0  0.67280  0.20690  0.94010  1.0000
  O   O25       1.0  0.70690  0.67280  0.69010  1.0000
  O   O26       1.0  0.67280  0.29310  0.30990  1.0000
  O   O27       1.0  0.29310  0.32720  0.69010  1.0000
  O   O28       1.0  0.32720  0.70690  0.30990  1.0000
  O   O29       1.0  0.70690  0.82720  0.55990  1.0000
  O   O30       1.0  0.82720  0.29310  0.44010  1.0000
  O   O31       1.0  0.29310  0.17280  0.55990  1.0000
  O   O32       1.0  0.17280  0.70690  0.44010  1.0000
  O   O33       1.0  0.33820  0.70670  0.41700  1.0000
  O   O34       1.0  0.70670  0.66180  0.58300  1.0000
  O   O35       1.0  0.66180  0.29330  0.41700  1.0000
  O   O36       1.0  0.29330  0.33820  0.58300  1.0000
  O   O37       1.0  0.33820  0.79330  0.83300  1.0000
  O   O38       1.0  0.79330  0.66180  0.16700  1.0000
  O   O39       1.0  0.66180  0.20670  0.83300  1.0000
  O   O40       1.0  0.20670  0.33820  0.16700  1.0000
  O   O41       1.0  0.83820  0.20670  0.91700  1.0000
  O   O42       1.0  0.20670  0.16180  0.08300  1.0000
  O   O43       1.0  0.16180  0.79330  0.91700  1.0000
  O   O44       1.0  0.79330  0.83820  0.08300  1.0000
  O   O45       1.0  0.83820  0.29330  0.33300  1.0000
  O   O46       1.0  0.29330  0.16180  0.66700  1.0000
  O   O47       1.0  0.16180  0.70670  0.33300  1.0000
  O   O48       1.0  0.70670  0.83820  0.66700  1.0000
  O   O49       1.0  0.66910  0.72670  0.24110  1.0000
  O   O50       1.0  0.72670  0.33090  0.75890  1.0000
  O   O51       1.0  0.33090  0.27330  0.24110  1.0000
  O   O52       1.0  0.27330  0.66910  0.75890  1.0000
  O   O53       1.0  0.66910  0.77330  0.00890  1.0000
  O   O54       1.0  0.77330  0.33090  0.99110  1.0000
  O   O55       1.0  0.33090  0.22670  0.00890  1.0000
  O   O56       1.0  0.22670  0.66910  0.99110  1.0000
  O   O57       1.0  0.16910  0.22670  0.74110  1.0000
  O   O58       1.0  0.22670  0.83090  0.25890  1.0000
  O   O59       1.0  0.83090  0.77330  0.74110  1.0000
  O   O60       1.0  0.77330  0.16910  0.25890  1.0000
  O   O61       1.0  0.16910  0.27330  0.50890  1.0000
  O   O62       1.0  0.27330  0.83090  0.49110  1.0000
  O   O63       1.0  0.83090  0.72670  0.50890  1.0000
  O   O64       1.0  0.72670  0.16910  0.49110  1.0000
  O   O65       1.0  0.56510  0.73990  0.19540  1.0000
  O   O66       1.0  0.73990  0.43490  0.80460  1.0000
  O   O67       1.0  0.43490  0.26010  0.19540  1.0000
  O   O68       1.0  0.26010  0.56510  0.80460  1.0000
  O   O69       1.0  0.56510  0.76010  0.05460  1.0000
  O   O70       1.0  0.76010  0.43490  0.94540  1.0000
  O   O71       1.0  0.43490  0.23990  0.05460  1.0000
  O   O72       1.0  0.23990  0.56510  0.94540  1.0000
  O   O73       1.0  0.06510  0.23990  0.69540  1.0000
  O   O74       1.0  0.23990  0.93490  0.30460  1.0000
  O   O75       1.0  0.93490  0.76010  0.69540  1.0000
  O   O76       1.0  0.76010  0.06510  0.30460  1.0000
  O   O77       1.0  0.06510  0.26010  0.55460  1.0000
  O   O78       1.0  0.26010  0.93490  0.44540  1.0000
  O   O79       1.0  0.93490  0.73990  0.55460  1.0000
  O   O80       1.0  0.73990  0.06510  0.44540  1.0000
  O   O81       1.0  0.23280  0.81460  0.05100  1.0000
  O   O82       1.0  0.81460  0.76720  0.94900  1.0000
  O   O83       1.0  0.76720  0.18540  0.05100  1.0000
  O   O84       1.0  0.18540  0.23280  0.94900  1.0000
  O   O85       1.0  0.23280  0.68540  0.19900  1.0000
  O   O86       1.0  0.68540  0.76720  0.80100  1.0000
  O   O87       1.0  0.76720  0.31460  0.19900  1.0000
  O   O88       1.0  0.31460  0.23280  0.80100  1.0000
  O   O89       1.0  0.73280  0.31460  0.55100  1.0000
  O   O90       1.0  0.31460  0.26720  0.44900  1.0000
  O   O91       1.0  0.26720  0.68540  0.55100  1.0000
  O   O92       1.0  0.68540  0.73280  0.44900  1.0000
  O   O93       1.0  0.73280  0.18540  0.69900  1.0000
  O   O94       1.0  0.18540  0.26720  0.30100  1.0000
  O   O95       1.0  0.26720  0.81460  0.69900  1.0000
  O   O96       1.0  0.81460  0.73280  0.30100  1.0000
  O   O97       1.0  0.58730  0.72570  0.50070  1.0000
  O   O98       1.0  0.72570  0.41270  0.49930  1.0000
  O   O99       1.0  0.41270  0.27430  0.50070  1.0000
  O   O100      1.0  0.27430  0.58730  0.49930  1.0000
  O   O101      1.0  0.58730  0.77430  0.74930  1.0000
  O   O102      1.0  0.77430  0.41270  0.25070  1.0000
  O   O103      1.0  0.41270  0.22570  0.74930  1.0000
  O   O104      1.0  0.22570  0.58730  0.25070  1.0000
  O   O105      1.0  0.08730  0.22570  0.00070  1.0000
  O   O106      1.0  0.22570  0.91270  0.99930  1.0000
  O   O107      1.0  0.91270  0.77430  0.00070  1.0000
  O   O108      1.0  0.77430  0.08730  0.99930  1.0000
  O   O109      1.0  0.08730  0.27430  0.24930  1.0000
  O   O110      1.0  0.27430  0.91270  0.75070  1.0000
  O   O111      1.0  0.91270  0.72570  0.24930  1.0000
  O   O112      1.0  0.72570  0.08730  0.75070  1.0000
  P   P1        1.0  0.24453  0.14108  0.13851  1.0000
  P   P2        1.0  0.14108  0.75547  0.86149  1.0000
  P   P3        1.0  0.75547  0.85892  0.13851  1.0000
  P   P4        1.0  0.85892  0.24453  0.86149  1.0000
  P   P5        1.0  0.24453  0.35892  0.11149  1.0000
  P   P6        1.0  0.35892  0.75547  0.88851  1.0000
  P   P7        1.0  0.75547  0.64108  0.11149  1.0000
  P   P8        1.0  0.64108  0.24453  0.88851  1.0000
  P   P9        1.0  0.74453  0.64108  0.63851  1.0000
  P   P10       1.0  0.64108  0.25547  0.36149  1.0000
  P   P11       1.0  0.25547  0.35892  0.63851  1.0000
  P   P12       1.0  0.35892  0.74453  0.36149  1.0000
  P   P13       1.0  0.74453  0.85892  0.61149  1.0000
  P   P14       1.0  0.85892  0.25547  0.38851  1.0000
  P   P15       1.0  0.25547  0.14108  0.61149  1.0000
  P   P16       1.0  0.14108  0.74453  0.38851  1.0000
