data_image0
_chemical_formula_structural       Eu2O16C6H2C10H2C4
_chemical_formula_sum              "Eu2 O16 C20 H4"
_cell_length_a       7.283
_cell_length_b       9.935
_cell_length_c       11.082
_cell_angle_alpha    102.576
_cell_angle_beta     105.764
_cell_angle_gamma    109.146

_space_group_name_H-M_alt    "P 1"
_space_group_IT_number       1

loop_
  _space_group_symop_operation_xyz
  'x, y, z'

loop_
  _atom_site_type_symbol
  _atom_site_label
  _atom_site_symmetry_multiplicity
  _atom_site_fract_x
  _atom_site_fract_y
  _atom_site_fract_z
  _atom_site_occupancy
  Eu  Eu1       1.0  0.81997  0.55149  0.58199  1.0000
  Eu  Eu2       1.0  0.18003  0.44851  0.41801  1.0000
  O   O1        1.0  0.68280  0.39910  0.72860  1.0000
  O   O2        1.0  0.31720  0.60090  0.27140  1.0000
  O   O3        1.0  0.76730  0.64520  0.78900  1.0000
  O   O4        1.0  0.23270  0.35480  0.21100  1.0000
  O   O5        1.0  0.09390  0.53640  0.74870  1.0000
  O   O6        1.0  0.90610  0.46360  0.25130  1.0000
  O   O7        1.0  0.29310  0.46340  0.64850  1.0000
  O   O8        1.0  0.70690  0.53660  0.35150  1.0000
  O   O9        1.0  0.52760  0.64570  0.54160  1.0000
  O   O10       1.0  0.47240  0.35430  0.45840  1.0000
  O   O11       1.0  0.84410  0.80940  0.58250  1.0000
  O   O12       1.0  0.15590  0.19060  0.41750  1.0000
  O   O13       1.0  0.13400  0.66250  0.53340  1.0000
  O   O14       1.0  0.86600  0.33750  0.46660  1.0000
  O   O15       1.0  0.28800  0.85010  0.72820  1.0000
  O   O16       1.0  0.71200  0.14990  0.27180  1.0000
  C   C1        1.0  0.68330  0.51880  0.79830  1.0000
  C   C2        1.0  0.31670  0.48120  0.20170  1.0000
  C   C3        1.0  0.58200  0.50680  0.89990  1.0000
  C   C4        1.0  0.41800  0.49320  0.10010  1.0000
  C   C5        1.0  0.69680  0.50260  0.02080  1.0000
  C   C6        1.0  0.30320  0.49740  0.97920  1.0000
  H   H1        1.0  0.82980  0.50480  0.03490  1.0000
  H   H2        1.0  0.17020  0.49520  0.96510  1.0000
  C   C7        1.0  0.38290  0.50470  0.87880  1.0000
  C   C8        1.0  0.61710  0.49530  0.12120  1.0000
  C   C9        1.0  0.24550  0.50230  0.74670  1.0000
  C   C10       1.0  0.75450  0.49770  0.25330  1.0000
  C   C11       1.0  0.65230  0.77480  0.55180  1.0000
  C   C12       1.0  0.34770  0.22520  0.44820  1.0000
  C   C13       1.0  0.56760  0.88910  0.52490  1.0000
  C   C14       1.0  0.43240  0.11090  0.47510  1.0000
  C   C15       1.0  0.66980  0.99140  0.47210  1.0000
  C   C16       1.0  0.33020  0.00860  0.52790  1.0000
  H   H3        1.0  0.78430  0.98520  0.45340  1.0000
  H   H4        1.0  0.21570  0.01480  0.54660  1.0000
  C   C17       1.0  0.39470  0.89710  0.55350  1.0000
  C   C18       1.0  0.60530  0.10290  0.44650  1.0000
  C   C19       1.0  0.26870  0.79630  0.61370  1.0000
  C   C20       1.0  0.73130  0.20370  0.38630  1.0000
