data_image0
_chemical_formula_structural       Cd24O192C48H16C48H16C16H16C48H16C32H16C16H16C32H48C16H48C48H16C48H16C16H16C48H16C32H16C16H16C32H48C16H48
_chemical_formula_sum              "Cd24 O192 C512 H384"
_cell_length_a       22.3139
_cell_length_b       22.3139
_cell_length_c       43.2016
_cell_angle_alpha    90
_cell_angle_beta     90
_cell_angle_gamma    90

_space_group_name_H-M_alt    "P 1"
_space_group_IT_number       1

loop_
  _space_group_symop_operation_xyz
  'x, y, z'

loop_
  _atom_site_type_symbol
  _atom_site_label
  _atom_site_symmetry_multiplicity
  _atom_site_fract_x
  _atom_site_fract_y
  _atom_site_fract_z
  _atom_site_occupancy
  Cd  Cd1       1.0  0.86572  0.86809  0.67610  1.0000
  Cd  Cd2       1.0  0.13428  0.13191  0.67610  1.0000
  Cd  Cd3       1.0  0.86809  0.13428  0.32390  1.0000
  Cd  Cd4       1.0  0.13191  0.86572  0.32390  1.0000
  Cd  Cd5       1.0  0.63428  0.86809  0.07390  1.0000
  Cd  Cd6       1.0  0.36572  0.13191  0.07390  1.0000
  Cd  Cd7       1.0  0.63191  0.13428  0.42610  1.0000
  Cd  Cd8       1.0  0.36809  0.86572  0.42610  1.0000
  Cd  Cd9       1.0  0.36572  0.36809  0.17610  1.0000
  Cd  Cd10      1.0  0.63428  0.63191  0.17610  1.0000
  Cd  Cd11      1.0  0.36809  0.63428  0.82390  1.0000
  Cd  Cd12      1.0  0.63191  0.36572  0.82390  1.0000
  Cd  Cd13      1.0  0.13428  0.36809  0.57390  1.0000
  Cd  Cd14      1.0  0.86572  0.63191  0.57390  1.0000
  Cd  Cd15      1.0  0.13191  0.63428  0.92610  1.0000
  Cd  Cd16      1.0  0.86809  0.36572  0.92610  1.0000
  Cd  Cd17      1.0  0.86336  0.75000  0.62500  1.0000
  Cd  Cd18      1.0  0.13664  0.25000  0.62500  1.0000
  Cd  Cd19      1.0  0.75000  0.13664  0.37500  1.0000
  Cd  Cd20      1.0  0.25000  0.86336  0.37500  1.0000
  Cd  Cd21      1.0  0.63664  0.75000  0.12500  1.0000
  Cd  Cd22      1.0  0.36336  0.25000  0.12500  1.0000
  Cd  Cd23      1.0  0.25000  0.63664  0.87500  1.0000
  Cd  Cd24      1.0  0.75000  0.36336  0.87500  1.0000
  O   O1        1.0  0.82490  0.91130  0.72291  1.0000
  O   O2        1.0  0.17510  0.08870  0.72291  1.0000
  O   O3        1.0  0.91130  0.17510  0.27709  1.0000
  O   O4        1.0  0.08870  0.82490  0.27709  1.0000
  O   O5        1.0  0.67510  0.91130  0.02709  1.0000
  O   O6        1.0  0.32490  0.08870  0.02709  1.0000
  O   O7        1.0  0.58870  0.17510  0.47291  1.0000
  O   O8        1.0  0.41130  0.82490  0.47291  1.0000
  O   O9        1.0  0.32490  0.41130  0.22291  1.0000
  O   O10       1.0  0.67510  0.58870  0.22291  1.0000
  O   O11       1.0  0.41130  0.67510  0.77709  1.0000
  O   O12       1.0  0.58870  0.32490  0.77709  1.0000
  O   O13       1.0  0.17510  0.41130  0.52709  1.0000
  O   O14       1.0  0.82490  0.58870  0.52709  1.0000
  O   O15       1.0  0.08870  0.67510  0.97291  1.0000
  O   O16       1.0  0.91130  0.32490  0.97291  1.0000
  O   O17       1.0  0.90400  0.94750  0.70275  1.0000
  O   O18       1.0  0.09600  0.05250  0.70275  1.0000
  O   O19       1.0  0.94750  0.09600  0.29725  1.0000
  O   O20       1.0  0.05250  0.90400  0.29725  1.0000
  O   O21       1.0  0.59600  0.94750  0.04725  1.0000
  O   O22       1.0  0.40400  0.05250  0.04725  1.0000
  O   O23       1.0  0.55250  0.09600  0.45275  1.0000
  O   O24       1.0  0.44750  0.90400  0.45275  1.0000
  O   O25       1.0  0.40400  0.44750  0.20275  1.0000
  O   O26       1.0  0.59600  0.55250  0.20275  1.0000
  O   O27       1.0  0.44750  0.59600  0.79725  1.0000
  O   O28       1.0  0.55250  0.40400  0.79725  1.0000
  O   O29       1.0  0.09600  0.44750  0.54725  1.0000
  O   O30       1.0  0.90400  0.55250  0.54725  1.0000
  O   O31       1.0  0.05250  0.59600  0.95275  1.0000
  O   O32       1.0  0.94750  0.40400  0.95275  1.0000
  O   O33       1.0  0.91680  0.28190  0.89998  1.0000
  O   O34       1.0  0.08320  0.71810  0.89998  1.0000
  O   O35       1.0  0.28190  0.08320  0.10002  1.0000
  O   O36       1.0  0.71810  0.91680  0.10002  1.0000
  O   O37       1.0  0.58320  0.28190  0.85002  1.0000
  O   O38       1.0  0.41680  0.71810  0.85002  1.0000
  O   O39       1.0  0.21810  0.08320  0.64998  1.0000
  O   O40       1.0  0.78190  0.91680  0.64998  1.0000
  O   O41       1.0  0.41680  0.78190  0.39998  1.0000
  O   O42       1.0  0.58320  0.21810  0.39998  1.0000
  O   O43       1.0  0.78190  0.58320  0.60002  1.0000
  O   O44       1.0  0.21810  0.41680  0.60002  1.0000
  O   O45       1.0  0.08320  0.78190  0.35002  1.0000
  O   O46       1.0  0.91680  0.21810  0.35002  1.0000
  O   O47       1.0  0.71810  0.58320  0.14998  1.0000
  O   O48       1.0  0.28190  0.41680  0.14998  1.0000
  O   O49       1.0  0.82080  0.29540  0.89322  1.0000
  O   O50       1.0  0.17920  0.70460  0.89322  1.0000
  O   O51       1.0  0.29540  0.17920  0.10678  1.0000
  O   O52       1.0  0.70460  0.82080  0.10678  1.0000
  O   O53       1.0  0.67920  0.29540  0.85678  1.0000
  O   O54       1.0  0.32080  0.70460  0.85678  1.0000
  O   O55       1.0  0.20460  0.17920  0.64322  1.0000
  O   O56       1.0  0.79540  0.82080  0.64322  1.0000
  O   O57       1.0  0.32080  0.79540  0.39322  1.0000
  O   O58       1.0  0.67920  0.20460  0.39322  1.0000
  O   O59       1.0  0.79540  0.67920  0.60678  1.0000
  O   O60       1.0  0.20460  0.32080  0.60678  1.0000
  O   O61       1.0  0.17920  0.79540  0.35678  1.0000
  O   O62       1.0  0.82080  0.20460  0.35678  1.0000
  O   O63       1.0  0.70460  0.67920  0.14322  1.0000
  O   O64       1.0  0.29540  0.32080  0.14322  1.0000
  O   O65       1.0  0.95750  0.12560  0.77114  1.0000
  O   O66       1.0  0.04250  0.87440  0.77114  1.0000
  O   O67       1.0  0.12560  0.04250  0.22886  1.0000
  O   O68       1.0  0.87440  0.95750  0.22886  1.0000
  O   O69       1.0  0.54250  0.12560  0.97886  1.0000
  O   O70       1.0  0.45750  0.87440  0.97886  1.0000
  O   O71       1.0  0.37440  0.04250  0.52114  1.0000
  O   O72       1.0  0.62560  0.95750  0.52114  1.0000
  O   O73       1.0  0.45750  0.62560  0.27114  1.0000
  O   O74       1.0  0.54250  0.37440  0.27114  1.0000
  O   O75       1.0  0.62560  0.54250  0.72886  1.0000
  O   O76       1.0  0.37440  0.45750  0.72886  1.0000
  O   O77       1.0  0.04250  0.62560  0.47886  1.0000
  O   O78       1.0  0.95750  0.37440  0.47886  1.0000
  O   O79       1.0  0.87440  0.54250  0.02114  1.0000
  O   O80       1.0  0.12560  0.45750  0.02114  1.0000
  O   O81       1.0  0.77080  0.16010  0.80131  1.0000
  O   O82       1.0  0.22920  0.83990  0.80131  1.0000
  O   O83       1.0  0.16010  0.22920  0.19869  1.0000
  O   O84       1.0  0.83990  0.77080  0.19869  1.0000
  O   O85       1.0  0.72920  0.16010  0.94869  1.0000
  O   O86       1.0  0.27080  0.83990  0.94869  1.0000
  O   O87       1.0  0.33990  0.22920  0.55131  1.0000
  O   O88       1.0  0.66010  0.77080  0.55131  1.0000
  O   O89       1.0  0.27080  0.66010  0.30131  1.0000
  O   O90       1.0  0.72920  0.33990  0.30131  1.0000
  O   O91       1.0  0.66010  0.72920  0.69869  1.0000
  O   O92       1.0  0.33990  0.27080  0.69869  1.0000
  O   O93       1.0  0.22920  0.66010  0.44869  1.0000
  O   O94       1.0  0.77080  0.33990  0.44869  1.0000
  O   O95       1.0  0.83990  0.72920  0.05131  1.0000
  O   O96       1.0  0.16010  0.27080  0.05131  1.0000
  O   O97       1.0  0.88350  0.78470  0.70428  1.0000
  O   O98       1.0  0.11650  0.21530  0.70428  1.0000
  O   O99       1.0  0.78470  0.11650  0.29572  1.0000
  O   O100      1.0  0.21530  0.88350  0.29572  1.0000
  O   O101      1.0  0.61650  0.78470  0.04572  1.0000
  O   O102      1.0  0.38350  0.21530  0.04572  1.0000
  O   O103      1.0  0.71530  0.11650  0.45428  1.0000
  O   O104      1.0  0.28470  0.88350  0.45428  1.0000
  O   O105      1.0  0.38350  0.28470  0.20428  1.0000
  O   O106      1.0  0.61650  0.71530  0.20428  1.0000
  O   O107      1.0  0.28470  0.61650  0.79572  1.0000
  O   O108      1.0  0.71530  0.38350  0.79572  1.0000
  O   O109      1.0  0.11650  0.28470  0.54572  1.0000
  O   O110      1.0  0.88350  0.71530  0.54572  1.0000
  O   O111      1.0  0.21530  0.61650  0.95428  1.0000
  O   O112      1.0  0.78470  0.38350  0.95428  1.0000
  O   O113      1.0  0.85580  0.71340  0.67116  1.0000
  O   O114      1.0  0.14420  0.28660  0.67116  1.0000
  O   O115      1.0  0.71340  0.14420  0.32884  1.0000
  O   O116      1.0  0.28660  0.85580  0.32884  1.0000
  O   O117      1.0  0.64420  0.71340  0.07884  1.0000
  O   O118      1.0  0.35580  0.28660  0.07884  1.0000
  O   O119      1.0  0.78660  0.14420  0.42116  1.0000
  O   O120      1.0  0.21340  0.85580  0.42116  1.0000
  O   O121      1.0  0.35580  0.21340  0.17116  1.0000
  O   O122      1.0  0.64420  0.78660  0.17116  1.0000
  O   O123      1.0  0.21340  0.64420  0.82884  1.0000
  O   O124      1.0  0.78660  0.35580  0.82884  1.0000
  O   O125      1.0  0.14420  0.21340  0.57884  1.0000
  O   O126      1.0  0.85580  0.78660  0.57884  1.0000
  O   O127      1.0  0.28660  0.64420  0.92116  1.0000
  O   O128      1.0  0.71340  0.35580  0.92116  1.0000
  O   O129      1.0  0.91640  0.41470  0.88151  1.0000
  O   O130      1.0  0.08360  0.58530  0.88151  1.0000
  O   O131      1.0  0.41470  0.08360  0.11849  1.0000
  O   O132      1.0  0.58530  0.91640  0.11849  1.0000
  O   O133      1.0  0.58360  0.41470  0.86849  1.0000
  O   O134      1.0  0.41640  0.58530  0.86849  1.0000
  O   O135      1.0  0.08530  0.08360  0.63151  1.0000
  O   O136      1.0  0.91470  0.91640  0.63151  1.0000
  O   O137      1.0  0.41640  0.91470  0.38151  1.0000
  O   O138      1.0  0.58360  0.08530  0.38151  1.0000
  O   O139      1.0  0.91470  0.58360  0.61849  1.0000
  O   O140      1.0  0.08530  0.41640  0.61849  1.0000
  O   O141      1.0  0.08360  0.91470  0.36849  1.0000
  O   O142      1.0  0.91640  0.08530  0.36849  1.0000
  O   O143      1.0  0.58530  0.58360  0.13151  1.0000
  O   O144      1.0  0.41470  0.41640  0.13151  1.0000
  O   O145      1.0  0.82140  0.43180  0.88900  1.0000
  O   O146      1.0  0.17860  0.56820  0.88900  1.0000
  O   O147      1.0  0.43180  0.17860  0.11100  1.0000
  O   O148      1.0  0.56820  0.82140  0.11100  1.0000
  O   O149      1.0  0.67860  0.43180  0.86100  1.0000
  O   O150      1.0  0.32140  0.56820  0.86100  1.0000
  O   O151      1.0  0.06820  0.17860  0.63900  1.0000
  O   O152      1.0  0.93180  0.82140  0.63900  1.0000
  O   O153      1.0  0.32140  0.93180  0.38900  1.0000
  O   O154      1.0  0.67860  0.06820  0.38900  1.0000
  O   O155      1.0  0.93180  0.67860  0.61100  1.0000
  O   O156      1.0  0.06820  0.32140  0.61100  1.0000
  O   O157      1.0  0.17860  0.93180  0.36100  1.0000
  O   O158      1.0  0.82140  0.06820  0.36100  1.0000
  O   O159      1.0  0.56820  0.67860  0.13900  1.0000
  O   O160      1.0  0.43180  0.32140  0.13900  1.0000
  O   O161      1.0  0.80270  0.53680  0.73557  1.0000
  O   O162      1.0  0.19730  0.46320  0.73557  1.0000
  O   O163      1.0  0.53680  0.19730  0.26443  1.0000
  O   O164      1.0  0.46320  0.80270  0.26443  1.0000
  O   O165      1.0  0.69730  0.53680  0.01443  1.0000
  O   O166      1.0  0.30270  0.46320  0.01443  1.0000
  O   O167      1.0  0.96320  0.19730  0.48557  1.0000
  O   O168      1.0  0.03680  0.80270  0.48557  1.0000
  O   O169      1.0  0.30270  0.03680  0.23557  1.0000
  O   O170      1.0  0.69730  0.96320  0.23557  1.0000
  O   O171      1.0  0.03680  0.69730  0.76443  1.0000
  O   O172      1.0  0.96320  0.30270  0.76443  1.0000
  O   O173      1.0  0.19730  0.03680  0.51443  1.0000
  O   O174      1.0  0.80270  0.96320  0.51443  1.0000
  O   O175      1.0  0.46320  0.69730  0.98557  1.0000
  O   O176      1.0  0.53680  0.30270  0.98557  1.0000
  O   O177      1.0  0.76220  0.56920  0.80088  1.0000
  O   O178      1.0  0.23780  0.43080  0.80088  1.0000
  O   O179      1.0  0.56920  0.23780  0.19912  1.0000
  O   O180      1.0  0.43080  0.76220  0.19912  1.0000
  O   O181      1.0  0.73780  0.56920  0.94912  1.0000
  O   O182      1.0  0.26220  0.43080  0.94912  1.0000
  O   O183      1.0  0.93080  0.23780  0.55088  1.0000
  O   O184      1.0  0.06920  0.76220  0.55088  1.0000
  O   O185      1.0  0.26220  0.06920  0.30088  1.0000
  O   O186      1.0  0.73780  0.93080  0.30088  1.0000
  O   O187      1.0  0.06920  0.73780  0.69912  1.0000
  O   O188      1.0  0.93080  0.26220  0.69912  1.0000
  O   O189      1.0  0.23780  0.06920  0.44912  1.0000
  O   O190      1.0  0.76220  0.93080  0.44912  1.0000
  O   O191      1.0  0.43080  0.73780  0.05088  1.0000
  O   O192      1.0  0.56920  0.26220  0.05088  1.0000
  C   C1        1.0  0.86670  0.94800  0.72240  1.0000
  C   C2        1.0  0.13330  0.05200  0.72240  1.0000
  C   C3        1.0  0.94800  0.13330  0.27760  1.0000
  C   C4        1.0  0.05200  0.86670  0.27760  1.0000
  C   C5        1.0  0.63330  0.94800  0.02760  1.0000
  C   C6        1.0  0.36670  0.05200  0.02760  1.0000
  C   C7        1.0  0.55200  0.13330  0.47240  1.0000
  C   C8        1.0  0.44800  0.86670  0.47240  1.0000
  C   C9        1.0  0.36670  0.44800  0.22240  1.0000
  C   C10       1.0  0.63330  0.55200  0.22240  1.0000
  C   C11       1.0  0.44800  0.63330  0.77760  1.0000
  C   C12       1.0  0.55200  0.36670  0.77760  1.0000
  C   C13       1.0  0.13330  0.44800  0.52760  1.0000
  C   C14       1.0  0.86670  0.55200  0.52760  1.0000
  C   C15       1.0  0.05200  0.63330  0.97240  1.0000
  C   C16       1.0  0.94800  0.36670  0.97240  1.0000
  C   C17       1.0  0.86510  0.99310  0.74750  1.0000
  C   C18       1.0  0.13490  0.00690  0.74750  1.0000
  C   C19       1.0  0.99310  0.13490  0.25250  1.0000
  C   C20       1.0  0.00690  0.86510  0.25250  1.0000
  C   C21       1.0  0.63490  0.99310  0.00250  1.0000
  C   C22       1.0  0.36510  0.00690  0.00250  1.0000
  C   C23       1.0  0.50690  0.13490  0.49750  1.0000
  C   C24       1.0  0.49310  0.86510  0.49750  1.0000
  C   C25       1.0  0.36510  0.49310  0.24750  1.0000
  C   C26       1.0  0.63490  0.50690  0.24750  1.0000
  C   C27       1.0  0.49310  0.63490  0.75250  1.0000
  C   C28       1.0  0.50690  0.36510  0.75250  1.0000
  C   C29       1.0  0.13490  0.49310  0.50250  1.0000
  C   C30       1.0  0.86510  0.50690  0.50250  1.0000
  C   C31       1.0  0.00690  0.63490  0.99750  1.0000
  C   C32       1.0  0.99310  0.36510  0.99750  1.0000
  C   C33       1.0  0.91100  0.03420  0.74760  1.0000
  C   C34       1.0  0.08900  0.96580  0.74760  1.0000
  C   C35       1.0  0.03420  0.08900  0.25240  1.0000
  C   C36       1.0  0.96580  0.91100  0.25240  1.0000
  C   C37       1.0  0.58900  0.03420  0.00240  1.0000
  C   C38       1.0  0.41100  0.96580  0.00240  1.0000
  C   C39       1.0  0.46580  0.08900  0.49760  1.0000
  C   C40       1.0  0.53420  0.91100  0.49760  1.0000
  C   C41       1.0  0.41100  0.53420  0.24760  1.0000
  C   C42       1.0  0.58900  0.46580  0.24760  1.0000
  C   C43       1.0  0.53420  0.58900  0.75240  1.0000
  C   C44       1.0  0.46580  0.41100  0.75240  1.0000
  C   C45       1.0  0.08900  0.53420  0.50240  1.0000
  C   C46       1.0  0.91100  0.46580  0.50240  1.0000
  C   C47       1.0  0.96580  0.58900  0.99760  1.0000
  C   C48       1.0  0.03420  0.41100  0.99760  1.0000
  H   H1        1.0  0.94220  0.03120  0.73270  1.0000
  H   H2        1.0  0.05780  0.96880  0.73270  1.0000
  H   H3        1.0  0.03120  0.05780  0.26730  1.0000
  H   H4        1.0  0.96880  0.94220  0.26730  1.0000
  H   H5        1.0  0.55780  0.03120  0.01730  1.0000
  H   H6        1.0  0.44220  0.96880  0.01730  1.0000
  H   H7        1.0  0.46880  0.05780  0.48270  1.0000
  H   H8        1.0  0.53120  0.94220  0.48270  1.0000
  H   H9        1.0  0.44220  0.53120  0.23270  1.0000
  H   H10       1.0  0.55780  0.46880  0.23270  1.0000
  H   H11       1.0  0.53120  0.55780  0.76730  1.0000
  H   H12       1.0  0.46880  0.44220  0.76730  1.0000
  H   H13       1.0  0.05780  0.53120  0.51730  1.0000
  H   H14       1.0  0.94220  0.46880  0.51730  1.0000
  H   H15       1.0  0.96880  0.55780  0.98270  1.0000
  H   H16       1.0  0.03120  0.44220  0.98270  1.0000
  C   C49       1.0  0.91210  0.08110  0.76970  1.0000
  C   C50       1.0  0.08790  0.91890  0.76970  1.0000
  C   C51       1.0  0.08110  0.08790  0.23030  1.0000
  C   C52       1.0  0.91890  0.91210  0.23030  1.0000
  C   C53       1.0  0.58790  0.08110  0.98030  1.0000
  C   C54       1.0  0.41210  0.91890  0.98030  1.0000
  C   C55       1.0  0.41890  0.08790  0.51970  1.0000
  C   C56       1.0  0.58110  0.91210  0.51970  1.0000
  C   C57       1.0  0.41210  0.58110  0.26970  1.0000
  C   C58       1.0  0.58790  0.41890  0.26970  1.0000
  C   C59       1.0  0.58110  0.58790  0.73030  1.0000
  C   C60       1.0  0.41890  0.41210  0.73030  1.0000
  C   C61       1.0  0.08790  0.58110  0.48030  1.0000
  C   C62       1.0  0.91210  0.41890  0.48030  1.0000
  C   C63       1.0  0.91890  0.58790  0.01970  1.0000
  C   C64       1.0  0.08110  0.41210  0.01970  1.0000
  C   C65       1.0  0.86900  0.08480  0.79227  1.0000
  C   C66       1.0  0.13100  0.91520  0.79227  1.0000
  C   C67       1.0  0.08480  0.13100  0.20773  1.0000
  C   C68       1.0  0.91520  0.86900  0.20773  1.0000
  C   C69       1.0  0.63100  0.08480  0.95773  1.0000
  C   C70       1.0  0.36900  0.91520  0.95773  1.0000
  C   C71       1.0  0.41520  0.13100  0.54227  1.0000
  C   C72       1.0  0.58480  0.86900  0.54227  1.0000
  C   C73       1.0  0.36900  0.58480  0.29227  1.0000
  C   C74       1.0  0.63100  0.41520  0.29227  1.0000
  C   C75       1.0  0.58480  0.63100  0.70773  1.0000
  C   C76       1.0  0.41520  0.36900  0.70773  1.0000
  C   C77       1.0  0.13100  0.58480  0.45773  1.0000
  C   C78       1.0  0.86900  0.41520  0.45773  1.0000
  C   C79       1.0  0.91520  0.63100  0.04227  1.0000
  C   C80       1.0  0.08480  0.36900  0.04227  1.0000
  C   C81       1.0  0.82480  0.04280  0.79180  1.0000
  C   C82       1.0  0.17520  0.95720  0.79180  1.0000
  C   C83       1.0  0.04280  0.17520  0.20820  1.0000
  C   C84       1.0  0.95720  0.82480  0.20820  1.0000
  C   C85       1.0  0.67520  0.04280  0.95820  1.0000
  C   C86       1.0  0.32480  0.95720  0.95820  1.0000
  C   C87       1.0  0.45720  0.17520  0.54180  1.0000
  C   C88       1.0  0.54280  0.82480  0.54180  1.0000
  C   C89       1.0  0.32480  0.54280  0.29180  1.0000
  C   C90       1.0  0.67520  0.45720  0.29180  1.0000
  C   C91       1.0  0.54280  0.67520  0.70820  1.0000
  C   C92       1.0  0.45720  0.32480  0.70820  1.0000
  C   C93       1.0  0.17520  0.54280  0.45820  1.0000
  C   C94       1.0  0.82480  0.45720  0.45820  1.0000
  C   C95       1.0  0.95720  0.67520  0.04180  1.0000
  C   C96       1.0  0.04280  0.32480  0.04180  1.0000
  H   H17       1.0  0.79430  0.04420  0.80710  1.0000
  H   H18       1.0  0.20570  0.95580  0.80710  1.0000
  H   H19       1.0  0.04420  0.20570  0.19290  1.0000
  H   H20       1.0  0.95580  0.79430  0.19290  1.0000
  H   H21       1.0  0.70570  0.04420  0.94290  1.0000
  H   H22       1.0  0.29430  0.95580  0.94290  1.0000
  H   H23       1.0  0.45580  0.20570  0.55710  1.0000
  H   H24       1.0  0.54420  0.79430  0.55710  1.0000
  H   H25       1.0  0.29430  0.54420  0.30710  1.0000
  H   H26       1.0  0.70570  0.45580  0.30710  1.0000
  H   H27       1.0  0.54420  0.70570  0.69290  1.0000
  H   H28       1.0  0.45580  0.29430  0.69290  1.0000
  H   H29       1.0  0.20570  0.54420  0.44290  1.0000
  H   H30       1.0  0.79430  0.45580  0.44290  1.0000
  H   H31       1.0  0.95580  0.70570  0.05710  1.0000
  H   H32       1.0  0.04420  0.29430  0.05710  1.0000
  C   C97       1.0  0.82290  0.99730  0.76920  1.0000
  C   C98       1.0  0.17710  0.00270  0.76920  1.0000
  C   C99       1.0  0.99730  0.17710  0.23080  1.0000
  C   C100      1.0  0.00270  0.82290  0.23080  1.0000
  C   C101      1.0  0.67710  0.99730  0.98080  1.0000
  C   C102      1.0  0.32290  0.00270  0.98080  1.0000
  C   C103      1.0  0.50270  0.17710  0.51920  1.0000
  C   C104      1.0  0.49730  0.82290  0.51920  1.0000
  C   C105      1.0  0.32290  0.49730  0.26920  1.0000
  C   C106      1.0  0.67710  0.50270  0.26920  1.0000
  C   C107      1.0  0.49730  0.67710  0.73080  1.0000
  C   C108      1.0  0.50270  0.32290  0.73080  1.0000
  C   C109      1.0  0.17710  0.49730  0.48080  1.0000
  C   C110      1.0  0.82290  0.50270  0.48080  1.0000
  C   C111      1.0  0.00270  0.67710  0.01920  1.0000
  C   C112      1.0  0.99730  0.32290  0.01920  1.0000
  H   H33       1.0  0.79100  0.96920  0.76950  1.0000
  H   H34       1.0  0.20900  0.03080  0.76950  1.0000
  H   H35       1.0  0.96920  0.20900  0.23050  1.0000
  H   H36       1.0  0.03080  0.79100  0.23050  1.0000
  H   H37       1.0  0.70900  0.96920  0.98050  1.0000
  H   H38       1.0  0.29100  0.03080  0.98050  1.0000
  H   H39       1.0  0.53080  0.20900  0.51950  1.0000
  H   H40       1.0  0.46920  0.79100  0.51950  1.0000
  H   H41       1.0  0.29100  0.46920  0.26950  1.0000
  H   H42       1.0  0.70900  0.53080  0.26950  1.0000
  H   H43       1.0  0.46920  0.70900  0.73050  1.0000
  H   H44       1.0  0.53080  0.29100  0.73050  1.0000
  H   H45       1.0  0.20900  0.46920  0.48050  1.0000
  H   H46       1.0  0.79100  0.53080  0.48050  1.0000
  H   H47       1.0  0.03080  0.70900  0.01950  1.0000
  H   H48       1.0  0.96920  0.29100  0.01950  1.0000
  C   C113      1.0  0.86970  0.13260  0.81664  1.0000
  C   C114      1.0  0.13030  0.86740  0.81664  1.0000
  C   C115      1.0  0.13260  0.13030  0.18336  1.0000
  C   C116      1.0  0.86740  0.86970  0.18336  1.0000
  C   C117      1.0  0.63030  0.13260  0.93336  1.0000
  C   C118      1.0  0.36970  0.86740  0.93336  1.0000
  C   C119      1.0  0.36740  0.13030  0.56664  1.0000
  C   C120      1.0  0.63260  0.86970  0.56664  1.0000
  C   C121      1.0  0.36970  0.63260  0.31664  1.0000
  C   C122      1.0  0.63030  0.36740  0.31664  1.0000
  C   C123      1.0  0.63260  0.63030  0.68336  1.0000
  C   C124      1.0  0.36740  0.36970  0.68336  1.0000
  C   C125      1.0  0.13030  0.63260  0.43336  1.0000
  C   C126      1.0  0.86970  0.36740  0.43336  1.0000
  C   C127      1.0  0.86740  0.63030  0.06664  1.0000
  C   C128      1.0  0.13260  0.36970  0.06664  1.0000
  C   C129      1.0  0.81860  0.16950  0.82130  1.0000
  C   C130      1.0  0.18140  0.83050  0.82130  1.0000
  C   C131      1.0  0.16950  0.18140  0.17870  1.0000
  C   C132      1.0  0.83050  0.81860  0.17870  1.0000
  C   C133      1.0  0.68140  0.16950  0.92870  1.0000
  C   C134      1.0  0.31860  0.83050  0.92870  1.0000
  C   C135      1.0  0.33050  0.18140  0.57130  1.0000
  C   C136      1.0  0.66950  0.81860  0.57130  1.0000
  C   C137      1.0  0.31860  0.66950  0.32130  1.0000
  C   C138      1.0  0.68140  0.33050  0.32130  1.0000
  C   C139      1.0  0.66950  0.68140  0.67870  1.0000
  C   C140      1.0  0.33050  0.31860  0.67870  1.0000
  C   C141      1.0  0.18140  0.66950  0.42870  1.0000
  C   C142      1.0  0.81860  0.33050  0.42870  1.0000
  C   C143      1.0  0.83050  0.68140  0.07130  1.0000
  C   C144      1.0  0.16950  0.31860  0.07130  1.0000
  C   C145      1.0  0.81850  0.21220  0.84436  1.0000
  C   C146      1.0  0.18150  0.78780  0.84436  1.0000
  C   C147      1.0  0.21220  0.18150  0.15564  1.0000
  C   C148      1.0  0.78780  0.81850  0.15564  1.0000
  C   C149      1.0  0.68150  0.21220  0.90564  1.0000
  C   C150      1.0  0.31850  0.78780  0.90564  1.0000
  C   C151      1.0  0.28780  0.18150  0.59436  1.0000
  C   C152      1.0  0.71220  0.81850  0.59436  1.0000
  C   C153      1.0  0.31850  0.71220  0.34436  1.0000
  C   C154      1.0  0.68150  0.28780  0.34436  1.0000
  C   C155      1.0  0.71220  0.68150  0.65564  1.0000
  C   C156      1.0  0.28780  0.31850  0.65564  1.0000
  C   C157      1.0  0.18150  0.71220  0.40564  1.0000
  C   C158      1.0  0.81850  0.28780  0.40564  1.0000
  C   C159      1.0  0.78780  0.68150  0.09436  1.0000
  C   C160      1.0  0.21220  0.31850  0.09436  1.0000
  H   H49       1.0  0.78360  0.23560  0.84790  1.0000
  H   H50       1.0  0.21640  0.76440  0.84790  1.0000
  H   H51       1.0  0.23560  0.21640  0.15210  1.0000
  H   H52       1.0  0.76440  0.78360  0.15210  1.0000
  H   H53       1.0  0.71640  0.23560  0.90210  1.0000
  H   H54       1.0  0.28360  0.76440  0.90210  1.0000
  H   H55       1.0  0.26440  0.21640  0.59790  1.0000
  H   H56       1.0  0.73560  0.78360  0.59790  1.0000
  H   H57       1.0  0.28360  0.73560  0.34790  1.0000
  H   H58       1.0  0.71640  0.26440  0.34790  1.0000
  H   H59       1.0  0.73560  0.71640  0.65210  1.0000
  H   H60       1.0  0.26440  0.28360  0.65210  1.0000
  H   H61       1.0  0.21640  0.73560  0.40210  1.0000
  H   H62       1.0  0.78360  0.26440  0.40210  1.0000
  H   H63       1.0  0.76440  0.71640  0.09790  1.0000
  H   H64       1.0  0.23560  0.28360  0.09790  1.0000
  C   C161      1.0  0.87000  0.22130  0.86263  1.0000
  C   C162      1.0  0.13000  0.77870  0.86263  1.0000
  C   C163      1.0  0.22130  0.13000  0.13737  1.0000
  C   C164      1.0  0.77870  0.87000  0.13737  1.0000
  C   C165      1.0  0.63000  0.22130  0.88737  1.0000
  C   C166      1.0  0.37000  0.77870  0.88737  1.0000
  C   C167      1.0  0.27870  0.13000  0.61263  1.0000
  C   C168      1.0  0.72130  0.87000  0.61263  1.0000
  C   C169      1.0  0.37000  0.72130  0.36263  1.0000
  C   C170      1.0  0.63000  0.27870  0.36263  1.0000
  C   C171      1.0  0.72130  0.63000  0.63737  1.0000
  C   C172      1.0  0.27870  0.37000  0.63737  1.0000
  C   C173      1.0  0.13000  0.72130  0.38737  1.0000
  C   C174      1.0  0.87000  0.27870  0.38737  1.0000
  C   C175      1.0  0.77870  0.63000  0.11263  1.0000
  C   C176      1.0  0.22130  0.37000  0.11263  1.0000
  C   C177      1.0  0.91820  0.18480  0.85830  1.0000
  C   C178      1.0  0.08180  0.81520  0.85830  1.0000
  C   C179      1.0  0.18480  0.08180  0.14170  1.0000
  C   C180      1.0  0.81520  0.91820  0.14170  1.0000
  C   C181      1.0  0.58180  0.18480  0.89170  1.0000
  C   C182      1.0  0.41820  0.81520  0.89170  1.0000
  C   C183      1.0  0.31520  0.08180  0.60830  1.0000
  C   C184      1.0  0.68480  0.91820  0.60830  1.0000
  C   C185      1.0  0.41820  0.68480  0.35830  1.0000
  C   C186      1.0  0.58180  0.31520  0.35830  1.0000
  C   C187      1.0  0.68480  0.58180  0.64170  1.0000
  C   C188      1.0  0.31520  0.41820  0.64170  1.0000
  C   C189      1.0  0.08180  0.68480  0.39170  1.0000
  C   C190      1.0  0.91820  0.31520  0.39170  1.0000
  C   C191      1.0  0.81520  0.58180  0.10830  1.0000
  C   C192      1.0  0.18480  0.41820  0.10830  1.0000
  H   H65       1.0  0.95290  0.18990  0.87080  1.0000
  H   H66       1.0  0.04710  0.81010  0.87080  1.0000
  H   H67       1.0  0.18990  0.04710  0.12920  1.0000
  H   H68       1.0  0.81010  0.95290  0.12920  1.0000
  H   H69       1.0  0.54710  0.18990  0.87920  1.0000
  H   H70       1.0  0.45290  0.81010  0.87920  1.0000
  H   H71       1.0  0.31010  0.04710  0.62080  1.0000
  H   H72       1.0  0.68990  0.95290  0.62080  1.0000
  H   H73       1.0  0.45290  0.68990  0.37080  1.0000
  H   H74       1.0  0.54710  0.31010  0.37080  1.0000
  H   H75       1.0  0.68990  0.54710  0.62920  1.0000
  H   H76       1.0  0.31010  0.45290  0.62920  1.0000
  H   H77       1.0  0.04710  0.68990  0.37920  1.0000
  H   H78       1.0  0.95290  0.31010  0.37920  1.0000
  H   H79       1.0  0.81010  0.54710  0.12080  1.0000
  H   H80       1.0  0.18990  0.45290  0.12080  1.0000
  C   C193      1.0  0.91720  0.14040  0.83610  1.0000
  C   C194      1.0  0.08280  0.85960  0.83610  1.0000
  C   C195      1.0  0.14040  0.08280  0.16390  1.0000
  C   C196      1.0  0.85960  0.91720  0.16390  1.0000
  C   C197      1.0  0.58280  0.14040  0.91390  1.0000
  C   C198      1.0  0.41720  0.85960  0.91390  1.0000
  C   C199      1.0  0.35960  0.08280  0.58610  1.0000
  C   C200      1.0  0.64040  0.91720  0.58610  1.0000
  C   C201      1.0  0.41720  0.64040  0.33610  1.0000
  C   C202      1.0  0.58280  0.35960  0.33610  1.0000
  C   C203      1.0  0.64040  0.58280  0.66390  1.0000
  C   C204      1.0  0.35960  0.41720  0.66390  1.0000
  C   C205      1.0  0.08280  0.64040  0.41390  1.0000
  C   C206      1.0  0.91720  0.35960  0.41390  1.0000
  C   C207      1.0  0.85960  0.58280  0.08610  1.0000
  C   C208      1.0  0.14040  0.41720  0.08610  1.0000
  H   H81       1.0  0.95070  0.11450  0.83420  1.0000
  H   H82       1.0  0.04930  0.88550  0.83420  1.0000
  H   H83       1.0  0.11450  0.04930  0.16580  1.0000
  H   H84       1.0  0.88550  0.95070  0.16580  1.0000
  H   H85       1.0  0.54930  0.11450  0.91580  1.0000
  H   H86       1.0  0.45070  0.88550  0.91580  1.0000
  H   H87       1.0  0.38550  0.04930  0.58420  1.0000
  H   H88       1.0  0.61450  0.95070  0.58420  1.0000
  H   H89       1.0  0.45070  0.61450  0.33420  1.0000
  H   H90       1.0  0.54930  0.38550  0.33420  1.0000
  H   H91       1.0  0.61450  0.54930  0.66580  1.0000
  H   H92       1.0  0.38550  0.45070  0.66580  1.0000
  H   H93       1.0  0.04930  0.61450  0.41580  1.0000
  H   H94       1.0  0.95070  0.38550  0.41580  1.0000
  H   H95       1.0  0.88550  0.54930  0.08420  1.0000
  H   H96       1.0  0.11450  0.45070  0.08420  1.0000
  C   C209      1.0  0.86930  0.26940  0.88639  1.0000
  C   C210      1.0  0.13070  0.73060  0.88639  1.0000
  C   C211      1.0  0.26940  0.13070  0.11361  1.0000
  C   C212      1.0  0.73060  0.86930  0.11361  1.0000
  C   C213      1.0  0.63070  0.26940  0.86361  1.0000
  C   C214      1.0  0.36930  0.73060  0.86361  1.0000
  C   C215      1.0  0.23060  0.13070  0.63639  1.0000
  C   C216      1.0  0.76940  0.86930  0.63639  1.0000
  C   C217      1.0  0.36930  0.76940  0.38639  1.0000
  C   C218      1.0  0.63070  0.23060  0.38639  1.0000
  C   C219      1.0  0.76940  0.63070  0.61361  1.0000
  C   C220      1.0  0.23060  0.36930  0.61361  1.0000
  C   C221      1.0  0.13070  0.76940  0.36361  1.0000
  C   C222      1.0  0.86930  0.23060  0.36361  1.0000
  C   C223      1.0  0.73060  0.63070  0.13639  1.0000
  C   C224      1.0  0.26940  0.36930  0.13639  1.0000
  C   C225      1.0  0.00840  0.12310  0.75040  1.0000
  C   C226      1.0  0.99160  0.87690  0.75040  1.0000
  C   C227      1.0  0.12310  0.99160  0.24960  1.0000
  C   C228      1.0  0.87690  0.00840  0.24960  1.0000
  C   C229      1.0  0.49160  0.12310  0.99960  1.0000
  C   C230      1.0  0.50840  0.87690  0.99960  1.0000
  C   C231      1.0  0.37690  0.99160  0.50040  1.0000
  C   C232      1.0  0.62310  0.00840  0.50040  1.0000
  C   C233      1.0  0.50840  0.62310  0.25040  1.0000
  C   C234      1.0  0.49160  0.37690  0.25040  1.0000
  C   C235      1.0  0.62310  0.49160  0.74960  1.0000
  C   C236      1.0  0.37690  0.50840  0.74960  1.0000
  C   C237      1.0  0.99160  0.62310  0.49960  1.0000
  C   C238      1.0  0.00840  0.37690  0.49960  1.0000
  C   C239      1.0  0.87690  0.49160  0.00040  1.0000
  C   C240      1.0  0.12310  0.50840  0.00040  1.0000
  H   H97       1.0  0.03470  0.15740  0.75430  1.0000
  H   H98       1.0  0.96530  0.84260  0.75430  1.0000
  H   H99       1.0  0.15740  0.96530  0.24570  1.0000
  H   H100      1.0  0.84260  0.03470  0.24570  1.0000
  H   H101      1.0  0.46530  0.15740  0.99570  1.0000
  H   H102      1.0  0.53470  0.84260  0.99570  1.0000
  H   H103      1.0  0.34260  0.96530  0.50430  1.0000
  H   H104      1.0  0.65740  0.03470  0.50430  1.0000
  H   H105      1.0  0.53470  0.65740  0.25430  1.0000
  H   H106      1.0  0.46530  0.34260  0.25430  1.0000
  H   H107      1.0  0.65740  0.46530  0.74570  1.0000
  H   H108      1.0  0.34260  0.53470  0.74570  1.0000
  H   H109      1.0  0.96530  0.65740  0.49570  1.0000
  H   H110      1.0  0.03470  0.34260  0.49570  1.0000
  H   H111      1.0  0.84260  0.46530  0.00430  1.0000
  H   H112      1.0  0.15740  0.53470  0.00430  1.0000
  H   H113      1.0  0.99430  0.12440  0.72890  1.0000
  H   H114      1.0  0.00570  0.87560  0.72890  1.0000
  H   H115      1.0  0.12440  0.00570  0.27110  1.0000
  H   H116      1.0  0.87560  0.99430  0.27110  1.0000
  H   H117      1.0  0.50570  0.12440  0.02110  1.0000
  H   H118      1.0  0.49430  0.87560  0.02110  1.0000
  H   H119      1.0  0.37560  0.00570  0.47890  1.0000
  H   H120      1.0  0.62440  0.99430  0.47890  1.0000
  H   H121      1.0  0.49430  0.62440  0.22890  1.0000
  H   H122      1.0  0.50570  0.37560  0.22890  1.0000
  H   H123      1.0  0.62440  0.50570  0.77110  1.0000
  H   H124      1.0  0.37560  0.49430  0.77110  1.0000
  H   H125      1.0  0.00570  0.62440  0.52110  1.0000
  H   H126      1.0  0.99430  0.37560  0.52110  1.0000
  H   H127      1.0  0.87560  0.50570  0.97890  1.0000
  H   H128      1.0  0.12440  0.49430  0.97890  1.0000
  H   H129      1.0  0.03060  0.08580  0.75390  1.0000
  H   H130      1.0  0.96940  0.91420  0.75390  1.0000
  H   H131      1.0  0.08580  0.96940  0.24610  1.0000
  H   H132      1.0  0.91420  0.03060  0.24610  1.0000
  H   H133      1.0  0.46940  0.08580  0.99610  1.0000
  H   H134      1.0  0.53060  0.91420  0.99610  1.0000
  H   H135      1.0  0.41420  0.96940  0.50390  1.0000
  H   H136      1.0  0.58580  0.03060  0.50390  1.0000
  H   H137      1.0  0.53060  0.58580  0.25390  1.0000
  H   H138      1.0  0.46940  0.41420  0.25390  1.0000
  H   H139      1.0  0.58580  0.46940  0.74610  1.0000
  H   H140      1.0  0.41420  0.53060  0.74610  1.0000
  H   H141      1.0  0.96940  0.58580  0.49610  1.0000
  H   H142      1.0  0.03060  0.41420  0.49610  1.0000
  H   H143      1.0  0.91420  0.46940  0.00390  1.0000
  H   H144      1.0  0.08580  0.53060  0.00390  1.0000
  C   C241      1.0  0.71970  0.19610  0.80460  1.0000
  C   C242      1.0  0.28030  0.80390  0.80460  1.0000
  C   C243      1.0  0.19610  0.28030  0.19540  1.0000
  C   C244      1.0  0.80390  0.71970  0.19540  1.0000
  C   C245      1.0  0.78030  0.19610  0.94540  1.0000
  C   C246      1.0  0.21970  0.80390  0.94540  1.0000
  C   C247      1.0  0.30390  0.28030  0.55460  1.0000
  C   C248      1.0  0.69610  0.71970  0.55460  1.0000
  C   C249      1.0  0.21970  0.69610  0.30460  1.0000
  C   C250      1.0  0.78030  0.30390  0.30460  1.0000
  C   C251      1.0  0.69610  0.78030  0.69540  1.0000
  C   C252      1.0  0.30390  0.21970  0.69540  1.0000
  C   C253      1.0  0.28030  0.69610  0.44540  1.0000
  C   C254      1.0  0.71970  0.30390  0.44540  1.0000
  C   C255      1.0  0.80390  0.78030  0.05460  1.0000
  C   C256      1.0  0.19610  0.21970  0.05460  1.0000
  H   H145      1.0  0.69040  0.18540  0.78860  1.0000
  H   H146      1.0  0.30960  0.81460  0.78860  1.0000
  H   H147      1.0  0.18540  0.30960  0.21140  1.0000
  H   H148      1.0  0.81460  0.69040  0.21140  1.0000
  H   H149      1.0  0.80960  0.18540  0.96140  1.0000
  H   H150      1.0  0.19040  0.81460  0.96140  1.0000
  H   H151      1.0  0.31460  0.30960  0.53860  1.0000
  H   H152      1.0  0.68540  0.69040  0.53860  1.0000
  H   H153      1.0  0.19040  0.68540  0.28860  1.0000
  H   H154      1.0  0.80960  0.31460  0.28860  1.0000
  H   H155      1.0  0.68540  0.80960  0.71140  1.0000
  H   H156      1.0  0.31460  0.19040  0.71140  1.0000
  H   H157      1.0  0.30960  0.68540  0.46140  1.0000
  H   H158      1.0  0.69040  0.31460  0.46140  1.0000
  H   H159      1.0  0.81460  0.80960  0.03860  1.0000
  H   H160      1.0  0.18540  0.19040  0.03860  1.0000
  H   H161      1.0  0.73090  0.23830  0.80240  1.0000
  H   H162      1.0  0.26910  0.76170  0.80240  1.0000
  H   H163      1.0  0.23830  0.26910  0.19760  1.0000
  H   H164      1.0  0.76170  0.73090  0.19760  1.0000
  H   H165      1.0  0.76910  0.23830  0.94760  1.0000
  H   H166      1.0  0.23090  0.76170  0.94760  1.0000
  H   H167      1.0  0.26170  0.26910  0.55240  1.0000
  H   H168      1.0  0.73830  0.73090  0.55240  1.0000
  H   H169      1.0  0.23090  0.73830  0.30240  1.0000
  H   H170      1.0  0.76910  0.26170  0.30240  1.0000
  H   H171      1.0  0.73830  0.76910  0.69760  1.0000
  H   H172      1.0  0.26170  0.23090  0.69760  1.0000
  H   H173      1.0  0.26910  0.73830  0.44760  1.0000
  H   H174      1.0  0.73090  0.26170  0.44760  1.0000
  H   H175      1.0  0.76170  0.76910  0.05240  1.0000
  H   H176      1.0  0.23830  0.23090  0.05240  1.0000
  H   H177      1.0  0.70210  0.18960  0.82510  1.0000
  H   H178      1.0  0.29790  0.81040  0.82510  1.0000
  H   H179      1.0  0.18960  0.29790  0.17490  1.0000
  H   H180      1.0  0.81040  0.70210  0.17490  1.0000
  H   H181      1.0  0.79790  0.18960  0.92490  1.0000
  H   H182      1.0  0.20210  0.81040  0.92490  1.0000
  H   H183      1.0  0.31040  0.29790  0.57510  1.0000
  H   H184      1.0  0.68960  0.70210  0.57510  1.0000
  H   H185      1.0  0.20210  0.68960  0.32510  1.0000
  H   H186      1.0  0.79790  0.31040  0.32510  1.0000
  H   H187      1.0  0.68960  0.79790  0.67490  1.0000
  H   H188      1.0  0.31040  0.20210  0.67490  1.0000
  H   H189      1.0  0.29790  0.68960  0.42490  1.0000
  H   H190      1.0  0.70210  0.31040  0.42490  1.0000
  H   H191      1.0  0.81040  0.79790  0.07510  1.0000
  H   H192      1.0  0.18960  0.20210  0.07510  1.0000
  C   C257      1.0  0.87000  0.73160  0.69700  1.0000
  C   C258      1.0  0.13000  0.26840  0.69700  1.0000
  C   C259      1.0  0.73160  0.13000  0.30300  1.0000
  C   C260      1.0  0.26840  0.87000  0.30300  1.0000
  C   C261      1.0  0.63000  0.73160  0.05300  1.0000
  C   C262      1.0  0.37000  0.26840  0.05300  1.0000
  C   C263      1.0  0.76840  0.13000  0.44700  1.0000
  C   C264      1.0  0.23160  0.87000  0.44700  1.0000
  C   C265      1.0  0.37000  0.23160  0.19700  1.0000
  C   C266      1.0  0.63000  0.76840  0.19700  1.0000
  C   C267      1.0  0.23160  0.63000  0.80300  1.0000
  C   C268      1.0  0.76840  0.37000  0.80300  1.0000
  C   C269      1.0  0.13000  0.23160  0.55300  1.0000
  C   C270      1.0  0.87000  0.76840  0.55300  1.0000
  C   C271      1.0  0.26840  0.63000  0.94700  1.0000
  C   C272      1.0  0.73160  0.37000  0.94700  1.0000
  C   C273      1.0  0.86970  0.68510  0.72214  1.0000
  C   C274      1.0  0.13030  0.31490  0.72214  1.0000
  C   C275      1.0  0.68510  0.13030  0.27786  1.0000
  C   C276      1.0  0.31490  0.86970  0.27786  1.0000
  C   C277      1.0  0.63030  0.68510  0.02786  1.0000
  C   C278      1.0  0.36970  0.31490  0.02786  1.0000
  C   C279      1.0  0.81490  0.13030  0.47214  1.0000
  C   C280      1.0  0.18510  0.86970  0.47214  1.0000
  C   C281      1.0  0.36970  0.18510  0.22214  1.0000
  C   C282      1.0  0.63030  0.81490  0.22214  1.0000
  C   C283      1.0  0.18510  0.63030  0.77786  1.0000
  C   C284      1.0  0.81490  0.36970  0.77786  1.0000
  C   C285      1.0  0.13030  0.18510  0.52786  1.0000
  C   C286      1.0  0.86970  0.81490  0.52786  1.0000
  C   C287      1.0  0.31490  0.63030  0.97214  1.0000
  C   C288      1.0  0.68510  0.36970  0.97214  1.0000
  C   C289      1.0  0.83930  0.63260  0.71771  1.0000
  C   C290      1.0  0.16070  0.36740  0.71771  1.0000
  C   C291      1.0  0.63260  0.16070  0.28229  1.0000
  C   C292      1.0  0.36740  0.83930  0.28229  1.0000
  C   C293      1.0  0.66070  0.63260  0.03229  1.0000
  C   C294      1.0  0.33930  0.36740  0.03229  1.0000
  C   C295      1.0  0.86740  0.16070  0.46771  1.0000
  C   C296      1.0  0.13260  0.83930  0.46771  1.0000
  C   C297      1.0  0.33930  0.13260  0.21771  1.0000
  C   C298      1.0  0.66070  0.86740  0.21771  1.0000
  C   C299      1.0  0.13260  0.66070  0.78229  1.0000
  C   C300      1.0  0.86740  0.33930  0.78229  1.0000
  C   C301      1.0  0.16070  0.13260  0.53229  1.0000
  C   C302      1.0  0.83930  0.86740  0.53229  1.0000
  C   C303      1.0  0.36740  0.66070  0.96771  1.0000
  C   C304      1.0  0.63260  0.33930  0.96771  1.0000
  H   H193      1.0  0.81910  0.62570  0.69870  1.0000
  H   H194      1.0  0.18090  0.37430  0.69870  1.0000
  H   H195      1.0  0.62570  0.18090  0.30130  1.0000
  H   H196      1.0  0.37430  0.81910  0.30130  1.0000
  H   H197      1.0  0.68090  0.62570  0.05130  1.0000
  H   H198      1.0  0.31910  0.37430  0.05130  1.0000
  H   H199      1.0  0.87430  0.18090  0.44870  1.0000
  H   H200      1.0  0.12570  0.81910  0.44870  1.0000
  H   H201      1.0  0.31910  0.12570  0.19870  1.0000
  H   H202      1.0  0.68090  0.87430  0.19870  1.0000
  H   H203      1.0  0.12570  0.68090  0.80130  1.0000
  H   H204      1.0  0.87430  0.31910  0.80130  1.0000
  H   H205      1.0  0.18090  0.12570  0.55130  1.0000
  H   H206      1.0  0.81910  0.87430  0.55130  1.0000
  H   H207      1.0  0.37430  0.68090  0.94870  1.0000
  H   H208      1.0  0.62570  0.31910  0.94870  1.0000
  C   C305      1.0  0.83760  0.59000  0.74030  1.0000
  C   C306      1.0  0.16240  0.41000  0.74030  1.0000
  C   C307      1.0  0.59000  0.16240  0.25970  1.0000
  C   C308      1.0  0.41000  0.83760  0.25970  1.0000
  C   C309      1.0  0.66240  0.59000  0.00970  1.0000
  C   C310      1.0  0.33760  0.41000  0.00970  1.0000
  C   C311      1.0  0.91000  0.16240  0.49030  1.0000
  C   C312      1.0  0.09000  0.83760  0.49030  1.0000
  C   C313      1.0  0.33760  0.09000  0.24030  1.0000
  C   C314      1.0  0.66240  0.91000  0.24030  1.0000
  C   C315      1.0  0.09000  0.66240  0.75970  1.0000
  C   C316      1.0  0.91000  0.33760  0.75970  1.0000
  C   C317      1.0  0.16240  0.09000  0.50970  1.0000
  C   C318      1.0  0.83760  0.91000  0.50970  1.0000
  C   C319      1.0  0.41000  0.66240  0.99030  1.0000
  C   C320      1.0  0.59000  0.33760  0.99030  1.0000
  C   C321      1.0  0.86810  0.59750  0.76720  1.0000
  C   C322      1.0  0.13190  0.40250  0.76720  1.0000
  C   C323      1.0  0.59750  0.13190  0.23280  1.0000
  C   C324      1.0  0.40250  0.86810  0.23280  1.0000
  C   C325      1.0  0.63190  0.59750  0.98280  1.0000
  C   C326      1.0  0.36810  0.40250  0.98280  1.0000
  C   C327      1.0  0.90250  0.13190  0.51720  1.0000
  C   C328      1.0  0.09750  0.86810  0.51720  1.0000
  C   C329      1.0  0.36810  0.09750  0.26720  1.0000
  C   C330      1.0  0.63190  0.90250  0.26720  1.0000
  C   C331      1.0  0.09750  0.63190  0.73280  1.0000
  C   C332      1.0  0.90250  0.36810  0.73280  1.0000
  C   C333      1.0  0.13190  0.09750  0.48280  1.0000
  C   C334      1.0  0.86810  0.90250  0.48280  1.0000
  C   C335      1.0  0.40250  0.63190  0.01720  1.0000
  C   C336      1.0  0.59750  0.36810  0.01720  1.0000
  C   C337      1.0  0.90260  0.64730  0.77070  1.0000
  C   C338      1.0  0.09740  0.35270  0.77070  1.0000
  C   C339      1.0  0.64730  0.09740  0.22930  1.0000
  C   C340      1.0  0.35270  0.90260  0.22930  1.0000
  C   C341      1.0  0.59740  0.64730  0.97930  1.0000
  C   C342      1.0  0.40260  0.35270  0.97930  1.0000
  C   C343      1.0  0.85270  0.09740  0.52070  1.0000
  C   C344      1.0  0.14730  0.90260  0.52070  1.0000
  C   C345      1.0  0.40260  0.14730  0.27070  1.0000
  C   C346      1.0  0.59740  0.85270  0.27070  1.0000
  C   C347      1.0  0.14730  0.59740  0.72930  1.0000
  C   C348      1.0  0.85270  0.40260  0.72930  1.0000
  C   C349      1.0  0.09740  0.14730  0.47930  1.0000
  C   C350      1.0  0.90260  0.85270  0.47930  1.0000
  C   C351      1.0  0.35270  0.59740  0.02070  1.0000
  C   C352      1.0  0.64730  0.40260  0.02070  1.0000
  H   H209      1.0  0.92810  0.65060  0.78820  1.0000
  H   H210      1.0  0.07190  0.34940  0.78820  1.0000
  H   H211      1.0  0.65060  0.07190  0.21180  1.0000
  H   H212      1.0  0.34940  0.92810  0.21180  1.0000
  H   H213      1.0  0.57190  0.65060  0.96180  1.0000
  H   H214      1.0  0.42810  0.34940  0.96180  1.0000
  H   H215      1.0  0.84940  0.07190  0.53820  1.0000
  H   H216      1.0  0.15060  0.92810  0.53820  1.0000
  H   H217      1.0  0.42810  0.15060  0.28820  1.0000
  H   H218      1.0  0.57190  0.84940  0.28820  1.0000
  H   H219      1.0  0.15060  0.57190  0.71180  1.0000
  H   H220      1.0  0.84940  0.42810  0.71180  1.0000
  H   H221      1.0  0.07190  0.15060  0.46180  1.0000
  H   H222      1.0  0.92810  0.84940  0.46180  1.0000
  H   H223      1.0  0.34940  0.57190  0.03820  1.0000
  H   H224      1.0  0.65060  0.42810  0.03820  1.0000
  C   C353      1.0  0.90120  0.69340  0.74900  1.0000
  C   C354      1.0  0.09880  0.30660  0.74900  1.0000
  C   C355      1.0  0.69340  0.09880  0.25100  1.0000
  C   C356      1.0  0.30660  0.90120  0.25100  1.0000
  C   C357      1.0  0.59880  0.69340  0.00100  1.0000
  C   C358      1.0  0.40120  0.30660  0.00100  1.0000
  C   C359      1.0  0.80660  0.09880  0.49900  1.0000
  C   C360      1.0  0.19340  0.90120  0.49900  1.0000
  C   C361      1.0  0.40120  0.19340  0.24900  1.0000
  C   C362      1.0  0.59880  0.80660  0.24900  1.0000
  C   C363      1.0  0.19340  0.59880  0.75100  1.0000
  C   C364      1.0  0.80660  0.40120  0.75100  1.0000
  C   C365      1.0  0.09880  0.19340  0.50100  1.0000
  C   C366      1.0  0.90120  0.80660  0.50100  1.0000
  C   C367      1.0  0.30660  0.59880  0.99900  1.0000
  C   C368      1.0  0.69340  0.40120  0.99900  1.0000
  H   H225      1.0  0.92180  0.72990  0.75280  1.0000
  H   H226      1.0  0.07820  0.27010  0.75280  1.0000
  H   H227      1.0  0.72990  0.07820  0.24720  1.0000
  H   H228      1.0  0.27010  0.92180  0.24720  1.0000
  H   H229      1.0  0.57820  0.72990  0.99720  1.0000
  H   H230      1.0  0.42180  0.27010  0.99720  1.0000
  H   H231      1.0  0.77010  0.07820  0.50280  1.0000
  H   H232      1.0  0.22990  0.92180  0.50280  1.0000
  H   H233      1.0  0.42180  0.22990  0.25280  1.0000
  H   H234      1.0  0.57820  0.77010  0.25280  1.0000
  H   H235      1.0  0.22990  0.57820  0.74720  1.0000
  H   H236      1.0  0.77010  0.42180  0.74720  1.0000
  H   H237      1.0  0.07820  0.22990  0.49720  1.0000
  H   H238      1.0  0.92180  0.77010  0.49720  1.0000
  H   H239      1.0  0.27010  0.57820  0.00280  1.0000
  H   H240      1.0  0.72990  0.42180  0.00280  1.0000
  C   C369      1.0  0.86640  0.55320  0.79440  1.0000
  C   C370      1.0  0.13360  0.44680  0.79440  1.0000
  C   C371      1.0  0.55320  0.13360  0.20560  1.0000
  C   C372      1.0  0.44680  0.86640  0.20560  1.0000
  C   C373      1.0  0.63360  0.55320  0.95560  1.0000
  C   C374      1.0  0.36640  0.44680  0.95560  1.0000
  C   C375      1.0  0.94680  0.13360  0.54440  1.0000
  C   C376      1.0  0.05320  0.86640  0.54440  1.0000
  C   C377      1.0  0.36640  0.05320  0.29440  1.0000
  C   C378      1.0  0.63360  0.94680  0.29440  1.0000
  C   C379      1.0  0.05320  0.63360  0.70560  1.0000
  C   C380      1.0  0.94680  0.36640  0.70560  1.0000
  C   C381      1.0  0.13360  0.05320  0.45560  1.0000
  C   C382      1.0  0.86640  0.94680  0.45560  1.0000
  C   C383      1.0  0.44680  0.63360  0.04440  1.0000
  C   C384      1.0  0.55320  0.36640  0.04440  1.0000
  C   C385      1.0  0.81430  0.54240  0.81120  1.0000
  C   C386      1.0  0.18570  0.45760  0.81120  1.0000
  C   C387      1.0  0.54240  0.18570  0.18880  1.0000
  C   C388      1.0  0.45760  0.81430  0.18880  1.0000
  C   C389      1.0  0.68570  0.54240  0.93880  1.0000
  C   C390      1.0  0.31430  0.45760  0.93880  1.0000
  C   C391      1.0  0.95760  0.18570  0.56120  1.0000
  C   C392      1.0  0.04240  0.81430  0.56120  1.0000
  C   C393      1.0  0.31430  0.04240  0.31120  1.0000
  C   C394      1.0  0.68570  0.95760  0.31120  1.0000
  C   C395      1.0  0.04240  0.68570  0.68880  1.0000
  C   C396      1.0  0.95760  0.31430  0.68880  1.0000
  C   C397      1.0  0.18570  0.04240  0.43880  1.0000
  C   C398      1.0  0.81430  0.95760  0.43880  1.0000
  C   C399      1.0  0.45760  0.68570  0.06120  1.0000
  C   C400      1.0  0.54240  0.31430  0.06120  1.0000
  C   C401      1.0  0.81520  0.50390  0.83599  1.0000
  C   C402      1.0  0.18480  0.49610  0.83599  1.0000
  C   C403      1.0  0.50390  0.18480  0.16401  1.0000
  C   C404      1.0  0.49610  0.81520  0.16401  1.0000
  C   C405      1.0  0.68480  0.50390  0.91401  1.0000
  C   C406      1.0  0.31520  0.49610  0.91401  1.0000
  C   C407      1.0  0.99610  0.18480  0.58599  1.0000
  C   C408      1.0  0.00390  0.81520  0.58599  1.0000
  C   C409      1.0  0.31520  0.00390  0.33599  1.0000
  C   C410      1.0  0.68480  0.99610  0.33599  1.0000
  C   C411      1.0  0.00390  0.68480  0.66401  1.0000
  C   C412      1.0  0.99610  0.31520  0.66401  1.0000
  C   C413      1.0  0.18480  0.00390  0.41401  1.0000
  C   C414      1.0  0.81520  0.99610  0.41401  1.0000
  C   C415      1.0  0.49610  0.68480  0.08599  1.0000
  C   C416      1.0  0.50390  0.31520  0.08599  1.0000
  H   H241      1.0  0.77910  0.49590  0.84700  1.0000
  H   H242      1.0  0.22090  0.50410  0.84700  1.0000
  H   H243      1.0  0.49590  0.22090  0.15300  1.0000
  H   H244      1.0  0.50410  0.77910  0.15300  1.0000
  H   H245      1.0  0.72090  0.49590  0.90300  1.0000
  H   H246      1.0  0.27910  0.50410  0.90300  1.0000
  H   H247      1.0  0.00410  0.22090  0.59700  1.0000
  H   H248      1.0  0.99590  0.77910  0.59700  1.0000
  H   H249      1.0  0.27910  0.99590  0.34700  1.0000
  H   H250      1.0  0.72090  0.00410  0.34700  1.0000
  H   H251      1.0  0.99590  0.72090  0.65300  1.0000
  H   H252      1.0  0.00410  0.27910  0.65300  1.0000
  H   H253      1.0  0.22090  0.99590  0.40300  1.0000
  H   H254      1.0  0.77910  0.00410  0.40300  1.0000
  H   H255      1.0  0.50410  0.72090  0.09700  1.0000
  H   H256      1.0  0.49590  0.27910  0.09700  1.0000
  C   C417      1.0  0.86720  0.47710  0.84504  1.0000
  C   C418      1.0  0.13280  0.52290  0.84504  1.0000
  C   C419      1.0  0.47710  0.13280  0.15496  1.0000
  C   C420      1.0  0.52290  0.86720  0.15496  1.0000
  C   C421      1.0  0.63280  0.47710  0.90496  1.0000
  C   C422      1.0  0.36720  0.52290  0.90496  1.0000
  C   C423      1.0  0.02290  0.13280  0.59504  1.0000
  C   C424      1.0  0.97710  0.86720  0.59504  1.0000
  C   C425      1.0  0.36720  0.97710  0.34504  1.0000
  C   C426      1.0  0.63280  0.02290  0.34504  1.0000
  C   C427      1.0  0.97710  0.63280  0.65496  1.0000
  C   C428      1.0  0.02290  0.36720  0.65496  1.0000
  C   C429      1.0  0.13280  0.97710  0.40496  1.0000
  C   C430      1.0  0.86720  0.02290  0.40496  1.0000
  C   C431      1.0  0.52290  0.63280  0.09504  1.0000
  C   C432      1.0  0.47710  0.36720  0.09504  1.0000
  C   C433      1.0  0.91880  0.48480  0.82710  1.0000
  C   C434      1.0  0.08120  0.51520  0.82710  1.0000
  C   C435      1.0  0.48480  0.08120  0.17290  1.0000
  C   C436      1.0  0.51520  0.91880  0.17290  1.0000
  C   C437      1.0  0.58120  0.48480  0.92290  1.0000
  C   C438      1.0  0.41880  0.51520  0.92290  1.0000
  C   C439      1.0  0.01520  0.08120  0.57710  1.0000
  C   C440      1.0  0.98480  0.91880  0.57710  1.0000
  C   C441      1.0  0.41880  0.98480  0.32710  1.0000
  C   C442      1.0  0.58120  0.01520  0.32710  1.0000
  C   C443      1.0  0.98480  0.58120  0.67290  1.0000
  C   C444      1.0  0.01520  0.41880  0.67290  1.0000
  C   C445      1.0  0.08120  0.98480  0.42290  1.0000
  C   C446      1.0  0.91880  0.01520  0.42290  1.0000
  C   C447      1.0  0.51520  0.58120  0.07710  1.0000
  C   C448      1.0  0.48480  0.41880  0.07710  1.0000
  H   H257      1.0  0.95440  0.46350  0.83200  1.0000
  H   H258      1.0  0.04560  0.53650  0.83200  1.0000
  H   H259      1.0  0.46350  0.04560  0.16800  1.0000
  H   H260      1.0  0.53650  0.95440  0.16800  1.0000
  H   H261      1.0  0.54560  0.46350  0.91800  1.0000
  H   H262      1.0  0.45440  0.53650  0.91800  1.0000
  H   H263      1.0  0.03650  0.04560  0.58200  1.0000
  H   H264      1.0  0.96350  0.95440  0.58200  1.0000
  H   H265      1.0  0.45440  0.96350  0.33200  1.0000
  H   H266      1.0  0.54560  0.03650  0.33200  1.0000
  H   H267      1.0  0.96350  0.54560  0.66800  1.0000
  H   H268      1.0  0.03650  0.45440  0.66800  1.0000
  H   H269      1.0  0.04560  0.96350  0.41800  1.0000
  H   H270      1.0  0.95440  0.03650  0.41800  1.0000
  H   H271      1.0  0.53650  0.54560  0.08200  1.0000
  H   H272      1.0  0.46350  0.45440  0.08200  1.0000
  C   C449      1.0  0.91770  0.52330  0.80220  1.0000
  C   C450      1.0  0.08230  0.47670  0.80220  1.0000
  C   C451      1.0  0.52330  0.08230  0.19780  1.0000
  C   C452      1.0  0.47670  0.91770  0.19780  1.0000
  C   C453      1.0  0.58230  0.52330  0.94780  1.0000
  C   C454      1.0  0.41770  0.47670  0.94780  1.0000
  C   C455      1.0  0.97670  0.08230  0.55220  1.0000
  C   C456      1.0  0.02330  0.91770  0.55220  1.0000
  C   C457      1.0  0.41770  0.02330  0.30220  1.0000
  C   C458      1.0  0.58230  0.97670  0.30220  1.0000
  C   C459      1.0  0.02330  0.58230  0.69780  1.0000
  C   C460      1.0  0.97670  0.41770  0.69780  1.0000
  C   C461      1.0  0.08230  0.02330  0.44780  1.0000
  C   C462      1.0  0.91770  0.97670  0.44780  1.0000
  C   C463      1.0  0.47670  0.58230  0.05220  1.0000
  C   C464      1.0  0.52330  0.41770  0.05220  1.0000
  H   H273      1.0  0.95310  0.52920  0.79030  1.0000
  H   H274      1.0  0.04690  0.47080  0.79030  1.0000
  H   H275      1.0  0.52920  0.04690  0.20970  1.0000
  H   H276      1.0  0.47080  0.95310  0.20970  1.0000
  H   H277      1.0  0.54690  0.52920  0.95970  1.0000
  H   H278      1.0  0.45310  0.47080  0.95970  1.0000
  H   H279      1.0  0.97080  0.04690  0.54030  1.0000
  H   H280      1.0  0.02920  0.95310  0.54030  1.0000
  H   H281      1.0  0.45310  0.02920  0.29030  1.0000
  H   H282      1.0  0.54690  0.97080  0.29030  1.0000
  H   H283      1.0  0.02920  0.54690  0.70970  1.0000
  H   H284      1.0  0.97080  0.45310  0.70970  1.0000
  H   H285      1.0  0.04690  0.02920  0.45970  1.0000
  H   H286      1.0  0.95310  0.97080  0.45970  1.0000
  H   H287      1.0  0.47080  0.54690  0.04030  1.0000
  H   H288      1.0  0.52920  0.45310  0.04030  1.0000
  C   C465      1.0  0.86620  0.43810  0.87400  1.0000
  C   C466      1.0  0.13380  0.56190  0.87400  1.0000
  C   C467      1.0  0.43810  0.13380  0.12600  1.0000
  C   C468      1.0  0.56190  0.86620  0.12600  1.0000
  C   C469      1.0  0.63380  0.43810  0.87600  1.0000
  C   C470      1.0  0.36620  0.56190  0.87600  1.0000
  C   C471      1.0  0.06190  0.13380  0.62400  1.0000
  C   C472      1.0  0.93810  0.86620  0.62400  1.0000
  C   C473      1.0  0.36620  0.93810  0.37400  1.0000
  C   C474      1.0  0.63380  0.06190  0.37400  1.0000
  C   C475      1.0  0.93810  0.63380  0.62600  1.0000
  C   C476      1.0  0.06190  0.36620  0.62600  1.0000
  C   C477      1.0  0.13380  0.93810  0.37600  1.0000
  C   C478      1.0  0.86620  0.06190  0.37600  1.0000
  C   C479      1.0  0.56190  0.63380  0.12400  1.0000
  C   C480      1.0  0.43810  0.36620  0.12400  1.0000
  C   C481      1.0  0.76790  0.53310  0.70900  1.0000
  C   C482      1.0  0.23210  0.46690  0.70900  1.0000
  C   C483      1.0  0.53310  0.23210  0.29100  1.0000
  C   C484      1.0  0.46690  0.76790  0.29100  1.0000
  C   C485      1.0  0.73210  0.53310  0.04100  1.0000
  C   C486      1.0  0.26790  0.46690  0.04100  1.0000
  C   C487      1.0  0.96690  0.23210  0.45900  1.0000
  C   C488      1.0  0.03310  0.76790  0.45900  1.0000
  C   C489      1.0  0.26790  0.03310  0.20900  1.0000
  C   C490      1.0  0.73210  0.96690  0.20900  1.0000
  C   C491      1.0  0.03310  0.73210  0.79100  1.0000
  C   C492      1.0  0.96690  0.26790  0.79100  1.0000
  C   C493      1.0  0.23210  0.03310  0.54100  1.0000
  C   C494      1.0  0.76790  0.96690  0.54100  1.0000
  C   C495      1.0  0.46690  0.73210  0.95900  1.0000
  C   C496      1.0  0.53310  0.26790  0.95900  1.0000
  H   H289      1.0  0.74760  0.49420  0.70840  1.0000
  H   H290      1.0  0.25240  0.50580  0.70840  1.0000
  H   H291      1.0  0.49420  0.25240  0.29160  1.0000
  H   H292      1.0  0.50580  0.74760  0.29160  1.0000
  H   H293      1.0  0.75240  0.49420  0.04160  1.0000
  H   H294      1.0  0.24760  0.50580  0.04160  1.0000
  H   H295      1.0  0.00580  0.25240  0.45840  1.0000
  H   H296      1.0  0.99420  0.74760  0.45840  1.0000
  H   H297      1.0  0.24760  0.99420  0.20840  1.0000
  H   H298      1.0  0.75240  0.00580  0.20840  1.0000
  H   H299      1.0  0.99420  0.75240  0.79160  1.0000
  H   H300      1.0  0.00580  0.24760  0.79160  1.0000
  H   H301      1.0  0.25240  0.99420  0.54160  1.0000
  H   H302      1.0  0.74760  0.00580  0.54160  1.0000
  H   H303      1.0  0.50580  0.75240  0.95840  1.0000
  H   H304      1.0  0.49420  0.24760  0.95840  1.0000
  H   H305      1.0  0.79370  0.53720  0.69070  1.0000
  H   H306      1.0  0.20630  0.46280  0.69070  1.0000
  H   H307      1.0  0.53720  0.20630  0.30930  1.0000
  H   H308      1.0  0.46280  0.79370  0.30930  1.0000
  H   H309      1.0  0.70630  0.53720  0.05930  1.0000
  H   H310      1.0  0.29370  0.46280  0.05930  1.0000
  H   H311      1.0  0.96280  0.20630  0.44070  1.0000
  H   H312      1.0  0.03720  0.79370  0.44070  1.0000
  H   H313      1.0  0.29370  0.03720  0.19070  1.0000
  H   H314      1.0  0.70630  0.96280  0.19070  1.0000
  H   H315      1.0  0.03720  0.70630  0.80930  1.0000
  H   H316      1.0  0.96280  0.29370  0.80930  1.0000
  H   H317      1.0  0.20630  0.03720  0.55930  1.0000
  H   H318      1.0  0.79370  0.96280  0.55930  1.0000
  H   H319      1.0  0.46280  0.70630  0.94070  1.0000
  H   H320      1.0  0.53720  0.29370  0.94070  1.0000
  H   H321      1.0  0.73800  0.56530  0.70900  1.0000
  H   H322      1.0  0.26200  0.43470  0.70900  1.0000
  H   H323      1.0  0.56530  0.26200  0.29100  1.0000
  H   H324      1.0  0.43470  0.73800  0.29100  1.0000
  H   H325      1.0  0.76200  0.56530  0.04100  1.0000
  H   H326      1.0  0.23800  0.43470  0.04100  1.0000
  H   H327      1.0  0.93470  0.26200  0.45900  1.0000
  H   H328      1.0  0.06530  0.73800  0.45900  1.0000
  H   H329      1.0  0.23800  0.06530  0.20900  1.0000
  H   H330      1.0  0.76200  0.93470  0.20900  1.0000
  H   H331      1.0  0.06530  0.76200  0.79100  1.0000
  H   H332      1.0  0.93470  0.23800  0.79100  1.0000
  H   H333      1.0  0.26200  0.06530  0.54100  1.0000
  H   H334      1.0  0.73800  0.93470  0.54100  1.0000
  H   H335      1.0  0.43470  0.76200  0.95900  1.0000
  H   H336      1.0  0.56530  0.23800  0.95900  1.0000
  C   C497      1.0  0.70490  0.55350  0.81420  1.0000
  C   C498      1.0  0.29510  0.44650  0.81420  1.0000
  C   C499      1.0  0.55350  0.29510  0.18580  1.0000
  C   C500      1.0  0.44650  0.70490  0.18580  1.0000
  C   C501      1.0  0.79510  0.55350  0.93580  1.0000
  C   C502      1.0  0.20490  0.44650  0.93580  1.0000
  C   C503      1.0  0.94650  0.29510  0.56420  1.0000
  C   C504      1.0  0.05350  0.70490  0.56420  1.0000
  C   C505      1.0  0.20490  0.05350  0.31420  1.0000
  C   C506      1.0  0.79510  0.94650  0.31420  1.0000
  C   C507      1.0  0.05350  0.79510  0.68580  1.0000
  C   C508      1.0  0.94650  0.20490  0.68580  1.0000
  C   C509      1.0  0.29510  0.05350  0.43580  1.0000
  C   C510      1.0  0.70490  0.94650  0.43580  1.0000
  C   C511      1.0  0.44650  0.79510  0.06420  1.0000
  C   C512      1.0  0.55350  0.20490  0.06420  1.0000
  H   H337      1.0  0.67300  0.57540  0.80340  1.0000
  H   H338      1.0  0.32700  0.42460  0.80340  1.0000
  H   H339      1.0  0.57540  0.32700  0.19660  1.0000
  H   H340      1.0  0.42460  0.67300  0.19660  1.0000
  H   H341      1.0  0.82700  0.57540  0.94660  1.0000
  H   H342      1.0  0.17300  0.42460  0.94660  1.0000
  H   H343      1.0  0.92460  0.32700  0.55340  1.0000
  H   H344      1.0  0.07540  0.67300  0.55340  1.0000
  H   H345      1.0  0.17300  0.07540  0.30340  1.0000
  H   H346      1.0  0.82700  0.92460  0.30340  1.0000
  H   H347      1.0  0.07540  0.82700  0.69660  1.0000
  H   H348      1.0  0.92460  0.17300  0.69660  1.0000
  H   H349      1.0  0.32700  0.07540  0.44660  1.0000
  H   H350      1.0  0.67300  0.92460  0.44660  1.0000
  H   H351      1.0  0.42460  0.82700  0.05340  1.0000
  H   H352      1.0  0.57540  0.17300  0.05340  1.0000
  H   H353      1.0  0.70460  0.56420  0.83620  1.0000
  H   H354      1.0  0.29540  0.43580  0.83620  1.0000
  H   H355      1.0  0.56420  0.29540  0.16380  1.0000
  H   H356      1.0  0.43580  0.70460  0.16380  1.0000
  H   H357      1.0  0.79540  0.56420  0.91380  1.0000
  H   H358      1.0  0.20460  0.43580  0.91380  1.0000
  H   H359      1.0  0.93580  0.29540  0.58620  1.0000
  H   H360      1.0  0.06420  0.70460  0.58620  1.0000
  H   H361      1.0  0.20460  0.06420  0.33620  1.0000
  H   H362      1.0  0.79540  0.93580  0.33620  1.0000
  H   H363      1.0  0.06420  0.79540  0.66380  1.0000
  H   H364      1.0  0.93580  0.20460  0.66380  1.0000
  H   H365      1.0  0.29540  0.06420  0.41380  1.0000
  H   H366      1.0  0.70460  0.93580  0.41380  1.0000
  H   H367      1.0  0.43580  0.79540  0.08620  1.0000
  H   H368      1.0  0.56420  0.20460  0.08620  1.0000
  H   H369      1.0  0.69820  0.51030  0.81200  1.0000
  H   H370      1.0  0.30180  0.48970  0.81200  1.0000
  H   H371      1.0  0.51030  0.30180  0.18800  1.0000
  H   H372      1.0  0.48970  0.69820  0.18800  1.0000
  H   H373      1.0  0.80180  0.51030  0.93800  1.0000
  H   H374      1.0  0.19820  0.48970  0.93800  1.0000
  H   H375      1.0  0.98970  0.30180  0.56200  1.0000
  H   H376      1.0  0.01030  0.69820  0.56200  1.0000
  H   H377      1.0  0.19820  0.01030  0.31200  1.0000
  H   H378      1.0  0.80180  0.98970  0.31200  1.0000
  H   H379      1.0  0.01030  0.80180  0.68800  1.0000
  H   H380      1.0  0.98970  0.19820  0.68800  1.0000
  H   H381      1.0  0.30180  0.01030  0.43800  1.0000
  H   H382      1.0  0.69820  0.98970  0.43800  1.0000
  H   H383      1.0  0.48970  0.80180  0.06200  1.0000
  H   H384      1.0  0.51030  0.19820  0.06200  1.0000
