data_image0
_chemical_formula_structural       U2O2N2C2O2N2U2C2H2O2N2C2H4O2N2C2H4O2N2C2H4O2N2C2H4O2N2C2N2O2C2O2N2C2H4C2H4N2O2C2H4O2C2N2O2C2H2N2O2C2H4O2C2O2C2H4O2C2H4C2H2C4H4C2H4C2H2C4H4C2H4C2H4C2H4C6H4C2H4C2H4C2H4C2H2C6H4C2H4C2H2C4H4C2H4
_chemical_formula_sum              "U4 O32 N24 C84 H108"
_cell_length_a       14.643
_cell_length_b       14.836
_cell_length_c       17.114
_cell_angle_alpha    67.435
_cell_angle_beta     77.25
_cell_angle_gamma    61.39

_space_group_name_H-M_alt    "P 1"
_space_group_IT_number       1

loop_
  _space_group_symop_operation_xyz
  'x, y, z'

loop_
  _atom_site_type_symbol
  _atom_site_label
  _atom_site_symmetry_multiplicity
  _atom_site_fract_x
  _atom_site_fract_y
  _atom_site_fract_z
  _atom_site_occupancy
  U   U1        1.0  0.55972  0.25120  0.96142  1.0000
  U   U2        1.0  0.44028  0.74880  0.03858  1.0000
  O   O1        1.0  0.44960  0.37550  0.94960  1.0000
  O   O2        1.0  0.55040  0.62450  0.05040  1.0000
  N   N1        1.0  0.76240  0.30360  0.54530  1.0000
  N   N2        1.0  0.23760  0.69640  0.45470  1.0000
  C   C1        1.0  0.64000  0.27850  0.08370  1.0000
  C   C2        1.0  0.36000  0.72150  0.91630  1.0000
  O   O3        1.0  0.66870  0.12790  0.97390  1.0000
  O   O4        1.0  0.33130  0.87210  0.02610  1.0000
  N   N3        1.0  0.78390  0.23640  0.29870  1.0000
  N   N4        1.0  0.21610  0.76360  0.70130  1.0000
  U   U3        1.0  0.61059  0.72125  0.50195  1.0000
  U   U4        1.0  0.38941  0.27875  0.49805  1.0000
  C   C3        1.0  0.68210  0.29590  0.14830  1.0000
  C   C4        1.0  0.31790  0.70410  0.85170  1.0000
  H   H1        1.0  0.67690  0.36960  0.12380  1.0000
  H   H2        1.0  0.32310  0.63040  0.87620  1.0000
  O   O5        1.0  0.64500  0.33760  0.83850  1.0000
  O   O6        1.0  0.35500  0.66240  0.16150  1.0000
  N   N5        1.0  0.08440  0.12130  0.43080  1.0000
  N   N6        1.0  0.91560  0.87870  0.56920  1.0000
  C   C5        1.0  0.62700  0.28770  0.23160  1.0000
  C   C6        1.0  0.37300  0.71230  0.76840  1.0000
  H   H3        1.0  0.62270  0.21900  0.25360  1.0000
  H   H4        1.0  0.37730  0.78100  0.74640  1.0000
  H   H5        1.0  0.55630  0.34490  0.22390  1.0000
  H   H6        1.0  0.44370  0.65510  0.77610  1.0000
  O   O7        1.0  0.55530  0.27070  0.81210  1.0000
  O   O8        1.0  0.44470  0.72930  0.18790  1.0000
  N   N7        1.0  0.92450  0.21530  0.48830  1.0000
  N   N8        1.0  0.07550  0.78470  0.51170  1.0000
  C   C7        1.0  0.67340  0.29520  0.29660  1.0000
  C   C8        1.0  0.32660  0.70480  0.70340  1.0000
  H   H7        1.0  0.65440  0.37110  0.28590  1.0000
  H   H8        1.0  0.34560  0.62890  0.71410  1.0000
  H   H9        1.0  0.64340  0.26850  0.35190  1.0000
  H   H10       1.0  0.35660  0.73150  0.64810  1.0000
  O   O9        1.0  0.57810  0.23500  0.10800  1.0000
  O   O10       1.0  0.42190  0.76500  0.89200  1.0000
  N   N9        1.0  0.76970  0.27020  0.42380  1.0000
  N   N10       1.0  0.23030  0.72980  0.57620  1.0000
  C   C9        1.0  0.84610  0.22310  0.22150  1.0000
  C   C10       1.0  0.15390  0.77690  0.77850  1.0000
  H   H11       1.0  0.90960  0.15640  0.23650  1.0000
  H   H12       1.0  0.09040  0.84360  0.76350  1.0000
  H   H13       1.0  0.86570  0.28250  0.19560  1.0000
  H   H14       1.0  0.13430  0.71750  0.80440  1.0000
  O   O11       1.0  0.66310  0.31250  0.00700  1.0000
  O   O12       1.0  0.33690  0.68750  0.99300  1.0000
  N   N11       1.0  0.93770  0.17550  0.36250  1.0000
  N   N12       1.0  0.06230  0.82450  0.63750  1.0000
  C   C11       1.0  0.79530  0.21990  0.15830  1.0000
  C   C12       1.0  0.20470  0.78010  0.84170  1.0000
  H   H15       1.0  0.80330  0.14650  0.17340  1.0000
  H   H16       1.0  0.19670  0.85350  0.82660  1.0000
  H   H17       1.0  0.83170  0.23580  0.10390  1.0000
  H   H18       1.0  0.16830  0.76420  0.89610  1.0000
  O   O13       1.0  0.44850  0.86510  0.53940  1.0000
  O   O14       1.0  0.55150  0.13490  0.46060  1.0000
  N   N13       1.0  0.85580  0.49710  0.16190  1.0000
  N   N14       1.0  0.14420  0.50290  0.83810  1.0000
  C   C13       1.0  0.83270  0.22620  0.36340  1.0000
  C   C14       1.0  0.16730  0.77380  0.63660  1.0000
  N   N15       1.0  0.82750  0.46730  0.90920  1.0000
  N   N16       1.0  0.17250  0.53270  0.09080  1.0000
  O   O15       1.0  0.46430  0.85650  0.41300  1.0000
  O   O16       1.0  0.53570  0.14350  0.58700  1.0000
  C   C15       1.0  0.82100  0.25980  0.48340  1.0000
  C   C16       1.0  0.17900  0.74020  0.51660  1.0000
  O   O17       1.0  0.62990  0.70350  0.36090  1.0000
  O   O18       1.0  0.37010  0.29650  0.63910  1.0000
  N   N17       1.0  0.13690  0.26400  0.04400  1.0000
  N   N18       1.0  0.86310  0.73600  0.95600  1.0000
  C   C17       1.0  0.64960  0.35810  0.54570  1.0000
  C   C18       1.0  0.35040  0.64190  0.45430  1.0000
  H   H19       1.0  0.62530  0.33680  0.51040  1.0000
  H   H20       1.0  0.37470  0.66320  0.48960  1.0000
  H   H21       1.0  0.62630  0.43600  0.52250  1.0000
  H   H22       1.0  0.37370  0.56400  0.47750  1.0000
  C   C19       1.0  0.60380  0.32840  0.63610  1.0000
  C   C20       1.0  0.39620  0.67160  0.36390  1.0000
  H   H23       1.0  0.61880  0.25220  0.65630  1.0000
  H   H24       1.0  0.38120  0.74780  0.34370  1.0000
  H   H25       1.0  0.52870  0.37080  0.63650  1.0000
  H   H26       1.0  0.47130  0.62920  0.36350  1.0000
  N   N19       1.0  0.99930  0.38490  0.10210  1.0000
  N   N20       1.0  0.00070  0.61510  0.89790  1.0000
  O   O19       1.0  0.76200  0.58600  0.44050  1.0000
  O   O20       1.0  0.23800  0.41400  0.55950  1.0000
  C   C21       1.0  0.76640  0.29310  0.69020  1.0000
  C   C22       1.0  0.23360  0.70690  0.30980  1.0000
  H   H27       1.0  0.78850  0.21530  0.71200  1.0000
  H   H28       1.0  0.21150  0.78470  0.28800  1.0000
  H   H29       1.0  0.79450  0.31140  0.72520  1.0000
  H   H30       1.0  0.20550  0.68860  0.27480  1.0000
  O   O21       1.0  0.61110  0.71000  0.64940  1.0000
  O   O22       1.0  0.38890  0.29000  0.35060  1.0000
  C   C23       1.0  0.61170  0.31990  0.78700  1.0000
  C   C24       1.0  0.38830  0.68010  0.21300  1.0000
  N   N21       1.0  0.98260  0.36040  0.97680  1.0000
  N   N22       1.0  0.01740  0.63960  0.02320  1.0000
  O   O23       1.0  0.55300  0.63290  0.54110  1.0000
  O   O24       1.0  0.44700  0.36710  0.45890  1.0000
  C   C25       1.0  0.65040  0.35060  0.69510  1.0000
  C   C26       1.0  0.34960  0.64940  0.30490  1.0000
  H   H31       1.0  0.63040  0.42870  0.67500  1.0000
  H   H32       1.0  0.36960  0.57130  0.32500  1.0000
  N   N23       1.0  0.83650  0.48780  0.03460  1.0000
  N   N24       1.0  0.16350  0.51220  0.96540  1.0000
  O   O25       1.0  0.67130  0.80620  0.46420  1.0000
  O   O26       1.0  0.32870  0.19380  0.53580  1.0000
  C   C27       1.0  0.80920  0.32400  0.59970  1.0000
  C   C28       1.0  0.19080  0.67600  0.40030  1.0000
  H   H33       1.0  0.79390  0.40030  0.57970  1.0000
  H   H34       1.0  0.20610  0.59970  0.42030  1.0000
  H   H35       1.0  0.88420  0.28190  0.59750  1.0000
  H   H36       1.0  0.11580  0.71810  0.40250  1.0000
  O   O27       1.0  0.74660  0.59210  0.60360  1.0000
  O   O28       1.0  0.25340  0.40790  0.39640  1.0000
  C   C29       1.0  0.98010  0.17180  0.42710  1.0000
  C   C30       1.0  0.01990  0.82820  0.57290  1.0000
  O   O29       1.0  0.44930  0.17580  0.94350  1.0000
  O   O30       1.0  0.55070  0.82420  0.05650  1.0000
  C   C31       1.0  0.13730  0.12670  0.49070  1.0000
  C   C32       1.0  0.86270  0.87330  0.50930  1.0000
  H   H37       1.0  0.09020  0.14040  0.53890  1.0000
  H   H38       1.0  0.90980  0.85960  0.46110  1.0000
  H   H39       1.0  0.15590  0.18670  0.46370  1.0000
  H   H40       1.0  0.84410  0.81330  0.53630  1.0000
  O   O31       1.0  0.46410  0.15940  0.07220  1.0000
  O   O32       1.0  0.53590  0.84060  0.92780  1.0000
  C   C33       1.0  0.23390  0.02320  0.52100  1.0000
  C   C34       1.0  0.76610  0.97680  0.47900  1.0000
  H   H41       1.0  0.21500  0.96400  0.55260  1.0000
  H   H42       1.0  0.78500  0.03600  0.44740  1.0000
  H   H43       1.0  0.26900  0.03060  0.55850  1.0000
  H   H44       1.0  0.73100  0.96940  0.44150  1.0000
  C   C35       1.0  0.30690  0.99750  0.44620  1.0000
  C   C36       1.0  0.69310  0.00250  0.55380  1.0000
  H   H45       1.0  0.32310  0.05970  0.41730  1.0000
  H   H46       1.0  0.67690  0.94030  0.58270  1.0000
  C   C37       1.0  0.41010  0.90030  0.46870  1.0000
  C   C38       1.0  0.58990  0.09970  0.53130  1.0000
  C   C39       1.0  0.25190  0.99490  0.38220  1.0000
  C   C40       1.0  0.74810  0.00510  0.61780  1.0000
  H   H47       1.0  0.29790  0.98600  0.33260  1.0000
  H   H48       1.0  0.70210  0.01400  0.66740  1.0000
  H   H49       1.0  0.23580  0.93300  0.40670  1.0000
  H   H50       1.0  0.76420  0.06700  0.59330  1.0000
  C   C41       1.0  0.15260  0.09730  0.35580  1.0000
  C   C42       1.0  0.84740  0.90270  0.64420  1.0000
  H   H51       1.0  0.16940  0.15760  0.32290  1.0000
  H   H52       1.0  0.83060  0.84240  0.67710  1.0000
  H   H53       1.0  0.11560  0.08930  0.32020  1.0000
  H   H54       1.0  0.88440  0.91070  0.67980  1.0000
  C   C43       1.0  0.75940  0.55560  0.31320  1.0000
  C   C44       1.0  0.24060  0.44440  0.68680  1.0000
  H   H55       1.0  0.75150  0.48830  0.34190  1.0000
  H   H56       1.0  0.24850  0.51170  0.65810  1.0000
  C   C45       1.0  0.71480  0.61990  0.37400  1.0000
  C   C46       1.0  0.28520  0.38010  0.62600  1.0000
  C   C47       1.0  0.70160  0.61120  0.23290  1.0000
  C   C48       1.0  0.29840  0.38880  0.76710  1.0000
  H   H57       1.0  0.70790  0.67840  0.20230  1.0000
  H   H58       1.0  0.29210  0.32160  0.79770  1.0000
  H   H59       1.0  0.62840  0.62950  0.24720  1.0000
  H   H60       1.0  0.37160  0.37050  0.75280  1.0000
  C   C49       1.0  0.74180  0.54210  0.17640  1.0000
  C   C50       1.0  0.25820  0.45790  0.82360  1.0000
  H   H61       1.0  0.72210  0.48280  0.20190  1.0000
  H   H62       1.0  0.27790  0.51720  0.79810  1.0000
  H   H63       1.0  0.70930  0.58540  0.12230  1.0000
  H   H64       1.0  0.29070  0.41460  0.87770  1.0000
  C   C51       1.0  0.87220  0.52280  0.29230  1.0000
  C   C52       1.0  0.12780  0.47720  0.70770  1.0000
  H   H65       1.0  0.90900  0.48510  0.34440  1.0000
  H   H66       1.0  0.09100  0.51490  0.65560  1.0000
  H   H67       1.0  0.88320  0.58750  0.26280  1.0000
  H   H68       1.0  0.11680  0.41250  0.73720  1.0000
  C   C53       1.0  0.91860  0.44840  0.23650  1.0000
  C   C54       1.0  0.08140  0.55160  0.76350  1.0000
  H   H69       1.0  0.98960  0.43780  0.21820  1.0000
  H   H70       1.0  0.01040  0.56220  0.78180  1.0000
  H   H71       1.0  0.92010  0.37800  0.26940  1.0000
  H   H72       1.0  0.07990  0.62200  0.73060  1.0000
  C   C55       1.0  0.89950  0.45430  0.09780  1.0000
  C   C56       1.0  0.10050  0.54570  0.90220  1.0000
  C   C57       1.0  0.03750  0.33970  0.04130  1.0000
  C   C58       1.0  0.96250  0.66030  0.95870  1.0000
  C   C59       1.0  0.20240  0.23650  0.11120  1.0000
  C   C60       1.0  0.79760  0.76350  0.88880  1.0000
  H   H73       1.0  0.23430  0.28600  0.09310  1.0000
  H   H74       1.0  0.76570  0.71400  0.90690  1.0000
  H   H75       1.0  0.15870  0.24680  0.16160  1.0000
  H   H76       1.0  0.84130  0.75320  0.83840  1.0000
  C   C61       1.0  0.28420  0.12520  0.13240  1.0000
  C   C62       1.0  0.71580  0.87480  0.86760  1.0000
  H   H77       1.0  0.25260  0.07580  0.16130  1.0000
  H   H78       1.0  0.74740  0.92420  0.83870  1.0000
  H   H79       1.0  0.33020  0.11530  0.17100  1.0000
  H   H80       1.0  0.66980  0.88470  0.82900  1.0000
  C   C63       1.0  0.19530  0.23810  0.96770  1.0000
  C   C64       1.0  0.80470  0.76190  0.03230  1.0000
  H   H81       1.0  0.22750  0.28700  0.93860  1.0000
  H   H82       1.0  0.77250  0.71300  0.06140  1.0000
  H   H83       1.0  0.14730  0.25000  0.92990  1.0000
  H   H84       1.0  0.85270  0.75000  0.07010  1.0000
  C   C65       1.0  0.27640  0.12540  0.98740  1.0000
  C   C66       1.0  0.72360  0.87460  0.01260  1.0000
  H   H85       1.0  0.31760  0.11510  0.93600  1.0000
  H   H86       1.0  0.68240  0.88490  0.06400  1.0000
  H   H87       1.0  0.24350  0.07680  0.00720  1.0000
  H   H88       1.0  0.75650  0.92320  0.99280  1.0000
  C   C67       1.0  0.34870  0.09590  0.05470  1.0000
  C   C68       1.0  0.65130  0.90410  0.94530  1.0000
  H   H89       1.0  0.39000  0.01690  0.07280  1.0000
  H   H90       1.0  0.61000  0.98310  0.92720  1.0000
  C   C69       1.0  0.42350  0.14580  0.02070  1.0000
  C   C70       1.0  0.57650  0.85420  0.97930  1.0000
  C   C71       1.0  0.88310  0.43710  0.97400  1.0000
  C   C72       1.0  0.11690  0.56290  0.02600  1.0000
  C   C73       1.0  0.86830  0.40660  0.84880  1.0000
  C   C74       1.0  0.13170  0.59340  0.15120  1.0000
  H   H91       1.0  0.83970  0.35480  0.86410  1.0000
  H   H92       1.0  0.16030  0.64520  0.13590  1.0000
  H   H93       1.0  0.94350  0.36650  0.85140  1.0000
  H   H94       1.0  0.05650  0.63350  0.14860  1.0000
  C   C75       1.0  0.84020  0.48230  0.76040  1.0000
  C   C76       1.0  0.15980  0.51770  0.23960  1.0000
  H   H95       1.0  0.87570  0.52830  0.74290  1.0000
  H   H96       1.0  0.12430  0.47170  0.25710  1.0000
  H   H97       1.0  0.86380  0.44030  0.72220  1.0000
  H   H98       1.0  0.13620  0.55970  0.27780  1.0000
  C   C77       1.0  0.72550  0.55170  0.75420  1.0000
  C   C78       1.0  0.27450  0.44830  0.24580  1.0000
  H   H99       1.0  0.69250  0.50240  0.77280  1.0000
  H   H100      1.0  0.30750  0.49760  0.22720  1.0000
  C   C79       1.0  0.69460  0.62260  0.66320  1.0000
  C   C80       1.0  0.30540  0.37740  0.33680  1.0000
  C   C81       1.0  0.68660  0.61560  0.81690  1.0000
  C   C82       1.0  0.31340  0.38440  0.18310  1.0000
  H   H101      1.0  0.71720  0.66580  0.80080  1.0000
  H   H102      1.0  0.28280  0.33420  0.19920  1.0000
  H   H103      1.0  0.61150  0.65730  0.81530  1.0000
  H   H104      1.0  0.38850  0.34270  0.18470  1.0000
  C   C83       1.0  0.71620  0.53820  0.90470  1.0000
  C   C84       1.0  0.28380  0.46180  0.09530  1.0000
  H   H105      1.0  0.69590  0.57910  0.94330  1.0000
  H   H106      1.0  0.30410  0.42090  0.05670  1.0000
  H   H107      1.0  0.67850  0.49410  0.92290  1.0000
  H   H108      1.0  0.32150  0.50590  0.07710  1.0000
