data_image0
_chemical_formula_structural       Co8O36C6H2C2H2C6H2C4H2C4H2C2H2C6H4C2H4C2H4C6H2C2H2C6H2C4H2C2H2C4H2C10H2C2H2C6H2C4H2C2H2C4H2C6H4C2H4C2H4C6H2C6H2C2H2C4H2C4H2C2H2C4N8H4
_chemical_formula_sum              "Co8 O36 C124 H76 N8"
_cell_length_a       14.921
_cell_length_b       15.306
_cell_length_c       19.697
_cell_angle_alpha    92.83
_cell_angle_beta     108.71
_cell_angle_gamma    116.58

_space_group_name_H-M_alt    "P 1"
_space_group_IT_number       1

loop_
  _space_group_symop_operation_xyz
  'x, y, z'

loop_
  _atom_site_type_symbol
  _atom_site_label
  _atom_site_symmetry_multiplicity
  _atom_site_fract_x
  _atom_site_fract_y
  _atom_site_fract_z
  _atom_site_occupancy
  Co  Co1       1.0  0.05116  0.43501  0.37506  1.0000
  Co  Co2       1.0  0.94884  0.56499  0.62494  1.0000
  Co  Co3       1.0  0.87961  0.47287  0.45689  1.0000
  Co  Co4       1.0  0.12039  0.52713  0.54311  1.0000
  Co  Co5       1.0  0.02563  0.01076  0.93018  1.0000
  Co  Co6       1.0  0.97437  0.98924  0.06982  1.0000
  Co  Co7       1.0  0.21294  0.19093  0.08272  1.0000
  Co  Co8       1.0  0.78706  0.80907  0.91728  1.0000
  O   O1        1.0  0.04220  0.35200  0.27780  1.0000
  O   O2        1.0  0.95780  0.64800  0.72220  1.0000
  O   O3        1.0  0.98300  0.46000  0.26630  1.0000
  O   O4        1.0  0.01700  0.54000  0.73370  1.0000
  O   O5        1.0  0.80970  0.69170  0.98040  1.0000
  O   O6        1.0  0.19030  0.30830  0.01960  1.0000
  O   O7        1.0  0.76660  0.67470  0.86220  1.0000
  O   O8        1.0  0.23340  0.32530  0.13780  1.0000
  O   O9        1.0  0.30710  0.17790  0.03580  1.0000
  O   O10       1.0  0.69290  0.82210  0.96420  1.0000
  O   O11       1.0  0.17740  0.01930  0.98140  1.0000
  O   O12       1.0  0.82260  0.98070  0.01860  1.0000
  O   O13       1.0  0.21220  0.62530  0.63740  1.0000
  O   O14       1.0  0.78780  0.37470  0.36260  1.0000
  O   O15       1.0  0.10260  0.68700  0.64530  1.0000
  O   O16       1.0  0.89740  0.31300  0.35470  1.0000
  O   O17       1.0  0.00760  0.92700  0.83340  1.0000
  O   O18       1.0  0.99240  0.07300  0.16660  1.0000
  O   O19       1.0  0.08790  0.09240  0.85240  1.0000
  O   O20       1.0  0.91210  0.90760  0.14760  1.0000
  O   O21       1.0  0.10870  0.39070  0.54920  1.0000
  O   O22       1.0  0.89130  0.60930  0.45080  1.0000
  O   O23       1.0  0.11870  0.36250  0.44020  1.0000
  O   O24       1.0  0.88130  0.63750  0.55980  1.0000
  O   O25       1.0  0.11440  0.97840  0.12960  1.0000
  O   O26       1.0  0.88560  0.02160  0.87040  1.0000
  O   O27       1.0  0.24960  0.13690  0.17100  1.0000
  O   O28       1.0  0.75040  0.86310  0.82900  1.0000
  O   O29       1.0  0.74480  0.41590  0.48420  1.0000
  O   O30       1.0  0.25520  0.58410  0.51580  1.0000
  O   O31       1.0  0.79940  0.43780  0.60780  1.0000
  O   O32       1.0  0.20060  0.56220  0.39220  1.0000
  O   O33       1.0  0.02400  0.51880  0.44100  1.0000
  O   O34       1.0  0.97600  0.48120  0.55900  1.0000
  O   O35       1.0  0.05400  0.10280  0.02380  1.0000
  O   O36       1.0  0.94600  0.89720  0.97620  1.0000
  C   C1        1.0  0.99660  0.39340  0.23680  1.0000
  C   C2        1.0  0.00340  0.60660  0.76320  1.0000
  C   C3        1.0  0.95700  0.36320  0.15590  1.0000
  C   C4        1.0  0.04300  0.63680  0.84410  1.0000
  C   C5        1.0  0.94640  0.27580  0.12080  1.0000
  C   C6        1.0  0.05360  0.72420  0.87920  1.0000
  H   H1        1.0  0.96540  0.23553  0.14933  1.0000
  H   H2        1.0  0.03460  0.76447  0.85067  1.0000
  C   C7        1.0  0.90820  0.24680  0.04460  1.0000
  C   C8        1.0  0.09180  0.75320  0.95540  1.0000
  H   H3        1.0  0.90146  0.18813  0.02211  1.0000
  H   H4        1.0  0.09854  0.81187  0.97789  1.0000
  C   C9        1.0  0.88080  0.30800  0.00340  1.0000
  C   C10       1.0  0.11920  0.69200  0.99660  1.0000
  C   C11       1.0  0.89010  0.39590  0.03690  1.0000
  C   C12       1.0  0.10990  0.60410  0.96310  1.0000
  C   C13       1.0  0.92790  0.42280  0.11300  1.0000
  C   C14       1.0  0.07210  0.57720  0.88700  1.0000
  H   H5        1.0  0.93383  0.48114  0.13544  1.0000
  H   H6        1.0  0.06617  0.51886  0.86456  1.0000
  C   C15       1.0  0.85330  0.44040  0.97980  1.0000
  C   C16       1.0  0.14670  0.55960  0.02020  1.0000
  C   C17       1.0  0.84220  0.52560  0.97970  1.0000
  C   C18       1.0  0.15780  0.47440  0.02030  1.0000
  H   H7        1.0  0.86127  0.56657  0.02405  1.0000
  H   H8        1.0  0.13873  0.43343  0.97595  1.0000
  C   C19       1.0  0.80320  0.55020  0.91430  1.0000
  C   C20       1.0  0.19680  0.44980  0.08570  1.0000
  C   C21       1.0  0.77370  0.48780  0.84860  1.0000
  C   C22       1.0  0.22630  0.51220  0.15140  1.0000
  H   H9        1.0  0.74596  0.50352  0.80445  1.0000
  H   H10       1.0  0.25404  0.49648  0.19555  1.0000
  C   C23       1.0  0.78450  0.40210  0.84700  1.0000
  C   C24       1.0  0.21550  0.59790  0.15300  1.0000
  H   H11       1.0  0.76520  0.36145  0.80242  1.0000
  H   H12       1.0  0.23480  0.63855  0.19758  1.0000
  C   C25       1.0  0.82410  0.37860  0.91220  1.0000
  C   C26       1.0  0.17590  0.62140  0.08780  1.0000
  C   C27       1.0  0.79190  0.64500  0.91980  1.0000
  C   C28       1.0  0.20810  0.35500  0.08020  1.0000
  C   C29       1.0  0.81130  0.21310  0.87180  1.0000
  C   C30       1.0  0.18870  0.78690  0.12820  1.0000
  H   H13       1.0  0.85012  0.17807  0.89273  1.0000
  H   H14       1.0  0.14988  0.82193  0.10727  1.0000
  H   H15       1.0  0.83145  0.23684  0.83141  1.0000
  H   H16       1.0  0.16855  0.76316  0.16859  1.0000
  C   C31       1.0  0.68870  0.14000  0.84230  1.0000
  C   C32       1.0  0.31130  0.86000  0.15770  1.0000
  H   H17       1.0  0.66719  0.09463  0.79691  1.0000
  H   H18       1.0  0.33281  0.90537  0.20309  1.0000
  H   H19       1.0  0.64948  0.17721  0.83175  1.0000
  H   H20       1.0  0.35052  0.82279  0.16825  1.0000
  C   C33       1.0  0.65990  0.07950  0.89950  1.0000
  C   C34       1.0  0.34010  0.92050  0.10050  1.0000
  H   H21       1.0  0.68601  0.03159  0.90149  1.0000
  H   H22       1.0  0.31399  0.96841  0.09851  1.0000
  H   H23       1.0  0.69706  0.12486  0.94760  1.0000
  H   H24       1.0  0.30294  0.87514  0.05240  1.0000
  C   C35       1.0  0.27110  0.09110  0.99660  1.0000
  C   C36       1.0  0.72890  0.90890  0.00340  1.0000
  C   C37       1.0  0.34760  0.07710  0.96950  1.0000
  C   C38       1.0  0.65240  0.92290  0.03050  1.0000
  C   C39       1.0  0.45870  0.14440  0.00000  1.0000
  C   C40       1.0  0.54130  0.85560  0.00000  1.0000
  H   H25       1.0  0.48458  0.19867  0.03796  1.0000
  H   H26       1.0  0.51542  0.80133  0.96204  1.0000
  C   C41       1.0  0.53160  0.13460  0.97700  1.0000
  C   C42       1.0  0.46840  0.86540  0.02300  1.0000
  H   H27       1.0  0.60573  0.17900  0.99975  1.0000
  H   H28       1.0  0.39427  0.82100  0.00025  1.0000
  C   C43       1.0  0.48910  0.05380  0.91680  1.0000
  C   C44       1.0  0.51090  0.94620  0.08320  1.0000
  C   C45       1.0  0.37620  0.98440  0.88490  1.0000
  C   C46       1.0  0.62380  0.01560  0.11510  1.0000
  C   C47       1.0  0.30520  0.99520  0.91160  1.0000
  C   C48       1.0  0.69480  0.00480  0.08840  1.0000
  H   H29       1.0  0.23136  0.94916  0.89146  1.0000
  H   H30       1.0  0.76864  0.05084  0.10854  1.0000
  C   C49       1.0  0.46650  0.94080  0.82680  1.0000
  C   C50       1.0  0.53350  0.05920  0.17320  1.0000
  C   C51       1.0  0.48510  0.88850  0.77730  1.0000
  C   C52       1.0  0.51490  0.11150  0.22270  1.0000
  H   H31       1.0  0.55474  0.90707  0.77969  1.0000
  H   H32       1.0  0.44526  0.09293  0.22031  1.0000
  C   C53       1.0  0.39630  0.80940  0.72600  1.0000
  C   C54       1.0  0.60370  0.19060  0.27400  1.0000
  H   H33       1.0  0.40532  0.77323  0.69188  1.0000
  H   H34       1.0  0.59468  0.22677  0.30812  1.0000
  C   C55       1.0  0.29030  0.77990  0.72220  1.0000
  C   C56       1.0  0.70970  0.22010  0.27780  1.0000
  C   C57       1.0  0.27350  0.83200  0.77290  1.0000
  C   C58       1.0  0.72650  0.16800  0.22710  1.0000
  H   H35       1.0  0.20384  0.81255  0.77082  1.0000
  H   H36       1.0  0.79616  0.18745  0.22918  1.0000
  C   C59       1.0  0.36350  0.91380  0.82650  1.0000
  C   C60       1.0  0.63650  0.08620  0.17350  1.0000
  C   C61       1.0  0.19350  0.69310  0.66320  1.0000
  C   C62       1.0  0.80650  0.30690  0.33680  1.0000
  C   C63       1.0  0.05500  0.00680  0.81260  1.0000
  C   C64       1.0  0.94500  0.99320  0.18740  1.0000
  C   C65       1.0  0.07320  0.99970  0.74410  1.0000
  C   C66       1.0  0.92680  0.00030  0.25590  1.0000
  C   C67       1.0  0.07760  0.91660  0.71780  1.0000
  C   C68       1.0  0.92240  0.08340  0.28220  1.0000
  H   H37       1.0  0.06420  0.86501  0.74276  1.0000
  H   H38       1.0  0.93580  0.13499  0.25724  1.0000
  C   C69       1.0  0.10050  0.90700  0.65710  1.0000
  C   C70       1.0  0.89950  0.09300  0.34290  1.0000
  H   H39       1.0  0.10477  0.85146  0.64077  1.0000
  H   H40       1.0  0.89523  0.14854  0.35923  1.0000
  C   C71       1.0  0.11720  0.98540  0.62110  1.0000
  C   C72       1.0  0.88280  0.01460  0.37890  1.0000
  C   C73       1.0  0.11050  0.06920  0.64400  1.0000
  C   C74       1.0  0.88950  0.93080  0.35600  1.0000
  C   C75       1.0  0.08970  0.07770  0.70670  1.0000
  C   C76       1.0  0.91030  0.92230  0.29330  1.0000
  H   H41       1.0  0.08655  0.13361  0.72365  1.0000
  H   H42       1.0  0.91345  0.86639  0.27635  1.0000
  C   C77       1.0  0.14270  0.07970  0.53750  1.0000
  C   C78       1.0  0.85730  0.92030  0.46250  1.0000
  C   C79       1.0  0.15960  0.11700  0.47810  1.0000
  C   C80       1.0  0.84040  0.88300  0.52190  1.0000
  H   H43       1.0  0.17646  0.08647  0.44580  1.0000
  H   H44       1.0  0.82354  0.91353  0.55420  1.0000
  C   C81       1.0  0.15060  0.20170  0.46860  1.0000
  C   C82       1.0  0.84940  0.79830  0.53140  1.0000
  H   H45       1.0  0.15624  0.22519  0.42673  1.0000
  H   H46       1.0  0.84376  0.77481  0.57327  1.0000
  C   C83       1.0  0.13350  0.25380  0.51840  1.0000
  C   C84       1.0  0.86650  0.74620  0.48160  1.0000
  C   C85       1.0  0.11950  0.21670  0.57990  1.0000
  C   C86       1.0  0.88050  0.78330  0.42010  1.0000
  H   H47       1.0  0.10676  0.24971  0.61357  1.0000
  H   H48       1.0  0.89324  0.75029  0.38643  1.0000
  C   C87       1.0  0.12510  0.13070  0.58980  1.0000
  C   C88       1.0  0.87490  0.86930  0.41020  1.0000
  C   C89       1.0  0.11950  0.34230  0.50170  1.0000
  C   C90       1.0  0.88050  0.65770  0.49830  1.0000
  C   C91       1.0  0.16390  0.92860  0.52160  1.0000
  C   C92       1.0  0.83610  0.07140  0.47840  1.0000
  H   H49       1.0  0.15358  0.93528  0.47138  1.0000
  H   H50       1.0  0.84642  0.06472  0.52862  1.0000
  H   H51       1.0  0.11484  0.85965  0.52009  1.0000
  H   H52       1.0  0.88516  0.14035  0.47991  1.0000
  C   C93       1.0  0.28050  0.95220  0.56310  1.0000
  C   C94       1.0  0.71950  0.04780  0.43690  1.0000
  H   H53       1.0  0.28175  0.91266  0.60007  1.0000
  H   H54       1.0  0.71825  0.08734  0.39993  1.0000
  H   H55       1.0  0.32368  0.02238  0.58848  1.0000
  H   H56       1.0  0.67632  0.97762  0.41152  1.0000
  C   C95       1.0  0.33250  0.93100  0.51380  1.0000
  C   C96       1.0  0.66750  0.06900  0.48620  1.0000
  H   H57       1.0  0.39695  0.92901  0.54391  1.0000
  H   H58       1.0  0.60305  0.07099  0.45609  1.0000
  H   H59       1.0  0.28208  0.86583  0.48029  1.0000
  H   H60       1.0  0.71792  0.13417  0.51971  1.0000
  C   C97       1.0  0.19800  0.04770  0.17940  1.0000
  C   C98       1.0  0.80200  0.95230  0.82060  1.0000
  C   C99       1.0  0.24050  0.03080  0.25460  1.0000
  C   C100      1.0  0.75950  0.96920  0.74540  1.0000
  C   C101      1.0  0.33410  0.10530  0.30860  1.0000
  C   C102      1.0  0.66590  0.89470  0.69140  1.0000
  H   H61       1.0  0.37334  0.16572  0.29746  1.0000
  H   H62       1.0  0.62666  0.83428  0.70254  1.0000
  C   C103      1.0  0.37140  0.09260  0.37940  1.0000
  C   C104      1.0  0.62860  0.90740  0.62060  1.0000
  C   C105      1.0  0.31170  0.00210  0.39740  1.0000
  C   C106      1.0  0.68830  0.99790  0.60260  1.0000
  C   C107      1.0  0.21600  0.92440  0.34280  1.0000
  C   C108      1.0  0.78400  0.07560  0.65720  1.0000
  H   H63       1.0  0.17669  0.86379  0.35374  1.0000
  H   H64       1.0  0.82331  0.13621  0.64626  1.0000
  C   C109      1.0  0.18130  0.93960  0.27270  1.0000
  C   C110      1.0  0.81870  0.06040  0.72730  1.0000
  H   H65       1.0  0.11762  0.88878  0.23659  1.0000
  H   H66       1.0  0.88238  0.11122  0.76341  1.0000
  C   C111      1.0  0.46370  0.15620  0.44580  1.0000
  C   C112      1.0  0.53630  0.84380  0.55420  1.0000
  C   C113      1.0  0.55400  0.24870  0.46080  1.0000
  C   C114      1.0  0.44600  0.75130  0.53920  1.0000
  H   H67       1.0  0.56133  0.28306  0.42351  1.0000
  H   H68       1.0  0.43867  0.71694  0.57649  1.0000
  C   C115      1.0  0.63320  0.29030  0.53070  1.0000
  C   C116      1.0  0.36680  0.70970  0.46930  1.0000
  C   C117      1.0  0.62300  0.23840  0.58670  1.0000
  C   C118      1.0  0.37700  0.76160  0.41330  1.0000
  H   H69       1.0  0.67659  0.26760  0.63387  1.0000
  H   H70       1.0  0.32341  0.73240  0.36613  1.0000
  C   C119      1.0  0.53380  0.14330  0.57310  1.0000
  C   C120      1.0  0.46620  0.85670  0.42690  1.0000
  H   H71       1.0  0.52693  0.10856  0.61023  1.0000
  H   H72       1.0  0.47307  0.89144  0.38977  1.0000
  C   C121      1.0  0.45580  0.10300  0.50160  1.0000
  C   C122      1.0  0.54420  0.89700  0.49840  1.0000
  C   C123      1.0  0.73360  0.38870  0.54370  1.0000
  C   C124      1.0  0.26640  0.61130  0.45630  1.0000
  N   N1        1.0  0.84310  0.29880  0.92780  1.0000
  N   N2        1.0  0.15690  0.70120  0.07220  1.0000
  N   N3        1.0  0.54350  0.02580  0.88320  1.0000
  N   N4        1.0  0.45650  0.97420  0.11680  1.0000
  N   N5        1.0  0.13810  0.99390  0.55560  1.0000
  N   N6        1.0  0.86190  0.00610  0.44440  1.0000
  N   N7        1.0  0.36220  0.00840  0.47080  1.0000
  N   N8        1.0  0.63780  0.99160  0.52920  1.0000
  H   H73       1.0  0.02500  0.13000  0.00200  1.0000
  H   H74       1.0  0.97500  0.87000  0.99800  1.0000
  H   H75       1.0  0.04900  0.57000  0.43600  1.0000
  H   H76       1.0  0.95100  0.43000  0.56400  1.0000
