data_image0
_chemical_formula_structural       Cd12O64C24H8C8H8C8H8C8H8C32H8C16H8C8H8C8H8C16
_chemical_formula_sum              "Cd12 O64 C128 H64"
_cell_length_a       13.686
_cell_length_b       18.252
_cell_length_c       14.906
_cell_angle_alpha    90
_cell_angle_beta     101.07
_cell_angle_gamma    90

_space_group_name_H-M_alt    "P 1"
_space_group_IT_number       1

loop_
  _space_group_symop_operation_xyz
  'x, y, z'

loop_
  _atom_site_type_symbol
  _atom_site_label
  _atom_site_symmetry_multiplicity
  _atom_site_fract_x
  _atom_site_fract_y
  _atom_site_fract_z
  _atom_site_occupancy
  Cd  Cd1       1.0  0.65877  0.79047  0.57456  1.0000
  Cd  Cd2       1.0  0.15877  0.29047  0.57456  1.0000
  Cd  Cd3       1.0  0.34123  0.79047  0.92544  1.0000
  Cd  Cd4       1.0  0.84123  0.29047  0.92544  1.0000
  Cd  Cd5       1.0  0.34123  0.20953  0.42544  1.0000
  Cd  Cd6       1.0  0.84123  0.70953  0.42544  1.0000
  Cd  Cd7       1.0  0.65877  0.20953  0.07456  1.0000
  Cd  Cd8       1.0  0.15877  0.70953  0.07456  1.0000
  Cd  Cd9       1.0  0.50000  0.17252  0.25000  1.0000
  Cd  Cd10      1.0  0.00000  0.67252  0.25000  1.0000
  Cd  Cd11      1.0  0.50000  0.82748  0.75000  1.0000
  Cd  Cd12      1.0  0.00000  0.32748  0.75000  1.0000
  O   O1        1.0  0.80129  0.82130  0.49927  1.0000
  O   O2        1.0  0.30129  0.32130  0.49927  1.0000
  O   O3        1.0  0.19871  0.82130  0.00073  1.0000
  O   O4        1.0  0.69871  0.32130  0.00073  1.0000
  O   O5        1.0  0.19871  0.17870  0.50073  1.0000
  O   O6        1.0  0.69871  0.67870  0.50073  1.0000
  O   O7        1.0  0.80129  0.17870  0.99927  1.0000
  O   O8        1.0  0.30129  0.67870  0.99927  1.0000
  O   O9        1.0  0.65773  0.87914  0.46233  1.0000
  O   O10       1.0  0.15773  0.37914  0.46233  1.0000
  O   O11       1.0  0.34227  0.87914  0.03767  1.0000
  O   O12       1.0  0.84227  0.37914  0.03767  1.0000
  O   O13       1.0  0.34227  0.12086  0.53767  1.0000
  O   O14       1.0  0.84227  0.62086  0.53767  1.0000
  O   O15       1.0  0.65773  0.12086  0.96233  1.0000
  O   O16       1.0  0.15773  0.62086  0.96233  1.0000
  O   O17       1.0  0.50311  0.23507  0.98676  1.0000
  O   O18       1.0  0.00311  0.73507  0.98676  1.0000
  O   O19       1.0  0.49689  0.23507  0.51324  1.0000
  O   O20       1.0  0.99689  0.73507  0.51324  1.0000
  O   O21       1.0  0.49689  0.76493  0.01324  1.0000
  O   O22       1.0  0.99689  0.26493  0.01324  1.0000
  O   O23       1.0  0.50311  0.76493  0.48676  1.0000
  O   O24       1.0  0.00311  0.26493  0.48676  1.0000
  O   O25       1.0  0.48083  0.15527  0.09250  1.0000
  O   O26       1.0  0.98083  0.65527  0.09250  1.0000
  O   O27       1.0  0.51917  0.15527  0.40750  1.0000
  O   O28       1.0  0.01917  0.65527  0.40750  1.0000
  O   O29       1.0  0.51917  0.84473  0.90750  1.0000
  O   O30       1.0  0.01917  0.34473  0.90750  1.0000
  O   O31       1.0  0.48083  0.84473  0.59250  1.0000
  O   O32       1.0  0.98083  0.34473  0.59250  1.0000
  O   O33       1.0  0.61999  0.09049  0.26465  1.0000
  O   O34       1.0  0.11999  0.59049  0.26465  1.0000
  O   O35       1.0  0.38001  0.09049  0.23535  1.0000
  O   O36       1.0  0.88001  0.59049  0.23535  1.0000
  O   O37       1.0  0.38001  0.90951  0.73535  1.0000
  O   O38       1.0  0.88001  0.40951  0.73535  1.0000
  O   O39       1.0  0.61999  0.90951  0.76465  1.0000
  O   O40       1.0  0.11999  0.40951  0.76465  1.0000
  O   O41       1.0  0.72661  0.11252  0.17079  1.0000
  O   O42       1.0  0.22661  0.61252  0.17079  1.0000
  O   O43       1.0  0.27339  0.11252  0.32921  1.0000
  O   O44       1.0  0.77339  0.61252  0.32921  1.0000
  O   O45       1.0  0.27339  0.88748  0.82921  1.0000
  O   O46       1.0  0.77339  0.38748  0.82921  1.0000
  O   O47       1.0  0.72661  0.88748  0.67079  1.0000
  O   O48       1.0  0.22661  0.38748  0.67079  1.0000
  O   O49       1.0  0.09896  0.23726  0.70914  1.0000
  O   O50       1.0  0.59896  0.73726  0.70914  1.0000
  O   O51       1.0  0.90104  0.23726  0.79086  1.0000
  O   O52       1.0  0.40104  0.73726  0.79086  1.0000
  O   O53       1.0  0.90104  0.76274  0.29086  1.0000
  O   O54       1.0  0.40104  0.26274  0.29086  1.0000
  O   O55       1.0  0.09896  0.76274  0.20914  1.0000
  O   O56       1.0  0.59896  0.26274  0.20914  1.0000
  O   O57       1.0  0.25681  0.23101  0.69809  1.0000
  O   O58       1.0  0.75681  0.73101  0.69809  1.0000
  O   O59       1.0  0.74319  0.23101  0.80191  1.0000
  O   O60       1.0  0.24319  0.73101  0.80191  1.0000
  O   O61       1.0  0.74319  0.76899  0.30191  1.0000
  O   O62       1.0  0.24319  0.26899  0.30191  1.0000
  O   O63       1.0  0.25681  0.76899  0.19809  1.0000
  O   O64       1.0  0.75681  0.26899  0.19809  1.0000
  C   C1        1.0  0.74800  0.87126  0.45668  1.0000
  C   C2        1.0  0.24800  0.37126  0.45668  1.0000
  C   C3        1.0  0.25200  0.87126  0.04332  1.0000
  C   C4        1.0  0.75200  0.37126  0.04332  1.0000
  C   C5        1.0  0.25200  0.12874  0.54332  1.0000
  C   C6        1.0  0.75200  0.62874  0.54332  1.0000
  C   C7        1.0  0.74800  0.12874  0.95668  1.0000
  C   C8        1.0  0.24800  0.62874  0.95668  1.0000
  C   C9        1.0  0.79200  0.92442  0.39850  1.0000
  C   C10       1.0  0.29200  0.42442  0.39850  1.0000
  C   C11       1.0  0.20800  0.92442  0.10150  1.0000
  C   C12       1.0  0.70800  0.42442  0.10150  1.0000
  C   C13       1.0  0.20800  0.07558  0.60150  1.0000
  C   C14       1.0  0.70800  0.57558  0.60150  1.0000
  C   C15       1.0  0.79200  0.07558  0.89850  1.0000
  C   C16       1.0  0.29200  0.57558  0.89850  1.0000
  C   C17       1.0  0.89310  0.92445  0.39800  1.0000
  C   C18       1.0  0.39310  0.42445  0.39800  1.0000
  C   C19       1.0  0.10690  0.92445  0.10200  1.0000
  C   C20       1.0  0.60690  0.42445  0.10200  1.0000
  C   C21       1.0  0.10690  0.07555  0.60200  1.0000
  C   C22       1.0  0.60690  0.57555  0.60200  1.0000
  C   C23       1.0  0.89310  0.07555  0.89800  1.0000
  C   C24       1.0  0.39310  0.57555  0.89800  1.0000
  H   H1        1.0  0.93600  0.89100  0.43550  1.0000
  H   H2        1.0  0.43600  0.39100  0.43550  1.0000
  H   H3        1.0  0.06400  0.89100  0.06450  1.0000
  H   H4        1.0  0.56400  0.39100  0.06450  1.0000
  H   H5        1.0  0.06400  0.10900  0.56450  1.0000
  H   H6        1.0  0.56400  0.60900  0.56450  1.0000
  H   H7        1.0  0.93600  0.10900  0.93550  1.0000
  H   H8        1.0  0.43600  0.60900  0.93550  1.0000
  C   C25       1.0  0.73050  0.97477  0.34480  1.0000
  C   C26       1.0  0.23050  0.47477  0.34480  1.0000
  C   C27       1.0  0.26950  0.97477  0.15520  1.0000
  C   C28       1.0  0.76950  0.47477  0.15520  1.0000
  C   C29       1.0  0.26950  0.02523  0.65520  1.0000
  C   C30       1.0  0.76950  0.52523  0.65520  1.0000
  C   C31       1.0  0.73050  0.02523  0.84480  1.0000
  C   C32       1.0  0.23050  0.52523  0.84480  1.0000
  H   H9        1.0  0.66140  0.97540  0.34610  1.0000
  H   H10       1.0  0.16140  0.47540  0.34610  1.0000
  H   H11       1.0  0.33860  0.97540  0.15390  1.0000
  H   H12       1.0  0.83860  0.47540  0.15390  1.0000
  H   H13       1.0  0.33860  0.02460  0.65390  1.0000
  H   H14       1.0  0.83860  0.52460  0.65390  1.0000
  H   H15       1.0  0.66140  0.02460  0.84610  1.0000
  H   H16       1.0  0.16140  0.52460  0.84610  1.0000
  C   C33       1.0  0.93180  0.97341  0.34260  1.0000
  C   C34       1.0  0.43180  0.47341  0.34260  1.0000
  C   C35       1.0  0.06820  0.97341  0.15740  1.0000
  C   C36       1.0  0.56820  0.47341  0.15740  1.0000
  C   C37       1.0  0.06820  0.02659  0.65740  1.0000
  C   C38       1.0  0.56820  0.52659  0.65740  1.0000
  C   C39       1.0  0.93180  0.02659  0.84260  1.0000
  C   C40       1.0  0.43180  0.52659  0.84260  1.0000
  H   H17       1.0  0.00110  0.97330  0.34210  1.0000
  H   H18       1.0  0.50110  0.47330  0.34210  1.0000
  H   H19       1.0  0.99890  0.97330  0.15790  1.0000
  H   H20       1.0  0.49890  0.47330  0.15790  1.0000
  H   H21       1.0  0.99890  0.02670  0.65790  1.0000
  H   H22       1.0  0.49890  0.52670  0.65790  1.0000
  H   H23       1.0  0.00110  0.02670  0.84210  1.0000
  H   H24       1.0  0.50110  0.52670  0.84210  1.0000
  C   C41       1.0  0.86930  0.02260  0.28800  1.0000
  C   C42       1.0  0.36930  0.52260  0.28800  1.0000
  C   C43       1.0  0.13070  0.02260  0.21200  1.0000
  C   C44       1.0  0.63070  0.52260  0.21200  1.0000
  C   C45       1.0  0.13070  0.97740  0.71200  1.0000
  C   C46       1.0  0.63070  0.47740  0.71200  1.0000
  C   C47       1.0  0.86930  0.97740  0.78800  1.0000
  C   C48       1.0  0.36930  0.47740  0.78800  1.0000
  H   H25       1.0  0.89600  0.05540  0.24950  1.0000
  H   H26       1.0  0.39600  0.55540  0.24950  1.0000
  H   H27       1.0  0.10400  0.05540  0.25050  1.0000
  H   H28       1.0  0.60400  0.55540  0.25050  1.0000
  H   H29       1.0  0.10400  0.94460  0.75050  1.0000
  H   H30       1.0  0.60400  0.44460  0.75050  1.0000
  H   H31       1.0  0.89600  0.94460  0.74950  1.0000
  H   H32       1.0  0.39600  0.44460  0.74950  1.0000
  C   C49       1.0  0.76850  0.02419  0.28927  1.0000
  C   C50       1.0  0.26850  0.52419  0.28927  1.0000
  C   C51       1.0  0.23150  0.02419  0.21073  1.0000
  C   C52       1.0  0.73150  0.52419  0.21073  1.0000
  C   C53       1.0  0.23150  0.97581  0.71073  1.0000
  C   C54       1.0  0.73150  0.47581  0.71073  1.0000
  C   C55       1.0  0.76850  0.97581  0.78927  1.0000
  C   C56       1.0  0.26850  0.47581  0.78927  1.0000
  C   C57       1.0  0.69990  0.08083  0.23579  1.0000
  C   C58       1.0  0.19990  0.58083  0.23579  1.0000
  C   C59       1.0  0.30010  0.08083  0.26421  1.0000
  C   C60       1.0  0.80010  0.58083  0.26421  1.0000
  C   C61       1.0  0.30010  0.91917  0.76421  1.0000
  C   C62       1.0  0.80010  0.41917  0.76421  1.0000
  C   C63       1.0  0.69990  0.91917  0.73579  1.0000
  C   C64       1.0  0.19990  0.41917  0.73579  1.0000
  C   C65       1.0  0.44860  0.19303  0.02180  1.0000
  C   C66       1.0  0.94860  0.69303  0.02180  1.0000
  C   C67       1.0  0.55140  0.19303  0.47820  1.0000
  C   C68       1.0  0.05140  0.69303  0.47820  1.0000
  C   C69       1.0  0.55140  0.80697  0.97820  1.0000
  C   C70       1.0  0.05140  0.30697  0.97820  1.0000
  C   C71       1.0  0.44860  0.80697  0.52180  1.0000
  C   C72       1.0  0.94860  0.30697  0.52180  1.0000
  C   C73       1.0  0.27570  0.14253  0.01550  1.0000
  C   C74       1.0  0.77570  0.64253  0.01550  1.0000
  C   C75       1.0  0.72430  0.14253  0.48450  1.0000
  C   C76       1.0  0.22430  0.64253  0.48450  1.0000
  C   C77       1.0  0.72430  0.85747  0.98450  1.0000
  C   C78       1.0  0.22430  0.35747  0.98450  1.0000
  C   C79       1.0  0.27570  0.85747  0.51550  1.0000
  C   C80       1.0  0.77570  0.35747  0.51550  1.0000
  H   H33       1.0  0.29640  0.12320  0.07530  1.0000
  H   H34       1.0  0.79640  0.62320  0.07530  1.0000
  H   H35       1.0  0.70360  0.12320  0.42470  1.0000
  H   H36       1.0  0.20360  0.62320  0.42470  1.0000
  H   H37       1.0  0.70360  0.87680  0.92470  1.0000
  H   H38       1.0  0.20360  0.37680  0.92470  1.0000
  H   H39       1.0  0.29640  0.87680  0.57530  1.0000
  H   H40       1.0  0.79640  0.37680  0.57530  1.0000
  C   C81       1.0  0.34220  0.18236  0.97496  1.0000
  C   C82       1.0  0.84220  0.68236  0.97496  1.0000
  C   C83       1.0  0.65780  0.18236  0.52504  1.0000
  C   C84       1.0  0.15780  0.68236  0.52504  1.0000
  C   C85       1.0  0.65780  0.81764  0.02504  1.0000
  C   C86       1.0  0.15780  0.31764  0.02504  1.0000
  C   C87       1.0  0.34220  0.81764  0.47496  1.0000
  C   C88       1.0  0.84220  0.31764  0.47496  1.0000
  C   C89       1.0  0.17910  0.13091  0.96880  1.0000
  C   C90       1.0  0.67910  0.63091  0.96880  1.0000
  C   C91       1.0  0.82090  0.13091  0.53120  1.0000
  C   C92       1.0  0.32090  0.63091  0.53120  1.0000
  C   C93       1.0  0.82090  0.86909  0.03120  1.0000
  C   C94       1.0  0.32090  0.36909  0.03120  1.0000
  C   C95       1.0  0.17910  0.86909  0.46880  1.0000
  C   C96       1.0  0.67910  0.36909  0.46880  1.0000
  H   H41       1.0  0.13360  0.10430  0.99720  1.0000
  H   H42       1.0  0.63360  0.60430  0.99720  1.0000
  H   H43       1.0  0.86640  0.10430  0.50280  1.0000
  H   H44       1.0  0.36640  0.60430  0.50280  1.0000
  H   H45       1.0  0.86640  0.89570  0.00280  1.0000
  H   H46       1.0  0.36640  0.39570  0.00280  1.0000
  H   H47       1.0  0.13360  0.89570  0.49720  1.0000
  H   H48       1.0  0.63360  0.39570  0.49720  1.0000
  C   C97       1.0  0.31140  0.20885  0.88720  1.0000
  C   C98       1.0  0.81140  0.70885  0.88720  1.0000
  C   C99       1.0  0.68860  0.20885  0.61280  1.0000
  C   C100      1.0  0.18860  0.70885  0.61280  1.0000
  C   C101      1.0  0.68860  0.79115  0.11280  1.0000
  C   C102      1.0  0.18860  0.29115  0.11280  1.0000
  C   C103      1.0  0.31140  0.79115  0.38720  1.0000
  C   C104      1.0  0.81140  0.29115  0.38720  1.0000
  H   H49       1.0  0.35650  0.23630  0.85940  1.0000
  H   H50       1.0  0.85650  0.73630  0.85940  1.0000
  H   H51       1.0  0.64350  0.23630  0.64060  1.0000
  H   H52       1.0  0.14350  0.73630  0.64060  1.0000
  H   H53       1.0  0.64350  0.76370  0.14060  1.0000
  H   H54       1.0  0.14350  0.26370  0.14060  1.0000
  H   H55       1.0  0.35650  0.76370  0.35940  1.0000
  H   H56       1.0  0.85650  0.26370  0.35940  1.0000
  C   C105      1.0  0.14830  0.15783  0.88080  1.0000
  C   C106      1.0  0.64830  0.65783  0.88080  1.0000
  C   C107      1.0  0.85170  0.15783  0.61920  1.0000
  C   C108      1.0  0.35170  0.65783  0.61920  1.0000
  C   C109      1.0  0.85170  0.84217  0.11920  1.0000
  C   C110      1.0  0.35170  0.34217  0.11920  1.0000
  C   C111      1.0  0.14830  0.84217  0.38080  1.0000
  C   C112      1.0  0.64830  0.34217  0.38080  1.0000
  H   H57       1.0  0.08190  0.15040  0.84920  1.0000
  H   H58       1.0  0.58190  0.65040  0.84920  1.0000
  H   H59       1.0  0.91810  0.15040  0.65080  1.0000
  H   H60       1.0  0.41810  0.65040  0.65080  1.0000
  H   H61       1.0  0.91810  0.84960  0.15080  1.0000
  H   H62       1.0  0.41810  0.34960  0.15080  1.0000
  H   H63       1.0  0.08190  0.84960  0.34920  1.0000
  H   H64       1.0  0.58190  0.34960  0.34920  1.0000
  C   C113      1.0  0.21620  0.19608  0.83924  1.0000
  C   C114      1.0  0.71620  0.69608  0.83924  1.0000
  C   C115      1.0  0.78380  0.19608  0.66076  1.0000
  C   C116      1.0  0.28380  0.69608  0.66076  1.0000
  C   C117      1.0  0.78380  0.80392  0.16076  1.0000
  C   C118      1.0  0.28380  0.30392  0.16076  1.0000
  C   C119      1.0  0.21620  0.80392  0.33924  1.0000
  C   C120      1.0  0.71620  0.30392  0.33924  1.0000
  C   C121      1.0  0.18900  0.22306  0.74344  1.0000
  C   C122      1.0  0.68900  0.72306  0.74344  1.0000
  C   C123      1.0  0.81100  0.22306  0.75656  1.0000
  C   C124      1.0  0.31100  0.72306  0.75656  1.0000
  C   C125      1.0  0.81100  0.77694  0.25656  1.0000
  C   C126      1.0  0.31100  0.27694  0.25656  1.0000
  C   C127      1.0  0.18900  0.77694  0.24344  1.0000
  C   C128      1.0  0.68900  0.27694  0.24344  1.0000
