data_image0
_chemical_formula_structural       Cu48N48O168C216H24C48H24C24H24C24H144
_chemical_formula_sum              "Cu48 N48 O168 C312 H216"
_cell_length_a       24.494
_cell_length_b       24.494
_cell_length_c       24.494
_cell_angle_alpha    90
_cell_angle_beta     90
_cell_angle_gamma    90

_space_group_name_H-M_alt    "P 1"
_space_group_IT_number       1

loop_
  _space_group_symop_operation_xyz
  'x, y, z'

loop_
  _atom_site_type_symbol
  _atom_site_label
  _atom_site_symmetry_multiplicity
  _atom_site_fract_x
  _atom_site_fract_y
  _atom_site_fract_z
  _atom_site_occupancy
  Cu  Cu1       1.0  0.20266  0.48410  0.14612  1.0000
  Cu  Cu2       1.0  0.29734  0.51590  0.64612  1.0000
  Cu  Cu3       1.0  0.79734  0.98410  0.35388  1.0000
  Cu  Cu4       1.0  0.70266  0.01590  0.85388  1.0000
  Cu  Cu5       1.0  0.14612  0.20266  0.48410  1.0000
  Cu  Cu6       1.0  0.64612  0.29734  0.51590  1.0000
  Cu  Cu7       1.0  0.35388  0.79734  0.98410  1.0000
  Cu  Cu8       1.0  0.85388  0.70266  0.01590  1.0000
  Cu  Cu9       1.0  0.48410  0.14612  0.20266  1.0000
  Cu  Cu10      1.0  0.51590  0.64612  0.29734  1.0000
  Cu  Cu11      1.0  0.98410  0.35388  0.79734  1.0000
  Cu  Cu12      1.0  0.01590  0.85388  0.70266  1.0000
  Cu  Cu13      1.0  0.79734  0.51590  0.85388  1.0000
  Cu  Cu14      1.0  0.70266  0.48410  0.35388  1.0000
  Cu  Cu15      1.0  0.20266  0.01590  0.64612  1.0000
  Cu  Cu16      1.0  0.29734  0.98410  0.14612  1.0000
  Cu  Cu17      1.0  0.85388  0.79734  0.51590  1.0000
  Cu  Cu18      1.0  0.35388  0.70266  0.48410  1.0000
  Cu  Cu19      1.0  0.64612  0.20266  0.01590  1.0000
  Cu  Cu20      1.0  0.14612  0.29734  0.98410  1.0000
  Cu  Cu21      1.0  0.51590  0.85388  0.79734  1.0000
  Cu  Cu22      1.0  0.48410  0.35388  0.70266  1.0000
  Cu  Cu23      1.0  0.01590  0.64612  0.20266  1.0000
  Cu  Cu24      1.0  0.98410  0.14612  0.29734  1.0000
  Cu  Cu25      1.0  0.21402  0.38305  0.05631  1.0000
  Cu  Cu26      1.0  0.28598  0.61695  0.55631  1.0000
  Cu  Cu27      1.0  0.78598  0.88305  0.44369  1.0000
  Cu  Cu28      1.0  0.71402  0.11695  0.94369  1.0000
  Cu  Cu29      1.0  0.05631  0.21402  0.38305  1.0000
  Cu  Cu30      1.0  0.55631  0.28598  0.61695  1.0000
  Cu  Cu31      1.0  0.44369  0.78598  0.88305  1.0000
  Cu  Cu32      1.0  0.94369  0.71402  0.11695  1.0000
  Cu  Cu33      1.0  0.38305  0.05631  0.21402  1.0000
  Cu  Cu34      1.0  0.61695  0.55631  0.28598  1.0000
  Cu  Cu35      1.0  0.88305  0.44369  0.78598  1.0000
  Cu  Cu36      1.0  0.11695  0.94369  0.71402  1.0000
  Cu  Cu37      1.0  0.78598  0.61695  0.94369  1.0000
  Cu  Cu38      1.0  0.71402  0.38305  0.44369  1.0000
  Cu  Cu39      1.0  0.21402  0.11695  0.55631  1.0000
  Cu  Cu40      1.0  0.28598  0.88305  0.05631  1.0000
  Cu  Cu41      1.0  0.94369  0.78598  0.61695  1.0000
  Cu  Cu42      1.0  0.44369  0.71402  0.38305  1.0000
  Cu  Cu43      1.0  0.55631  0.21402  0.11695  1.0000
  Cu  Cu44      1.0  0.05631  0.28598  0.88305  1.0000
  Cu  Cu45      1.0  0.61695  0.94369  0.78598  1.0000
  Cu  Cu46      1.0  0.38305  0.44369  0.71402  1.0000
  Cu  Cu47      1.0  0.11695  0.55631  0.21402  1.0000
  Cu  Cu48      1.0  0.88305  0.05631  0.28598  1.0000
  N   N1        1.0  0.22397  0.41168  0.17034  1.0000
  N   N2        1.0  0.27603  0.58832  0.67034  1.0000
  N   N3        1.0  0.77603  0.91168  0.32966  1.0000
  N   N4        1.0  0.72397  0.08832  0.82966  1.0000
  N   N5        1.0  0.17034  0.22397  0.41168  1.0000
  N   N6        1.0  0.67034  0.27603  0.58832  1.0000
  N   N7        1.0  0.32966  0.77603  0.91168  1.0000
  N   N8        1.0  0.82966  0.72397  0.08832  1.0000
  N   N9        1.0  0.41168  0.17034  0.22397  1.0000
  N   N10       1.0  0.58832  0.67034  0.27603  1.0000
  N   N11       1.0  0.91168  0.32966  0.77603  1.0000
  N   N12       1.0  0.08832  0.82966  0.72397  1.0000
  N   N13       1.0  0.77603  0.58832  0.82966  1.0000
  N   N14       1.0  0.72397  0.41168  0.32966  1.0000
  N   N15       1.0  0.22397  0.08832  0.67034  1.0000
  N   N16       1.0  0.27603  0.91168  0.17034  1.0000
  N   N17       1.0  0.82966  0.77603  0.58832  1.0000
  N   N18       1.0  0.32966  0.72397  0.41168  1.0000
  N   N19       1.0  0.67034  0.22397  0.08832  1.0000
  N   N20       1.0  0.17034  0.27603  0.91168  1.0000
  N   N21       1.0  0.58832  0.82966  0.77603  1.0000
  N   N22       1.0  0.41168  0.32966  0.72397  1.0000
  N   N23       1.0  0.08832  0.67034  0.22397  1.0000
  N   N24       1.0  0.91168  0.17034  0.27603  1.0000
  N   N25       1.0  0.22575  0.36941  0.13500  1.0000
  N   N26       1.0  0.27425  0.63059  0.63500  1.0000
  N   N27       1.0  0.77425  0.86941  0.36500  1.0000
  N   N28       1.0  0.72575  0.13059  0.86500  1.0000
  N   N29       1.0  0.13500  0.22575  0.36941  1.0000
  N   N30       1.0  0.63500  0.27425  0.63059  1.0000
  N   N31       1.0  0.36500  0.77425  0.86941  1.0000
  N   N32       1.0  0.86500  0.72575  0.13059  1.0000
  N   N33       1.0  0.36941  0.13500  0.22575  1.0000
  N   N34       1.0  0.63059  0.63500  0.27425  1.0000
  N   N35       1.0  0.86941  0.36500  0.77425  1.0000
  N   N36       1.0  0.13059  0.86500  0.72575  1.0000
  N   N37       1.0  0.77425  0.63059  0.86500  1.0000
  N   N38       1.0  0.72575  0.36941  0.36500  1.0000
  N   N39       1.0  0.22575  0.13059  0.63500  1.0000
  N   N40       1.0  0.27425  0.86941  0.13500  1.0000
  N   N41       1.0  0.86500  0.77425  0.63059  1.0000
  N   N42       1.0  0.36500  0.72575  0.36941  1.0000
  N   N43       1.0  0.63500  0.22575  0.13059  1.0000
  N   N44       1.0  0.13500  0.27425  0.86941  1.0000
  N   N45       1.0  0.63059  0.86500  0.77425  1.0000
  N   N46       1.0  0.36941  0.36500  0.72575  1.0000
  N   N47       1.0  0.13059  0.63500  0.22575  1.0000
  N   N48       1.0  0.86941  0.13500  0.27425  1.0000
  O   O1        1.0  0.19413  0.39076  0.97885  1.0000
  O   O2        1.0  0.30587  0.60924  0.47885  1.0000
  O   O3        1.0  0.80587  0.89076  0.52115  1.0000
  O   O4        1.0  0.69413  0.10924  0.02115  1.0000
  O   O5        1.0  0.97885  0.19413  0.39076  1.0000
  O   O6        1.0  0.47885  0.30587  0.60924  1.0000
  O   O7        1.0  0.52115  0.80587  0.89076  1.0000
  O   O8        1.0  0.02115  0.69413  0.10924  1.0000
  O   O9        1.0  0.39076  0.97885  0.19413  1.0000
  O   O10       1.0  0.60924  0.47885  0.30587  1.0000
  O   O11       1.0  0.89076  0.52115  0.80587  1.0000
  O   O12       1.0  0.10924  0.02115  0.69413  1.0000
  O   O13       1.0  0.80587  0.60924  0.02115  1.0000
  O   O14       1.0  0.69413  0.39076  0.52115  1.0000
  O   O15       1.0  0.19413  0.10924  0.47885  1.0000
  O   O16       1.0  0.30587  0.89076  0.97885  1.0000
  O   O17       1.0  0.02115  0.80587  0.60924  1.0000
  O   O18       1.0  0.52115  0.69413  0.39076  1.0000
  O   O19       1.0  0.47885  0.19413  0.10924  1.0000
  O   O20       1.0  0.97885  0.30587  0.89076  1.0000
  O   O21       1.0  0.60924  0.02115  0.80587  1.0000
  O   O22       1.0  0.39076  0.52115  0.69413  1.0000
  O   O23       1.0  0.10924  0.47885  0.19413  1.0000
  O   O24       1.0  0.89076  0.97885  0.30587  1.0000
  O   O25       1.0  0.05523  0.37149  0.82798  1.0000
  O   O26       1.0  0.44477  0.62851  0.32798  1.0000
  O   O27       1.0  0.94477  0.87149  0.67202  1.0000
  O   O28       1.0  0.55523  0.12851  0.17202  1.0000
  O   O29       1.0  0.82798  0.05523  0.37149  1.0000
  O   O30       1.0  0.32798  0.44477  0.62851  1.0000
  O   O31       1.0  0.67202  0.94477  0.87149  1.0000
  O   O32       1.0  0.17202  0.55523  0.12851  1.0000
  O   O33       1.0  0.37149  0.82798  0.05523  1.0000
  O   O34       1.0  0.62851  0.32798  0.44477  1.0000
  O   O35       1.0  0.87149  0.67202  0.94477  1.0000
  O   O36       1.0  0.12851  0.17202  0.55523  1.0000
  O   O37       1.0  0.94477  0.62851  0.17202  1.0000
  O   O38       1.0  0.55523  0.37149  0.67202  1.0000
  O   O39       1.0  0.05523  0.12851  0.32798  1.0000
  O   O40       1.0  0.44477  0.87149  0.82798  1.0000
  O   O41       1.0  0.17202  0.94477  0.62851  1.0000
  O   O42       1.0  0.67202  0.55523  0.37149  1.0000
  O   O43       1.0  0.32798  0.05523  0.12851  1.0000
  O   O44       1.0  0.82798  0.44477  0.87149  1.0000
  O   O45       1.0  0.62851  0.17202  0.94477  1.0000
  O   O46       1.0  0.37149  0.67202  0.55523  1.0000
  O   O47       1.0  0.12851  0.32798  0.05523  1.0000
  O   O48       1.0  0.87149  0.82798  0.44477  1.0000
  O   O49       1.0  0.18256  0.45166  0.07731  1.0000
  O   O50       1.0  0.31744  0.54834  0.57731  1.0000
  O   O51       1.0  0.81744  0.95166  0.42269  1.0000
  O   O52       1.0  0.68256  0.04834  0.92269  1.0000
  O   O53       1.0  0.07731  0.18256  0.45166  1.0000
  O   O54       1.0  0.57731  0.31744  0.54834  1.0000
  O   O55       1.0  0.42269  0.81744  0.95166  1.0000
  O   O56       1.0  0.92269  0.68256  0.04834  1.0000
  O   O57       1.0  0.45166  0.07731  0.18256  1.0000
  O   O58       1.0  0.54834  0.57731  0.31744  1.0000
  O   O59       1.0  0.95166  0.42269  0.81744  1.0000
  O   O60       1.0  0.04834  0.92269  0.68256  1.0000
  O   O61       1.0  0.81744  0.54834  0.92269  1.0000
  O   O62       1.0  0.68256  0.45166  0.42269  1.0000
  O   O63       1.0  0.18256  0.04834  0.57731  1.0000
  O   O64       1.0  0.31744  0.95166  0.07731  1.0000
  O   O65       1.0  0.92269  0.81744  0.54834  1.0000
  O   O66       1.0  0.42269  0.68256  0.45166  1.0000
  O   O67       1.0  0.57731  0.18256  0.04834  1.0000
  O   O68       1.0  0.07731  0.31744  0.95166  1.0000
  O   O69       1.0  0.54834  0.92269  0.81744  1.0000
  O   O70       1.0  0.45166  0.42269  0.68256  1.0000
  O   O71       1.0  0.04834  0.57731  0.18256  1.0000
  O   O72       1.0  0.95166  0.07731  0.31744  1.0000
  O   O73       1.0  0.32260  0.46008  0.76522  1.0000
  O   O74       1.0  0.17740  0.53992  0.26522  1.0000
  O   O75       1.0  0.67740  0.96008  0.73478  1.0000
  O   O76       1.0  0.82260  0.03992  0.23478  1.0000
  O   O77       1.0  0.76522  0.32260  0.46008  1.0000
  O   O78       1.0  0.26522  0.17740  0.53992  1.0000
  O   O79       1.0  0.73478  0.67740  0.96008  1.0000
  O   O80       1.0  0.23478  0.82260  0.03992  1.0000
  O   O81       1.0  0.46008  0.76522  0.32260  1.0000
  O   O82       1.0  0.53992  0.26522  0.17740  1.0000
  O   O83       1.0  0.96008  0.73478  0.67740  1.0000
  O   O84       1.0  0.03992  0.23478  0.82260  1.0000
  O   O85       1.0  0.67740  0.53992  0.23478  1.0000
  O   O86       1.0  0.82260  0.46008  0.73478  1.0000
  O   O87       1.0  0.32260  0.03992  0.26522  1.0000
  O   O88       1.0  0.17740  0.96008  0.76522  1.0000
  O   O89       1.0  0.23478  0.67740  0.53992  1.0000
  O   O90       1.0  0.73478  0.82260  0.46008  1.0000
  O   O91       1.0  0.26522  0.32260  0.03992  1.0000
  O   O92       1.0  0.76522  0.17740  0.96008  1.0000
  O   O93       1.0  0.53992  0.23478  0.67740  1.0000
  O   O94       1.0  0.46008  0.73478  0.82260  1.0000
  O   O95       1.0  0.03992  0.26522  0.32260  1.0000
  O   O96       1.0  0.96008  0.76522  0.17740  1.0000
  O   O97       1.0  0.25486  0.48298  0.70783  1.0000
  O   O98       1.0  0.24514  0.51702  0.20783  1.0000
  O   O99       1.0  0.74514  0.98298  0.79217  1.0000
  O   O100      1.0  0.75486  0.01702  0.29217  1.0000
  O   O101      1.0  0.70783  0.25486  0.48298  1.0000
  O   O102      1.0  0.20783  0.24514  0.51702  1.0000
  O   O103      1.0  0.79217  0.74514  0.98298  1.0000
  O   O104      1.0  0.29217  0.75486  0.01702  1.0000
  O   O105      1.0  0.48298  0.70783  0.25486  1.0000
  O   O106      1.0  0.51702  0.20783  0.24514  1.0000
  O   O107      1.0  0.98298  0.79217  0.74514  1.0000
  O   O108      1.0  0.01702  0.29217  0.75486  1.0000
  O   O109      1.0  0.74514  0.51702  0.29217  1.0000
  O   O110      1.0  0.75486  0.48298  0.79217  1.0000
  O   O111      1.0  0.25486  0.01702  0.20783  1.0000
  O   O112      1.0  0.24514  0.98298  0.70783  1.0000
  O   O113      1.0  0.29217  0.74514  0.51702  1.0000
  O   O114      1.0  0.79217  0.75486  0.48298  1.0000
  O   O115      1.0  0.20783  0.25486  0.01702  1.0000
  O   O116      1.0  0.70783  0.24514  0.98298  1.0000
  O   O117      1.0  0.51702  0.29217  0.74514  1.0000
  O   O118      1.0  0.48298  0.79217  0.75486  1.0000
  O   O119      1.0  0.01702  0.20783  0.25486  1.0000
  O   O120      1.0  0.98298  0.70783  0.24514  1.0000
  O   O121      1.0  0.27609  0.42498  0.95763  1.0000
  O   O122      1.0  0.22391  0.57502  0.45763  1.0000
  O   O123      1.0  0.72391  0.92498  0.54237  1.0000
  O   O124      1.0  0.77609  0.07502  0.04237  1.0000
  O   O125      1.0  0.95763  0.27609  0.42498  1.0000
  O   O126      1.0  0.45763  0.22391  0.57502  1.0000
  O   O127      1.0  0.54237  0.72391  0.92498  1.0000
  O   O128      1.0  0.04237  0.77609  0.07502  1.0000
  O   O129      1.0  0.42498  0.95763  0.27609  1.0000
  O   O130      1.0  0.57502  0.45763  0.22391  1.0000
  O   O131      1.0  0.92498  0.54237  0.72391  1.0000
  O   O132      1.0  0.07502  0.04237  0.77609  1.0000
  O   O133      1.0  0.72391  0.57502  0.04237  1.0000
  O   O134      1.0  0.77609  0.42498  0.54237  1.0000
  O   O135      1.0  0.27609  0.07502  0.45763  1.0000
  O   O136      1.0  0.22391  0.92498  0.95763  1.0000
  O   O137      1.0  0.04237  0.72391  0.57502  1.0000
  O   O138      1.0  0.54237  0.77609  0.42498  1.0000
  O   O139      1.0  0.45763  0.27609  0.07502  1.0000
  O   O140      1.0  0.95763  0.22391  0.92498  1.0000
  O   O141      1.0  0.57502  0.04237  0.72391  1.0000
  O   O142      1.0  0.42498  0.54237  0.77609  1.0000
  O   O143      1.0  0.07502  0.45763  0.27609  1.0000
  O   O144      1.0  0.92498  0.95763  0.22391  1.0000
  O   O145      1.0  0.06857  0.41850  0.75214  1.0000
  O   O146      1.0  0.43143  0.58150  0.25214  1.0000
  O   O147      1.0  0.93143  0.91850  0.74786  1.0000
  O   O148      1.0  0.56857  0.08150  0.24786  1.0000
  O   O149      1.0  0.75214  0.06857  0.41850  1.0000
  O   O150      1.0  0.25214  0.43143  0.58150  1.0000
  O   O151      1.0  0.74786  0.93143  0.91850  1.0000
  O   O152      1.0  0.24786  0.56857  0.08150  1.0000
  O   O153      1.0  0.41850  0.75214  0.06857  1.0000
  O   O154      1.0  0.58150  0.25214  0.43143  1.0000
  O   O155      1.0  0.91850  0.74786  0.93143  1.0000
  O   O156      1.0  0.08150  0.24786  0.56857  1.0000
  O   O157      1.0  0.93143  0.58150  0.24786  1.0000
  O   O158      1.0  0.56857  0.41850  0.74786  1.0000
  O   O159      1.0  0.06857  0.08150  0.25214  1.0000
  O   O160      1.0  0.43143  0.91850  0.75214  1.0000
  O   O161      1.0  0.24786  0.93143  0.58150  1.0000
  O   O162      1.0  0.74786  0.56857  0.41850  1.0000
  O   O163      1.0  0.25214  0.06857  0.08150  1.0000
  O   O164      1.0  0.75214  0.43143  0.91850  1.0000
  O   O165      1.0  0.58150  0.24786  0.93143  1.0000
  O   O166      1.0  0.41850  0.74786  0.56857  1.0000
  O   O167      1.0  0.08150  0.25214  0.06857  1.0000
  O   O168      1.0  0.91850  0.75214  0.43143  1.0000
  C   C1        1.0  0.21007  0.41754  0.88660  1.0000
  C   C2        1.0  0.28993  0.58246  0.38660  1.0000
  C   C3        1.0  0.78993  0.91754  0.61340  1.0000
  C   C4        1.0  0.71007  0.08246  0.11340  1.0000
  C   C5        1.0  0.88660  0.21007  0.41754  1.0000
  C   C6        1.0  0.38660  0.28993  0.58246  1.0000
  C   C7        1.0  0.61340  0.78993  0.91754  1.0000
  C   C8        1.0  0.11340  0.71007  0.08246  1.0000
  C   C9        1.0  0.41754  0.88660  0.21007  1.0000
  C   C10       1.0  0.58246  0.38660  0.28993  1.0000
  C   C11       1.0  0.91754  0.61340  0.78993  1.0000
  C   C12       1.0  0.08246  0.11340  0.71007  1.0000
  C   C13       1.0  0.78993  0.58246  0.11340  1.0000
  C   C14       1.0  0.71007  0.41754  0.61340  1.0000
  C   C15       1.0  0.21007  0.08246  0.38660  1.0000
  C   C16       1.0  0.28993  0.91754  0.88660  1.0000
  C   C17       1.0  0.11340  0.78993  0.58246  1.0000
  C   C18       1.0  0.61340  0.71007  0.41754  1.0000
  C   C19       1.0  0.38660  0.21007  0.08246  1.0000
  C   C20       1.0  0.88660  0.28993  0.91754  1.0000
  C   C21       1.0  0.58246  0.11340  0.78993  1.0000
  C   C22       1.0  0.41754  0.61340  0.71007  1.0000
  C   C23       1.0  0.08246  0.38660  0.21007  1.0000
  C   C24       1.0  0.91754  0.88660  0.28993  1.0000
  C   C25       1.0  0.15677  0.40590  0.87064  1.0000
  C   C26       1.0  0.34323  0.59410  0.37064  1.0000
  C   C27       1.0  0.84323  0.90590  0.62936  1.0000
  C   C28       1.0  0.65677  0.09410  0.12936  1.0000
  C   C29       1.0  0.87064  0.15677  0.40590  1.0000
  C   C30       1.0  0.37064  0.34323  0.59410  1.0000
  C   C31       1.0  0.62936  0.84323  0.90590  1.0000
  C   C32       1.0  0.12936  0.65677  0.09410  1.0000
  C   C33       1.0  0.40590  0.87064  0.15677  1.0000
  C   C34       1.0  0.59410  0.37064  0.34323  1.0000
  C   C35       1.0  0.90590  0.62936  0.84323  1.0000
  C   C36       1.0  0.09410  0.12936  0.65677  1.0000
  C   C37       1.0  0.84323  0.59410  0.12936  1.0000
  C   C38       1.0  0.65677  0.40590  0.62936  1.0000
  C   C39       1.0  0.15677  0.09410  0.37064  1.0000
  C   C40       1.0  0.34323  0.90590  0.87064  1.0000
  C   C41       1.0  0.12936  0.84323  0.59410  1.0000
  C   C42       1.0  0.62936  0.65677  0.40590  1.0000
  C   C43       1.0  0.37064  0.15677  0.09410  1.0000
  C   C44       1.0  0.87064  0.34323  0.90590  1.0000
  C   C45       1.0  0.59410  0.12936  0.84323  1.0000
  C   C46       1.0  0.40590  0.62936  0.65677  1.0000
  C   C47       1.0  0.09410  0.37064  0.15677  1.0000
  C   C48       1.0  0.90590  0.87064  0.34323  1.0000
  C   C49       1.0  0.27274  0.46477  0.75230  1.0000
  C   C50       1.0  0.22726  0.53523  0.25230  1.0000
  C   C51       1.0  0.72726  0.96477  0.74770  1.0000
  C   C52       1.0  0.77274  0.03523  0.24770  1.0000
  C   C53       1.0  0.75230  0.27274  0.46477  1.0000
  C   C54       1.0  0.25230  0.22726  0.53523  1.0000
  C   C55       1.0  0.74770  0.72726  0.96477  1.0000
  C   C56       1.0  0.24770  0.77274  0.03523  1.0000
  C   C57       1.0  0.46477  0.75230  0.27274  1.0000
  C   C58       1.0  0.53523  0.25230  0.22726  1.0000
  C   C59       1.0  0.96477  0.74770  0.72726  1.0000
  C   C60       1.0  0.03523  0.24770  0.77274  1.0000
  C   C61       1.0  0.72726  0.53523  0.24770  1.0000
  C   C62       1.0  0.77274  0.46477  0.74770  1.0000
  C   C63       1.0  0.27274  0.03523  0.25230  1.0000
  C   C64       1.0  0.22726  0.96477  0.75230  1.0000
  C   C65       1.0  0.24770  0.72726  0.53523  1.0000
  C   C66       1.0  0.74770  0.77274  0.46477  1.0000
  C   C67       1.0  0.25230  0.27274  0.03523  1.0000
  C   C68       1.0  0.75230  0.22726  0.96477  1.0000
  C   C69       1.0  0.53523  0.24770  0.72726  1.0000
  C   C70       1.0  0.46477  0.74770  0.77274  1.0000
  C   C71       1.0  0.03523  0.25230  0.27274  1.0000
  C   C72       1.0  0.96477  0.75230  0.22726  1.0000
  C   C73       1.0  0.14101  0.41467  0.81660  1.0000
  C   C74       1.0  0.35899  0.58533  0.31660  1.0000
  C   C75       1.0  0.85899  0.91467  0.68340  1.0000
  C   C76       1.0  0.64101  0.08533  0.18340  1.0000
  C   C77       1.0  0.81660  0.14101  0.41467  1.0000
  C   C78       1.0  0.31660  0.35899  0.58533  1.0000
  C   C79       1.0  0.68340  0.85899  0.91467  1.0000
  C   C80       1.0  0.18340  0.64101  0.08533  1.0000
  C   C81       1.0  0.41467  0.81660  0.14101  1.0000
  C   C82       1.0  0.58533  0.31660  0.35899  1.0000
  C   C83       1.0  0.91467  0.68340  0.85899  1.0000
  C   C84       1.0  0.08533  0.18340  0.64101  1.0000
  C   C85       1.0  0.85899  0.58533  0.18340  1.0000
  C   C86       1.0  0.64101  0.41467  0.68340  1.0000
  C   C87       1.0  0.14101  0.08533  0.31660  1.0000
  C   C88       1.0  0.35899  0.91467  0.81660  1.0000
  C   C89       1.0  0.18340  0.85899  0.58533  1.0000
  C   C90       1.0  0.68340  0.64101  0.41467  1.0000
  C   C91       1.0  0.31660  0.14101  0.08533  1.0000
  C   C92       1.0  0.81660  0.35899  0.91467  1.0000
  C   C93       1.0  0.58533  0.18340  0.85899  1.0000
  C   C94       1.0  0.41467  0.68340  0.64101  1.0000
  C   C95       1.0  0.08533  0.31660  0.14101  1.0000
  C   C96       1.0  0.91467  0.81660  0.35899  1.0000
  C   C97       1.0  0.23157  0.44588  0.79401  1.0000
  C   C98       1.0  0.26843  0.55412  0.29401  1.0000
  C   C99       1.0  0.76843  0.94588  0.70599  1.0000
  C   C100      1.0  0.73157  0.05412  0.20599  1.0000
  C   C101      1.0  0.79401  0.23157  0.44588  1.0000
  C   C102      1.0  0.29401  0.26843  0.55412  1.0000
  C   C103      1.0  0.70599  0.76843  0.94588  1.0000
  C   C104      1.0  0.20599  0.73157  0.05412  1.0000
  C   C105      1.0  0.44588  0.79401  0.23157  1.0000
  C   C106      1.0  0.55412  0.29401  0.26843  1.0000
  C   C107      1.0  0.94588  0.70599  0.76843  1.0000
  C   C108      1.0  0.05412  0.20599  0.73157  1.0000
  C   C109      1.0  0.76843  0.55412  0.20599  1.0000
  C   C110      1.0  0.73157  0.44588  0.70599  1.0000
  C   C111      1.0  0.23157  0.05412  0.29401  1.0000
  C   C112      1.0  0.26843  0.94588  0.79401  1.0000
  C   C113      1.0  0.20599  0.76843  0.55412  1.0000
  C   C114      1.0  0.70599  0.73157  0.44588  1.0000
  C   C115      1.0  0.29401  0.23157  0.05412  1.0000
  C   C116      1.0  0.79401  0.26843  0.94588  1.0000
  C   C117      1.0  0.55412  0.20599  0.76843  1.0000
  C   C118      1.0  0.44588  0.70599  0.73157  1.0000
  C   C119      1.0  0.05412  0.29401  0.23157  1.0000
  C   C120      1.0  0.94588  0.79401  0.26843  1.0000
  C   C121      1.0  0.17841  0.43580  0.77866  1.0000
  C   C122      1.0  0.32159  0.56420  0.27866  1.0000
  C   C123      1.0  0.82159  0.93580  0.72134  1.0000
  C   C124      1.0  0.67841  0.06420  0.22134  1.0000
  C   C125      1.0  0.77866  0.17841  0.43580  1.0000
  C   C126      1.0  0.27866  0.32159  0.56420  1.0000
  C   C127      1.0  0.72134  0.82159  0.93580  1.0000
  C   C128      1.0  0.22134  0.67841  0.06420  1.0000
  C   C129      1.0  0.43580  0.77866  0.17841  1.0000
  C   C130      1.0  0.56420  0.27866  0.32159  1.0000
  C   C131      1.0  0.93580  0.72134  0.82159  1.0000
  C   C132      1.0  0.06420  0.22134  0.67841  1.0000
  C   C133      1.0  0.82159  0.56420  0.22134  1.0000
  C   C134      1.0  0.67841  0.43580  0.72134  1.0000
  C   C135      1.0  0.17841  0.06420  0.27866  1.0000
  C   C136      1.0  0.32159  0.93580  0.77866  1.0000
  C   C137      1.0  0.22134  0.82159  0.56420  1.0000
  C   C138      1.0  0.72134  0.67841  0.43580  1.0000
  C   C139      1.0  0.27866  0.17841  0.06420  1.0000
  C   C140      1.0  0.77866  0.32159  0.93580  1.0000
  C   C141      1.0  0.56420  0.22134  0.82159  1.0000
  C   C142      1.0  0.43580  0.72134  0.67841  1.0000
  C   C143      1.0  0.06420  0.27866  0.17841  1.0000
  C   C144      1.0  0.93580  0.77866  0.32159  1.0000
  C   C145      1.0  0.24760  0.43662  0.84776  1.0000
  C   C146      1.0  0.25240  0.56338  0.34776  1.0000
  C   C147      1.0  0.75240  0.93662  0.65224  1.0000
  C   C148      1.0  0.74760  0.06338  0.15224  1.0000
  C   C149      1.0  0.84776  0.24760  0.43662  1.0000
  C   C150      1.0  0.34776  0.25240  0.56338  1.0000
  C   C151      1.0  0.65224  0.75240  0.93662  1.0000
  C   C152      1.0  0.15224  0.74760  0.06338  1.0000
  C   C153      1.0  0.43662  0.84776  0.24760  1.0000
  C   C154      1.0  0.56338  0.34776  0.25240  1.0000
  C   C155      1.0  0.93662  0.65224  0.75240  1.0000
  C   C156      1.0  0.06338  0.15224  0.74760  1.0000
  C   C157      1.0  0.75240  0.56338  0.15224  1.0000
  C   C158      1.0  0.74760  0.43662  0.65224  1.0000
  C   C159      1.0  0.24760  0.06338  0.34776  1.0000
  C   C160      1.0  0.25240  0.93662  0.84776  1.0000
  C   C161      1.0  0.15224  0.75240  0.56338  1.0000
  C   C162      1.0  0.65224  0.74760  0.43662  1.0000
  C   C163      1.0  0.34776  0.24760  0.06338  1.0000
  C   C164      1.0  0.84776  0.25240  0.93662  1.0000
  C   C165      1.0  0.56338  0.15224  0.75240  1.0000
  C   C166      1.0  0.43662  0.65224  0.74760  1.0000
  C   C167      1.0  0.06338  0.34776  0.24760  1.0000
  C   C168      1.0  0.93662  0.84776  0.25240  1.0000
  C   C169      1.0  0.22918  0.41054  0.94509  1.0000
  C   C170      1.0  0.27082  0.58946  0.44509  1.0000
  C   C171      1.0  0.77082  0.91054  0.55491  1.0000
  C   C172      1.0  0.72918  0.08946  0.05491  1.0000
  C   C173      1.0  0.94509  0.22918  0.41054  1.0000
  C   C174      1.0  0.44509  0.27082  0.58946  1.0000
  C   C175      1.0  0.55491  0.77082  0.91054  1.0000
  C   C176      1.0  0.05491  0.72918  0.08946  1.0000
  C   C177      1.0  0.41054  0.94509  0.22918  1.0000
  C   C178      1.0  0.58946  0.44509  0.27082  1.0000
  C   C179      1.0  0.91054  0.55491  0.77082  1.0000
  C   C180      1.0  0.08946  0.05491  0.72918  1.0000
  C   C181      1.0  0.77082  0.58946  0.05491  1.0000
  C   C182      1.0  0.72918  0.41054  0.55491  1.0000
  C   C183      1.0  0.22918  0.08946  0.44509  1.0000
  C   C184      1.0  0.27082  0.91054  0.94509  1.0000
  C   C185      1.0  0.05491  0.77082  0.58946  1.0000
  C   C186      1.0  0.55491  0.72918  0.41054  1.0000
  C   C187      1.0  0.44509  0.22918  0.08946  1.0000
  C   C188      1.0  0.94509  0.27082  0.91054  1.0000
  C   C189      1.0  0.58946  0.05491  0.77082  1.0000
  C   C190      1.0  0.41054  0.55491  0.72918  1.0000
  C   C191      1.0  0.08946  0.44509  0.22918  1.0000
  C   C192      1.0  0.91054  0.94509  0.27082  1.0000
  C   C193      1.0  0.23030  0.32320  0.16400  1.0000
  C   C194      1.0  0.26970  0.67680  0.66400  1.0000
  C   C195      1.0  0.76970  0.82320  0.33600  1.0000
  C   C196      1.0  0.73030  0.17680  0.83600  1.0000
  C   C197      1.0  0.16400  0.23030  0.32320  1.0000
  C   C198      1.0  0.66400  0.26970  0.67680  1.0000
  C   C199      1.0  0.33600  0.76970  0.82320  1.0000
  C   C200      1.0  0.83600  0.73030  0.17680  1.0000
  C   C201      1.0  0.32320  0.16400  0.23030  1.0000
  C   C202      1.0  0.67680  0.66400  0.26970  1.0000
  C   C203      1.0  0.82320  0.33600  0.76970  1.0000
  C   C204      1.0  0.17680  0.83600  0.73030  1.0000
  C   C205      1.0  0.76970  0.67680  0.83600  1.0000
  C   C206      1.0  0.73030  0.32320  0.33600  1.0000
  C   C207      1.0  0.23030  0.17680  0.66400  1.0000
  C   C208      1.0  0.26970  0.82320  0.16400  1.0000
  C   C209      1.0  0.83600  0.76970  0.67680  1.0000
  C   C210      1.0  0.33600  0.73030  0.32320  1.0000
  C   C211      1.0  0.66400  0.23030  0.17680  1.0000
  C   C212      1.0  0.16400  0.26970  0.82320  1.0000
  C   C213      1.0  0.67680  0.83600  0.76970  1.0000
  C   C214      1.0  0.32320  0.33600  0.73030  1.0000
  C   C215      1.0  0.17680  0.66400  0.23030  1.0000
  C   C216      1.0  0.82320  0.16400  0.26970  1.0000
  H   H1        1.0  0.23230  0.28830  0.14940  1.0000
  H   H2        1.0  0.26770  0.71170  0.64940  1.0000
  H   H3        1.0  0.76770  0.78830  0.35060  1.0000
  H   H4        1.0  0.73230  0.21170  0.85060  1.0000
  H   H5        1.0  0.14940  0.23230  0.28830  1.0000
  H   H6        1.0  0.64940  0.26770  0.71170  1.0000
  H   H7        1.0  0.35060  0.76770  0.78830  1.0000
  H   H8        1.0  0.85060  0.73230  0.21170  1.0000
  H   H9        1.0  0.28830  0.14940  0.23230  1.0000
  H   H10       1.0  0.71170  0.64940  0.26770  1.0000
  H   H11       1.0  0.78830  0.35060  0.76770  1.0000
  H   H12       1.0  0.21170  0.85060  0.73230  1.0000
  H   H13       1.0  0.76770  0.71170  0.85060  1.0000
  H   H14       1.0  0.73230  0.28830  0.35060  1.0000
  H   H15       1.0  0.23230  0.21170  0.64940  1.0000
  H   H16       1.0  0.26770  0.78830  0.14940  1.0000
  H   H17       1.0  0.85060  0.76770  0.71170  1.0000
  H   H18       1.0  0.35060  0.73230  0.28830  1.0000
  H   H19       1.0  0.64940  0.23230  0.21170  1.0000
  H   H20       1.0  0.14940  0.26770  0.78830  1.0000
  H   H21       1.0  0.71170  0.85060  0.76770  1.0000
  H   H22       1.0  0.28830  0.35060  0.73230  1.0000
  H   H23       1.0  0.21170  0.64940  0.23230  1.0000
  H   H24       1.0  0.78830  0.14940  0.26770  1.0000
  C   C217      1.0  0.08406  0.40111  0.79695  1.0000
  C   C218      1.0  0.41594  0.59889  0.29695  1.0000
  C   C219      1.0  0.91594  0.90111  0.70305  1.0000
  C   C220      1.0  0.58406  0.09889  0.20305  1.0000
  C   C221      1.0  0.79695  0.08406  0.40111  1.0000
  C   C222      1.0  0.29695  0.41594  0.59889  1.0000
  C   C223      1.0  0.70305  0.91594  0.90111  1.0000
  C   C224      1.0  0.20305  0.58406  0.09889  1.0000
  C   C225      1.0  0.40111  0.79695  0.08406  1.0000
  C   C226      1.0  0.59889  0.29695  0.41594  1.0000
  C   C227      1.0  0.90111  0.70305  0.91594  1.0000
  C   C228      1.0  0.09889  0.20305  0.58406  1.0000
  C   C229      1.0  0.91594  0.59889  0.20305  1.0000
  C   C230      1.0  0.58406  0.40111  0.70305  1.0000
  C   C231      1.0  0.08406  0.09889  0.29695  1.0000
  C   C232      1.0  0.41594  0.90111  0.79695  1.0000
  C   C233      1.0  0.20305  0.91594  0.59889  1.0000
  C   C234      1.0  0.70305  0.58406  0.40111  1.0000
  C   C235      1.0  0.29695  0.08406  0.09889  1.0000
  C   C236      1.0  0.79695  0.41594  0.90111  1.0000
  C   C237      1.0  0.59889  0.20305  0.91594  1.0000
  C   C238      1.0  0.40111  0.70305  0.58406  1.0000
  C   C239      1.0  0.09889  0.29695  0.08406  1.0000
  C   C240      1.0  0.90111  0.79695  0.41594  1.0000
  C   C241      1.0  0.23130  0.33560  0.21910  1.0000
  C   C242      1.0  0.26870  0.66440  0.71910  1.0000
  C   C243      1.0  0.76870  0.83560  0.28090  1.0000
  C   C244      1.0  0.73130  0.16440  0.78090  1.0000
  C   C245      1.0  0.21910  0.23130  0.33560  1.0000
  C   C246      1.0  0.71910  0.26870  0.66440  1.0000
  C   C247      1.0  0.28090  0.76870  0.83560  1.0000
  C   C248      1.0  0.78090  0.73130  0.16440  1.0000
  C   C249      1.0  0.33560  0.21910  0.23130  1.0000
  C   C250      1.0  0.66440  0.71910  0.26870  1.0000
  C   C251      1.0  0.83560  0.28090  0.76870  1.0000
  C   C252      1.0  0.16440  0.78090  0.73130  1.0000
  C   C253      1.0  0.76870  0.66440  0.78090  1.0000
  C   C254      1.0  0.73130  0.33560  0.28090  1.0000
  C   C255      1.0  0.23130  0.16440  0.71910  1.0000
  C   C256      1.0  0.26870  0.83560  0.21910  1.0000
  C   C257      1.0  0.78090  0.76870  0.66440  1.0000
  C   C258      1.0  0.28090  0.73130  0.33560  1.0000
  C   C259      1.0  0.71910  0.23130  0.16440  1.0000
  C   C260      1.0  0.21910  0.26870  0.83560  1.0000
  C   C261      1.0  0.66440  0.78090  0.76870  1.0000
  C   C262      1.0  0.33560  0.28090  0.73130  1.0000
  C   C263      1.0  0.16440  0.71910  0.23130  1.0000
  C   C264      1.0  0.83560  0.21910  0.26870  1.0000
  H   H25       1.0  0.23410  0.31140  0.24820  1.0000
  H   H26       1.0  0.26590  0.68860  0.74820  1.0000
  H   H27       1.0  0.76590  0.81140  0.25180  1.0000
  H   H28       1.0  0.73410  0.18860  0.75180  1.0000
  H   H29       1.0  0.24820  0.23410  0.31140  1.0000
  H   H30       1.0  0.74820  0.26590  0.68860  1.0000
  H   H31       1.0  0.25180  0.76590  0.81140  1.0000
  H   H32       1.0  0.75180  0.73410  0.18860  1.0000
  H   H33       1.0  0.31140  0.24820  0.23410  1.0000
  H   H34       1.0  0.68860  0.74820  0.26590  1.0000
  H   H35       1.0  0.81140  0.25180  0.76590  1.0000
  H   H36       1.0  0.18860  0.75180  0.73410  1.0000
  H   H37       1.0  0.76590  0.68860  0.75180  1.0000
  H   H38       1.0  0.73410  0.31140  0.25180  1.0000
  H   H39       1.0  0.23410  0.18860  0.74820  1.0000
  H   H40       1.0  0.26590  0.81140  0.24820  1.0000
  H   H41       1.0  0.75180  0.76590  0.68860  1.0000
  H   H42       1.0  0.25180  0.73410  0.31140  1.0000
  H   H43       1.0  0.74820  0.23410  0.18860  1.0000
  H   H44       1.0  0.24820  0.26590  0.81140  1.0000
  H   H45       1.0  0.68860  0.75180  0.76590  1.0000
  H   H46       1.0  0.31140  0.25180  0.73410  1.0000
  H   H47       1.0  0.18860  0.74820  0.23410  1.0000
  H   H48       1.0  0.81140  0.24820  0.26590  1.0000
  C   C265      1.0  0.22730  0.39140  0.22122  1.0000
  C   C266      1.0  0.27270  0.60860  0.72122  1.0000
  C   C267      1.0  0.77270  0.89140  0.27878  1.0000
  C   C268      1.0  0.72730  0.10860  0.77878  1.0000
  C   C269      1.0  0.22122  0.22730  0.39140  1.0000
  C   C270      1.0  0.72122  0.27270  0.60860  1.0000
  C   C271      1.0  0.27878  0.77270  0.89140  1.0000
  C   C272      1.0  0.77878  0.72730  0.10860  1.0000
  C   C273      1.0  0.39140  0.22122  0.22730  1.0000
  C   C274      1.0  0.60860  0.72122  0.27270  1.0000
  C   C275      1.0  0.89140  0.27878  0.77270  1.0000
  C   C276      1.0  0.10860  0.77878  0.72730  1.0000
  C   C277      1.0  0.77270  0.60860  0.77878  1.0000
  C   C278      1.0  0.72730  0.39140  0.27878  1.0000
  C   C279      1.0  0.22730  0.10860  0.72122  1.0000
  C   C280      1.0  0.27270  0.89140  0.22122  1.0000
  C   C281      1.0  0.77878  0.77270  0.60860  1.0000
  C   C282      1.0  0.27878  0.72730  0.39140  1.0000
  C   C283      1.0  0.72122  0.22730  0.10860  1.0000
  C   C284      1.0  0.22122  0.27270  0.89140  1.0000
  C   C285      1.0  0.60860  0.77878  0.77270  1.0000
  C   C286      1.0  0.39140  0.27878  0.72730  1.0000
  C   C287      1.0  0.10860  0.72122  0.22730  1.0000
  C   C288      1.0  0.89140  0.22122  0.27270  1.0000
  H   H49       1.0  0.22700  0.41210  0.25310  1.0000
  H   H50       1.0  0.27300  0.58790  0.75310  1.0000
  H   H51       1.0  0.77300  0.91210  0.24690  1.0000
  H   H52       1.0  0.72700  0.08790  0.74690  1.0000
  H   H53       1.0  0.25310  0.22700  0.41210  1.0000
  H   H54       1.0  0.75310  0.27300  0.58790  1.0000
  H   H55       1.0  0.24690  0.77300  0.91210  1.0000
  H   H56       1.0  0.74690  0.72700  0.08790  1.0000
  H   H57       1.0  0.41210  0.25310  0.22700  1.0000
  H   H58       1.0  0.58790  0.75310  0.27300  1.0000
  H   H59       1.0  0.91210  0.24690  0.77300  1.0000
  H   H60       1.0  0.08790  0.74690  0.72700  1.0000
  H   H61       1.0  0.77300  0.58790  0.74690  1.0000
  H   H62       1.0  0.72700  0.41210  0.24690  1.0000
  H   H63       1.0  0.22700  0.08790  0.75310  1.0000
  H   H64       1.0  0.27300  0.91210  0.25310  1.0000
  H   H65       1.0  0.74690  0.77300  0.58790  1.0000
  H   H66       1.0  0.24690  0.72700  0.41210  1.0000
  H   H67       1.0  0.75310  0.22700  0.08790  1.0000
  H   H68       1.0  0.25310  0.27300  0.91210  1.0000
  H   H69       1.0  0.58790  0.74690  0.77300  1.0000
  H   H70       1.0  0.41210  0.24690  0.72700  1.0000
  H   H71       1.0  0.08790  0.75310  0.22700  1.0000
  H   H72       1.0  0.91210  0.25310  0.27300  1.0000
  C   C289      1.0  0.14260  0.47780  0.04240  1.0000
  C   C290      1.0  0.35740  0.52220  0.54240  1.0000
  C   C291      1.0  0.85740  0.97780  0.45760  1.0000
  C   C292      1.0  0.64260  0.02220  0.95760  1.0000
  C   C293      1.0  0.04240  0.14260  0.47780  1.0000
  C   C294      1.0  0.54240  0.35740  0.52220  1.0000
  C   C295      1.0  0.45760  0.85740  0.97780  1.0000
  C   C296      1.0  0.95760  0.64260  0.02220  1.0000
  C   C297      1.0  0.47780  0.04240  0.14260  1.0000
  C   C298      1.0  0.52220  0.54240  0.35740  1.0000
  C   C299      1.0  0.97780  0.45760  0.85740  1.0000
  C   C300      1.0  0.02220  0.95760  0.64260  1.0000
  C   C301      1.0  0.85740  0.52220  0.95760  1.0000
  C   C302      1.0  0.64260  0.47780  0.45760  1.0000
  C   C303      1.0  0.14260  0.02220  0.54240  1.0000
  C   C304      1.0  0.35740  0.97780  0.04240  1.0000
  C   C305      1.0  0.95760  0.85740  0.52220  1.0000
  C   C306      1.0  0.45760  0.64260  0.47780  1.0000
  C   C307      1.0  0.54240  0.14260  0.02220  1.0000
  C   C308      1.0  0.04240  0.35740  0.97780  1.0000
  C   C309      1.0  0.52220  0.95760  0.85740  1.0000
  C   C310      1.0  0.47780  0.45760  0.64260  1.0000
  C   C311      1.0  0.02220  0.54240  0.14260  1.0000
  C   C312      1.0  0.97780  0.04240  0.35740  1.0000
  H   H73       1.0  0.13730  0.45630  0.01010  1.0000
  H   H74       1.0  0.36270  0.54370  0.51010  1.0000
  H   H75       1.0  0.86270  0.95630  0.48990  1.0000
  H   H76       1.0  0.63730  0.04370  0.98990  1.0000
  H   H77       1.0  0.01010  0.13730  0.45630  1.0000
  H   H78       1.0  0.51010  0.36270  0.54370  1.0000
  H   H79       1.0  0.48990  0.86270  0.95630  1.0000
  H   H80       1.0  0.98990  0.63730  0.04370  1.0000
  H   H81       1.0  0.45630  0.01010  0.13730  1.0000
  H   H82       1.0  0.54370  0.51010  0.36270  1.0000
  H   H83       1.0  0.95630  0.48990  0.86270  1.0000
  H   H84       1.0  0.04370  0.98990  0.63730  1.0000
  H   H85       1.0  0.86270  0.54370  0.98990  1.0000
  H   H86       1.0  0.63730  0.45630  0.48990  1.0000
  H   H87       1.0  0.13730  0.04370  0.51010  1.0000
  H   H88       1.0  0.36270  0.95630  0.01010  1.0000
  H   H89       1.0  0.98990  0.86270  0.54370  1.0000
  H   H90       1.0  0.48990  0.63730  0.45630  1.0000
  H   H91       1.0  0.51010  0.13730  0.04370  1.0000
  H   H92       1.0  0.01010  0.36270  0.95630  1.0000
  H   H93       1.0  0.54370  0.98990  0.86270  1.0000
  H   H94       1.0  0.45630  0.48990  0.63730  1.0000
  H   H95       1.0  0.04370  0.51010  0.13730  1.0000
  H   H96       1.0  0.95630  0.01010  0.36270  1.0000
  H   H97       1.0  0.15540  0.51350  0.03240  1.0000
  H   H98       1.0  0.34460  0.48650  0.53240  1.0000
  H   H99       1.0  0.84460  0.01350  0.46760  1.0000
  H   H100      1.0  0.65540  0.98650  0.96760  1.0000
  H   H101      1.0  0.03240  0.15540  0.51350  1.0000
  H   H102      1.0  0.53240  0.34460  0.48650  1.0000
  H   H103      1.0  0.46760  0.84460  0.01350  1.0000
  H   H104      1.0  0.96760  0.65540  0.98650  1.0000
  H   H105      1.0  0.51350  0.03240  0.15540  1.0000
  H   H106      1.0  0.48650  0.53240  0.34460  1.0000
  H   H107      1.0  0.01350  0.46760  0.84460  1.0000
  H   H108      1.0  0.98650  0.96760  0.65540  1.0000
  H   H109      1.0  0.84460  0.48650  0.96760  1.0000
  H   H110      1.0  0.65540  0.51350  0.46760  1.0000
  H   H111      1.0  0.15540  0.98650  0.53240  1.0000
  H   H112      1.0  0.34460  0.01350  0.03240  1.0000
  H   H113      1.0  0.96760  0.84460  0.48650  1.0000
  H   H114      1.0  0.46760  0.65540  0.51350  1.0000
  H   H115      1.0  0.53240  0.15540  0.98650  1.0000
  H   H116      1.0  0.03240  0.34460  0.01350  1.0000
  H   H117      1.0  0.48650  0.96760  0.84460  1.0000
  H   H118      1.0  0.51350  0.46760  0.65540  1.0000
  H   H119      1.0  0.98650  0.53240  0.15540  1.0000
  H   H120      1.0  0.01350  0.03240  0.34460  1.0000
  H   H121      1.0  0.10860  0.48110  0.06160  1.0000
  H   H122      1.0  0.39140  0.51890  0.56160  1.0000
  H   H123      1.0  0.89140  0.98110  0.43840  1.0000
  H   H124      1.0  0.60860  0.01890  0.93840  1.0000
  H   H125      1.0  0.06160  0.10860  0.48110  1.0000
  H   H126      1.0  0.56160  0.39140  0.51890  1.0000
  H   H127      1.0  0.43840  0.89140  0.98110  1.0000
  H   H128      1.0  0.93840  0.60860  0.01890  1.0000
  H   H129      1.0  0.48110  0.06160  0.10860  1.0000
  H   H130      1.0  0.51890  0.56160  0.39140  1.0000
  H   H131      1.0  0.98110  0.43840  0.89140  1.0000
  H   H132      1.0  0.01890  0.93840  0.60860  1.0000
  H   H133      1.0  0.89140  0.51890  0.93840  1.0000
  H   H134      1.0  0.60860  0.48110  0.43840  1.0000
  H   H135      1.0  0.10860  0.01890  0.56160  1.0000
  H   H136      1.0  0.39140  0.98110  0.06160  1.0000
  H   H137      1.0  0.93840  0.89140  0.51890  1.0000
  H   H138      1.0  0.43840  0.60860  0.48110  1.0000
  H   H139      1.0  0.56160  0.10860  0.01890  1.0000
  H   H140      1.0  0.06160  0.39140  0.98110  1.0000
  H   H141      1.0  0.51890  0.93840  0.89140  1.0000
  H   H142      1.0  0.48110  0.43840  0.60860  1.0000
  H   H143      1.0  0.01890  0.56160  0.10860  1.0000
  H   H144      1.0  0.98110  0.06160  0.39140  1.0000
  H   H145      1.0  0.13400  0.39210  0.89360  1.0000
  H   H146      1.0  0.36600  0.60790  0.39360  1.0000
  H   H147      1.0  0.86600  0.89210  0.60640  1.0000
  H   H148      1.0  0.63400  0.10790  0.10640  1.0000
  H   H149      1.0  0.89360  0.13400  0.39210  1.0000
  H   H150      1.0  0.39360  0.36600  0.60790  1.0000
  H   H151      1.0  0.60640  0.86600  0.89210  1.0000
  H   H152      1.0  0.10640  0.63400  0.10790  1.0000
  H   H153      1.0  0.39210  0.89360  0.13400  1.0000
  H   H154      1.0  0.60790  0.39360  0.36600  1.0000
  H   H155      1.0  0.89210  0.60640  0.86600  1.0000
  H   H156      1.0  0.10790  0.10640  0.63400  1.0000
  H   H157      1.0  0.86600  0.60790  0.10640  1.0000
  H   H158      1.0  0.63400  0.39210  0.60640  1.0000
  H   H159      1.0  0.13400  0.10790  0.39360  1.0000
  H   H160      1.0  0.36600  0.89210  0.89360  1.0000
  H   H161      1.0  0.10640  0.86600  0.60790  1.0000
  H   H162      1.0  0.60640  0.63400  0.39210  1.0000
  H   H163      1.0  0.39360  0.13400  0.10790  1.0000
  H   H164      1.0  0.89360  0.36600  0.89210  1.0000
  H   H165      1.0  0.60790  0.10640  0.86600  1.0000
  H   H166      1.0  0.39210  0.60640  0.63400  1.0000
  H   H167      1.0  0.10790  0.39360  0.13400  1.0000
  H   H168      1.0  0.89210  0.89360  0.36600  1.0000
  H   H169      1.0  0.28560  0.44090  0.85740  1.0000
  H   H170      1.0  0.21440  0.55910  0.35740  1.0000
  H   H171      1.0  0.71440  0.94090  0.64260  1.0000
  H   H172      1.0  0.78560  0.05910  0.14260  1.0000
  H   H173      1.0  0.85740  0.28560  0.44090  1.0000
  H   H174      1.0  0.35740  0.21440  0.55910  1.0000
  H   H175      1.0  0.64260  0.71440  0.94090  1.0000
  H   H176      1.0  0.14260  0.78560  0.05910  1.0000
  H   H177      1.0  0.44090  0.85740  0.28560  1.0000
  H   H178      1.0  0.55910  0.35740  0.21440  1.0000
  H   H179      1.0  0.94090  0.64260  0.71440  1.0000
  H   H180      1.0  0.05910  0.14260  0.78560  1.0000
  H   H181      1.0  0.71440  0.55910  0.14260  1.0000
  H   H182      1.0  0.78560  0.44090  0.64260  1.0000
  H   H183      1.0  0.28560  0.05910  0.35740  1.0000
  H   H184      1.0  0.21440  0.94090  0.85740  1.0000
  H   H185      1.0  0.14260  0.71440  0.55910  1.0000
  H   H186      1.0  0.64260  0.78560  0.44090  1.0000
  H   H187      1.0  0.35740  0.28560  0.05910  1.0000
  H   H188      1.0  0.85740  0.21440  0.94090  1.0000
  H   H189      1.0  0.55910  0.14260  0.71440  1.0000
  H   H190      1.0  0.44090  0.64260  0.78560  1.0000
  H   H191      1.0  0.05910  0.35740  0.28560  1.0000
  H   H192      1.0  0.94090  0.85740  0.21440  1.0000
  H   H193      1.0  0.16700  0.44400  0.74200  1.0000
  H   H194      1.0  0.33300  0.55600  0.24200  1.0000
  H   H195      1.0  0.83300  0.94400  0.75800  1.0000
  H   H196      1.0  0.66700  0.05600  0.25800  1.0000
  H   H197      1.0  0.74200  0.16700  0.44400  1.0000
  H   H198      1.0  0.24200  0.33300  0.55600  1.0000
  H   H199      1.0  0.75800  0.83300  0.94400  1.0000
  H   H200      1.0  0.25800  0.66700  0.05600  1.0000
  H   H201      1.0  0.44400  0.74200  0.16700  1.0000
  H   H202      1.0  0.55600  0.24200  0.33300  1.0000
  H   H203      1.0  0.94400  0.75800  0.83300  1.0000
  H   H204      1.0  0.05600  0.25800  0.66700  1.0000
  H   H205      1.0  0.83300  0.55600  0.25800  1.0000
  H   H206      1.0  0.66700  0.44400  0.75800  1.0000
  H   H207      1.0  0.16700  0.05600  0.24200  1.0000
  H   H208      1.0  0.33300  0.94400  0.74200  1.0000
  H   H209      1.0  0.25800  0.83300  0.55600  1.0000
  H   H210      1.0  0.75800  0.66700  0.44400  1.0000
  H   H211      1.0  0.24200  0.16700  0.05600  1.0000
  H   H212      1.0  0.74200  0.33300  0.94400  1.0000
  H   H213      1.0  0.55600  0.25800  0.83300  1.0000
  H   H214      1.0  0.44400  0.75800  0.66700  1.0000
  H   H215      1.0  0.05600  0.24200  0.16700  1.0000
  H   H216      1.0  0.94400  0.74200  0.33300  1.0000
