data_image0
_chemical_formula_structural       C6H2C6H2C4H2C6H2C2H2C6H2C2H2C4H2C6H2C6H2Cd2N2H2N2H2O20
_chemical_formula_sum              "C48 H24 Cd2 N4 O20"
_cell_length_a       10.217
_cell_length_b       10.362
_cell_length_c       18.118
_cell_angle_alpha    102.53
_cell_angle_beta     99.35
_cell_angle_gamma    93.79

_space_group_name_H-M_alt    "P 1"
_space_group_IT_number       1

loop_
  _space_group_symop_operation_xyz
  'x, y, z'

loop_
  _atom_site_type_symbol
  _atom_site_label
  _atom_site_symmetry_multiplicity
  _atom_site_fract_x
  _atom_site_fract_y
  _atom_site_fract_z
  _atom_site_occupancy
  C   C1        1.0  0.21590  0.98760  0.75120  1.0000
  C   C2        1.0  0.78410  0.01240  0.24880  1.0000
  C   C3        1.0  0.36020  0.01840  0.78920  1.0000
  C   C4        1.0  0.63980  0.98160  0.21080  1.0000
  C   C5        1.0  0.46160  0.99540  0.74620  1.0000
  C   C6        1.0  0.53840  0.00460  0.25380  1.0000
  H   H1        1.0  0.44010  0.96100  0.69330  1.0000
  H   H2        1.0  0.55990  0.03900  0.30670  1.0000
  C   C7        1.0  0.59450  0.02390  0.78210  1.0000
  C   C8        1.0  0.40550  0.97610  0.21790  1.0000
  C   C9        1.0  0.70430  0.99360  0.73580  1.0000
  C   C10       1.0  0.29570  0.00640  0.26420  1.0000
  C   C11       1.0  0.62500  0.07760  0.86050  1.0000
  C   C12       1.0  0.37500  0.92240  0.13950  1.0000
  H   H3        1.0  0.71390  0.09770  0.88460  1.0000
  H   H4        1.0  0.28610  0.90230  0.11540  1.0000
  C   C13       1.0  0.52520  0.10190  0.90380  1.0000
  C   C14       1.0  0.47480  0.89810  0.09620  1.0000
  C   C15       1.0  0.39340  0.07000  0.86830  1.0000
  C   C16       1.0  0.60660  0.93000  0.13170  1.0000
  H   H5        1.0  0.32630  0.08300  0.89740  1.0000
  H   H6        1.0  0.67370  0.91700  0.10260  1.0000
  C   C17       1.0  0.49210  0.23310  0.02810  1.0000
  C   C18       1.0  0.50790  0.76690  0.97190  1.0000
  C   C19       1.0  0.54280  0.26790  0.11330  1.0000
  C   C20       1.0  0.45720  0.73210  0.88670  1.0000
  C   C21       1.0  0.67810  0.28490  0.14520  1.0000
  C   C22       1.0  0.32190  0.71510  0.85480  1.0000
  H   H7        1.0  0.74160  0.27150  0.11370  1.0000
  H   H8        1.0  0.25840  0.72850  0.88630  1.0000
  C   C23       1.0  0.71700  0.32210  0.22450  1.0000
  C   C24       1.0  0.28300  0.67790  0.77550  1.0000
  H   H9        1.0  0.80740  0.33390  0.24580  1.0000
  H   H10       1.0  0.19260  0.66610  0.75420  1.0000
  C   C25       1.0  0.62440  0.34200  0.27230  1.0000
  C   C26       1.0  0.37560  0.65800  0.72770  1.0000
  C   C27       1.0  0.66570  0.39200  0.35730  1.0000
  C   C28       1.0  0.33430  0.60800  0.64270  1.0000
  C   C29       1.0  0.48940  0.32300  0.23990  1.0000
  C   C30       1.0  0.51060  0.67700  0.76010  1.0000
  H   H11       1.0  0.42630  0.33490  0.27180  1.0000
  H   H12       1.0  0.57370  0.66510  0.72820  1.0000
  C   C31       1.0  0.44790  0.28670  0.16140  1.0000
  C   C32       1.0  0.55210  0.71330  0.83860  1.0000
  H   H13       1.0  0.35740  0.27480  0.14030  1.0000
  H   H14       1.0  0.64260  0.72520  0.85970  1.0000
  C   C33       1.0  0.81320  0.36380  0.47260  1.0000
  C   C34       1.0  0.18680  0.63620  0.52740  1.0000
  C   C35       1.0  0.83580  0.49560  0.51350  1.0000
  C   C36       1.0  0.16420  0.50440  0.48650  1.0000
  H   H15       1.0  0.81620  0.56350  0.48860  1.0000
  H   H16       1.0  0.18380  0.43650  0.51140  1.0000
  C   C37       1.0  0.88830  0.52550  0.59220  1.0000
  C   C38       1.0  0.11170  0.47450  0.40780  1.0000
  C   C39       1.0  0.91150  0.67080  0.63520  1.0000
  C   C40       1.0  0.08850  0.32920  0.36480  1.0000
  C   C41       1.0  0.92010  0.42380  0.62790  1.0000
  C   C42       1.0  0.07990  0.57620  0.37210  1.0000
  H   H17       1.0  0.95610  0.44390  0.68010  1.0000
  H   H18       1.0  0.04390  0.55610  0.31990  1.0000
  C   C43       1.0  0.89940  0.29180  0.58710  1.0000
  C   C44       1.0  0.10060  0.70820  0.41290  1.0000
  C   C45       1.0  0.93060  0.18020  0.62690  1.0000
  C   C46       1.0  0.06940  0.81980  0.37310  1.0000
  C   C47       1.0  0.84540  0.26290  0.50870  1.0000
  C   C48       1.0  0.15460  0.73710  0.49130  1.0000
  H   H19       1.0  0.83110  0.17510  0.48070  1.0000
  H   H20       1.0  0.16890  0.82490  0.51930  1.0000
  Cd  Cd1       1.0  0.95185  0.95298  0.68418  1.0000
  Cd  Cd2       1.0  0.04815  0.04702  0.31582  1.0000
  N   N1        1.0  0.56190  0.15270  0.98490  1.0000
  N   N2        1.0  0.43810  0.84730  0.01510  1.0000
  H   H21       1.0  0.63430  0.12990  0.00780  1.0000
  H   H22       1.0  0.36570  0.87010  0.99220  1.0000
  N   N3        1.0  0.75910  0.33090  0.39240  1.0000
  N   N4        1.0  0.24090  0.66910  0.60760  1.0000
  H   H23       1.0  0.78950  0.26600  0.36420  1.0000
  H   H24       1.0  0.21050  0.73400  0.63580  1.0000
  O   O1        1.0  0.12810  0.01820  0.79140  1.0000
  O   O2        1.0  0.87190  0.98180  0.20860  1.0000
  O   O3        1.0  0.18690  0.93520  0.68055  1.0000
  O   O4        1.0  0.81310  0.06480  0.31945  1.0000
  O   O5        1.0  0.67440  0.96120  0.66470  1.0000
  O   O6        1.0  0.32560  0.03880  0.33530  1.0000
  O   O7        1.0  0.82150  0.00320  0.77230  1.0000
  O   O8        1.0  0.17850  0.99680  0.22770  1.0000
  O   O9        1.0  0.39080  0.27760  0.00140  1.0000
  O   O10       1.0  0.60920  0.72240  0.99860  1.0000
  O   O11       1.0  0.61060  0.48400  0.39160  1.0000
  O   O12       1.0  0.38940  0.51600  0.60840  1.0000
  O   O13       1.0  0.90430  0.06320  0.58710  1.0000
  O   O14       1.0  0.09570  0.93680  0.41290  1.0000
  O   O15       1.0  0.97800  0.20710  0.69570  1.0000
  O   O16       1.0  0.02200  0.79290  0.30430  1.0000
  O   O17       1.0  0.89190  0.75720  0.59630  1.0000
  O   O18       1.0  0.10810  0.24280  0.40370  1.0000
  O   O19       1.0  0.95240  0.70110  0.70580  1.0000
  O   O20       1.0  0.04760  0.29890  0.29420  1.0000
