data_image0
_chemical_formula_structural       C6H2C6H2C4H2C6H2C2H2C4H2C2H2C6H2C6H2C6H2N2H2N2H2O20Zn2
_chemical_formula_sum              "C48 H24 N4 O20 Zn2"
_cell_length_a       10.004
_cell_length_b       10.293
_cell_length_c       17.914
_cell_angle_alpha    103.66
_cell_angle_beta     99.58
_cell_angle_gamma    93.45

_space_group_name_H-M_alt    "P 1"
_space_group_IT_number       1

loop_
  _space_group_symop_operation_xyz
  'x, y, z'

loop_
  _atom_site_type_symbol
  _atom_site_label
  _atom_site_symmetry_multiplicity
  _atom_site_fract_x
  _atom_site_fract_y
  _atom_site_fract_z
  _atom_site_occupancy
  C   C1        1.0  0.68290  0.49550  0.71640  1.0000
  C   C2        1.0  0.31710  0.50450  0.28360  1.0000
  C   C3        1.0  0.57960  0.52410  0.76927  1.0000
  C   C4        1.0  0.42040  0.47590  0.23073  1.0000
  C   C5        1.0  0.44190  0.49770  0.73620  1.0000
  C   C6        1.0  0.55810  0.50230  0.26380  1.0000
  H   H1        1.0  0.41520  0.46570  0.68230  1.0000
  H   H2        1.0  0.58480  0.53430  0.31770  1.0000
  C   C7        1.0  0.34400  0.51890  0.78291  1.0000
  C   C8        1.0  0.65600  0.48110  0.21709  1.0000
  C   C9        1.0  0.19540  0.49030  0.74710  1.0000
  C   C10       1.0  0.80460  0.50970  0.25290  1.0000
  C   C11       1.0  0.38370  0.56880  0.86310  1.0000
  C   C12       1.0  0.61630  0.43120  0.13690  1.0000
  H   H3        1.0  0.31810  0.58200  0.89460  1.0000
  H   H4        1.0  0.68190  0.41800  0.10540  1.0000
  C   C13       1.0  0.52090  0.59910  0.89677  1.0000
  C   C14       1.0  0.47910  0.40090  0.10323  1.0000
  C   C15       1.0  0.61860  0.57640  0.84910  1.0000
  C   C16       1.0  0.38140  0.42360  0.15090  1.0000
  H   H5        1.0  0.71070  0.59660  0.87120  1.0000
  H   H6        1.0  0.28930  0.40340  0.12880  1.0000
  C   C17       1.0  0.49580  0.73440  0.02510  1.0000
  C   C18       1.0  0.50420  0.26560  0.97490  1.0000
  C   C19       1.0  0.54770  0.76580  0.11120  1.0000
  C   C20       1.0  0.45230  0.23420  0.88880  1.0000
  C   C21       1.0  0.68590  0.78230  0.14410  1.0000
  C   C22       1.0  0.31410  0.21770  0.85590  1.0000
  H   H7        1.0  0.75070  0.76860  0.11210  1.0000
  H   H8        1.0  0.24930  0.23140  0.88790  1.0000
  C   C23       1.0  0.72640  0.81930  0.22470  1.0000
  C   C24       1.0  0.27360  0.18070  0.77530  1.0000
  H   H9        1.0  0.81870  0.83110  0.24660  1.0000
  H   H10       1.0  0.18130  0.16890  0.75340  1.0000
  C   C25       1.0  0.63120  0.83860  0.27270  1.0000
  C   C26       1.0  0.36880  0.16140  0.72730  1.0000
  C   C27       1.0  0.49400  0.81850  0.24010  1.0000
  C   C28       1.0  0.50600  0.18150  0.75990  1.0000
  H   H11       1.0  0.42940  0.82980  0.27230  1.0000
  H   H12       1.0  0.57060  0.17020  0.72770  1.0000
  C   C29       1.0  0.45230  0.78160  0.15990  1.0000
  C   C30       1.0  0.54770  0.21840  0.84010  1.0000
  H   H13       1.0  0.35980  0.76730  0.13840  1.0000
  H   H14       1.0  0.64020  0.23270  0.86160  1.0000
  C   C31       1.0  0.67160  0.89100  0.35960  1.0000
  C   C32       1.0  0.32840  0.10900  0.64040  1.0000
  C   C33       1.0  0.82050  0.86760  0.47820  1.0000
  C   C34       1.0  0.17950  0.13240  0.52180  1.0000
  C   C35       1.0  0.85390  0.76670  0.51550  1.0000
  C   C36       1.0  0.14610  0.23330  0.48450  1.0000
  H   H15       1.0  0.84240  0.67730  0.48730  1.0000
  H   H16       1.0  0.15760  0.32270  0.51270  1.0000
  C   C37       1.0  0.90460  0.80060  0.59550  1.0000
  C   C38       1.0  0.09540  0.19940  0.40450  1.0000
  C   C39       1.0  0.93760  0.69370  0.63920  1.0000
  C   C40       1.0  0.06240  0.30630  0.36080  1.0000
  C   C41       1.0  0.92160  0.93430  0.63740  1.0000
  C   C42       1.0  0.07840  0.06570  0.36260  1.0000
  H   H17       1.0  0.95550  0.95660  0.69090  1.0000
  H   H18       1.0  0.04450  0.04340  0.30910  1.0000
  C   C43       1.0  0.88810  0.03550  0.59987  1.0000
  C   C44       1.0  0.11190  0.96450  0.40013  1.0000
  C   C45       1.0  0.90710  0.18000  0.64590  1.0000
  C   C46       1.0  0.09290  0.82000  0.35410  1.0000
  C   C47       1.0  0.84030  0.00090  0.52000  1.0000
  C   C48       1.0  0.15970  0.99910  0.48000  1.0000
  H   H19       1.0  0.82120  0.06800  0.49410  1.0000
  H   H20       1.0  0.17880  0.93200  0.50590  1.0000
  N   N1        1.0  0.76860  0.83050  0.39606  1.0000
  N   N2        1.0  0.23140  0.16950  0.60394  1.0000
  H   H21       1.0  0.80170  0.76500  0.36790  1.0000
  H   H22       1.0  0.19830  0.23500  0.63210  1.0000
  N   N3        1.0  0.56360  0.64950  0.97849  1.0000
  N   N4        1.0  0.43640  0.35050  0.02151  1.0000
  H   H23       1.0  0.63770  0.62450  0.00010  1.0000
  H   H24       1.0  0.36230  0.37550  0.99990  1.0000
  O   O1        1.0  0.80640  0.49560  0.74891  1.0000
  O   O2        1.0  0.19360  0.50440  0.25109  1.0000
  O   O3        1.0  0.64300  0.47590  0.64537  1.0000
  O   O4        1.0  0.35700  0.52410  0.35463  1.0000
  O   O5        1.0  0.16120  0.43410  0.67511  1.0000
  O   O6        1.0  0.83880  0.56590  0.32489  1.0000
  O   O7        1.0  0.10770  0.52220  0.78863  1.0000
  O   O8        1.0  0.89230  0.47780  0.21137  1.0000
  O   O9        1.0  0.39470  0.78370  0.99959  1.0000
  O   O10       1.0  0.60530  0.21630  0.00041  1.0000
  O   O11       1.0  0.61590  0.98410  0.39305  1.0000
  O   O12       1.0  0.38410  0.01590  0.60695  1.0000
  O   O13       1.0  0.91250  0.57120  0.60148  1.0000
  O   O14       1.0  0.08750  0.42880  0.39852  1.0000
  O   O15       1.0  0.98650  0.72960  0.70941  1.0000
  O   O16       1.0  0.01350  0.27040  0.29059  1.0000
  O   O17       1.0  0.94260  0.20810  0.71797  1.0000
  O   O18       1.0  0.05740  0.79190  0.28203  1.0000
  O   O19       1.0  0.88710  0.27030  0.60817  1.0000
  O   O20       1.0  0.11290  0.72970  0.39183  1.0000
  Zn  Zn1       1.0  0.94399  0.45780  0.67947  1.0000
  Zn  Zn2       1.0  0.05601  0.54220  0.32053  1.0000
