data_image0
_chemical_formula_structural       O4N4O8C4O4N4C4N4O8C12H4O8H4C12H4C4H4O4C4H4C4H4C12H4O8Bi4
_chemical_formula_sum              "O44 N12 C56 H28 Bi4"
_cell_length_a       15.2084
_cell_length_b       10.5336
_cell_length_c       15.9664
_cell_angle_alpha    90
_cell_angle_beta     103.601
_cell_angle_gamma    90

_space_group_name_H-M_alt    "P 1"
_space_group_IT_number       1

loop_
  _space_group_symop_operation_xyz
  'x, y, z'

loop_
  _atom_site_type_symbol
  _atom_site_label
  _atom_site_symmetry_multiplicity
  _atom_site_fract_x
  _atom_site_fract_y
  _atom_site_fract_z
  _atom_site_occupancy
  O   O1        1.0  0.54250  0.90630  0.27820  1.0000
  O   O2        1.0  0.95750  0.40630  0.22180  1.0000
  O   O3        1.0  0.45750  0.09370  0.72180  1.0000
  O   O4        1.0  0.04250  0.59370  0.77820  1.0000
  N   N1        1.0  0.54200  0.14530  0.21690  1.0000
  N   N2        1.0  0.95800  0.64530  0.28310  1.0000
  N   N3        1.0  0.45800  0.85470  0.78310  1.0000
  N   N4        1.0  0.04200  0.35470  0.71690  1.0000
  O   O5        1.0  0.35210  0.97590  0.99110  1.0000
  O   O6        1.0  0.14790  0.47590  0.50890  1.0000
  O   O7        1.0  0.64790  0.02410  0.00890  1.0000
  O   O8        1.0  0.85210  0.52410  0.49110  1.0000
  O   O9        1.0  0.68580  0.92660  0.35000  1.0000
  O   O10       1.0  0.81420  0.42660  0.15000  1.0000
  O   O11       1.0  0.31420  0.07340  0.65000  1.0000
  O   O12       1.0  0.18580  0.57340  0.85000  1.0000
  C   C1        1.0  0.61580  0.96830  0.30350  1.0000
  C   C2        1.0  0.88420  0.46830  0.19650  1.0000
  C   C3        1.0  0.38420  0.03170  0.69650  1.0000
  C   C4        1.0  0.11580  0.53170  0.80350  1.0000
  O   O13       1.0  0.45770  0.11590  0.01930  1.0000
  O   O14       1.0  0.04230  0.61590  0.48070  1.0000
  O   O15       1.0  0.54230  0.88410  0.98070  1.0000
  O   O16       1.0  0.95770  0.38410  0.51930  1.0000
  N   N5        1.0  0.39990  0.05650  0.96450  1.0000
  N   N6        1.0  0.10010  0.55650  0.53550  1.0000
  N   N7        1.0  0.60010  0.94350  0.03550  1.0000
  N   N8        1.0  0.89990  0.44350  0.46450  1.0000
  C   C5        1.0  0.61570  0.10550  0.27530  1.0000
  C   C6        1.0  0.88430  0.60550  0.22470  1.0000
  C   C7        1.0  0.38430  0.89450  0.72470  1.0000
  C   C8        1.0  0.11570  0.39450  0.77530  1.0000
  N   N9        1.0  0.37490  0.05110  0.28960  1.0000
  N   N10       1.0  0.12510  0.55110  0.21040  1.0000
  N   N11       1.0  0.62510  0.94890  0.71040  1.0000
  N   N12       1.0  0.87490  0.44890  0.78960  1.0000
  O   O17       1.0  0.29310  0.33940  0.19370  1.0000
  O   O18       1.0  0.20690  0.83940  0.30630  1.0000
  O   O19       1.0  0.70690  0.66060  0.80630  1.0000
  O   O20       1.0  0.79310  0.16060  0.69370  1.0000
  O   O21       1.0  0.39300  0.07370  0.88570  1.0000
  O   O22       1.0  0.10700  0.57370  0.61430  1.0000
  O   O23       1.0  0.60700  0.92630  0.11430  1.0000
  O   O24       1.0  0.89300  0.42630  0.38570  1.0000
  C   C9        1.0  0.31690  0.22790  0.19600  1.0000
  C   C10       1.0  0.18310  0.72790  0.30400  1.0000
  C   C11       1.0  0.68310  0.77210  0.80400  1.0000
  C   C12       1.0  0.81690  0.27210  0.69600  1.0000
  C   C13       1.0  0.32380  0.15470  0.27920  1.0000
  C   C14       1.0  0.17620  0.65470  0.22080  1.0000
  C   C15       1.0  0.67620  0.84530  0.72080  1.0000
  C   C16       1.0  0.82380  0.34530  0.77920  1.0000
  C   C17       1.0  0.53950  0.26130  0.18370  1.0000
  C   C18       1.0  0.96050  0.76130  0.31630  1.0000
  C   C19       1.0  0.46050  0.73870  0.81630  1.0000
  C   C20       1.0  0.03950  0.23870  0.68370  1.0000
  H   H1        1.0  0.48760  0.28720  0.14390  1.0000
  H   H2        1.0  0.01240  0.78720  0.35610  1.0000
  H   H3        1.0  0.51240  0.71280  0.85610  1.0000
  H   H4        1.0  0.98760  0.21280  0.64390  1.0000
  O   O25       1.0  0.84470  0.12490  0.34850  1.0000
  O   O26       1.0  0.65530  0.62490  0.15150  1.0000
  O   O27       1.0  0.15530  0.87510  0.65150  1.0000
  O   O28       1.0  0.34470  0.37510  0.84850  1.0000
  O   O29       1.0  0.76250  0.15250  0.44650  1.0000
  O   O30       1.0  0.73750  0.65250  0.05350  1.0000
  O   O31       1.0  0.23750  0.84750  0.55350  1.0000
  O   O32       1.0  0.26250  0.34750  0.94650  1.0000
  H   H5        1.0  0.80930  0.13140  0.48080  1.0000
  H   H6        1.0  0.69070  0.63140  0.01920  1.0000
  H   H7        1.0  0.19070  0.86860  0.51920  1.0000
  H   H8        1.0  0.30930  0.36860  0.98080  1.0000
  C   C21       1.0  0.69020  0.18600  0.30210  1.0000
  C   C22       1.0  0.80980  0.68600  0.19790  1.0000
  C   C23       1.0  0.30980  0.81400  0.69790  1.0000
  C   C24       1.0  0.19020  0.31400  0.80210  1.0000
  C   C25       1.0  0.77440  0.14770  0.36820  1.0000
  C   C26       1.0  0.72560  0.64770  0.13180  1.0000
  C   C27       1.0  0.22560  0.85230  0.63180  1.0000
  C   C28       1.0  0.27440  0.35230  0.86820  1.0000
  C   C29       1.0  0.68750  0.30690  0.26680  1.0000
  C   C30       1.0  0.81250  0.80690  0.23320  1.0000
  C   C31       1.0  0.31250  0.69310  0.73320  1.0000
  C   C32       1.0  0.18750  0.19310  0.76680  1.0000
  H   H9        1.0  0.73650  0.36150  0.28380  1.0000
  H   H10       1.0  0.76350  0.86150  0.21620  1.0000
  H   H11       1.0  0.26350  0.63850  0.71620  1.0000
  H   H12       1.0  0.23650  0.13850  0.78380  1.0000
  C   C33       1.0  0.61170  0.34540  0.20630  1.0000
  C   C34       1.0  0.88830  0.84540  0.29370  1.0000
  C   C35       1.0  0.38830  0.65460  0.79370  1.0000
  C   C36       1.0  0.11170  0.15460  0.70630  1.0000
  H   H13       1.0  0.60900  0.42550  0.18140  1.0000
  H   H14       1.0  0.89100  0.92550  0.31860  1.0000
  H   H15       1.0  0.39100  0.57450  0.81860  1.0000
  H   H16       1.0  0.10900  0.07450  0.68140  1.0000
  O   O33       1.0  0.34250  0.16670  0.13630  1.0000
  O   O34       1.0  0.15750  0.66670  0.36370  1.0000
  O   O35       1.0  0.65750  0.83330  0.86370  1.0000
  O   O36       1.0  0.84250  0.33330  0.63630  1.0000
  C   C37       1.0  0.35490  0.02610  0.43020  1.0000
  C   C38       1.0  0.14510  0.52610  0.06980  1.0000
  C   C39       1.0  0.64510  0.97390  0.56980  1.0000
  C   C40       1.0  0.85490  0.47390  0.93020  1.0000
  H   H17       1.0  0.36870  0.98150  0.48190  1.0000
  H   H18       1.0  0.13130  0.48150  0.01810  1.0000
  H   H19       1.0  0.63130  0.01850  0.51810  1.0000
  H   H20       1.0  0.86870  0.51850  0.98190  1.0000
  C   C41       1.0  0.38990  0.98590  0.36290  1.0000
  C   C42       1.0  0.11010  0.48590  0.13710  1.0000
  C   C43       1.0  0.61010  0.01410  0.63710  1.0000
  C   C44       1.0  0.88990  0.51410  0.86290  1.0000
  H   H21       1.0  0.42440  0.91220  0.36870  1.0000
  H   H22       1.0  0.07560  0.41220  0.13130  1.0000
  H   H23       1.0  0.57560  0.08780  0.63130  1.0000
  H   H24       1.0  0.92440  0.58780  0.86870  1.0000
  C   C45       1.0  0.21660  0.30630  0.33170  1.0000
  C   C46       1.0  0.28340  0.80630  0.16830  1.0000
  C   C47       1.0  0.78340  0.69370  0.66830  1.0000
  C   C48       1.0  0.71660  0.19370  0.83170  1.0000
  C   C49       1.0  0.28250  0.19730  0.34440  1.0000
  C   C50       1.0  0.21750  0.69730  0.15560  1.0000
  C   C51       1.0  0.71750  0.80270  0.65560  1.0000
  C   C52       1.0  0.78250  0.30270  0.84440  1.0000
  C   C53       1.0  0.30000  0.13090  0.42260  1.0000
  C   C54       1.0  0.20000  0.63090  0.07740  1.0000
  C   C55       1.0  0.70000  0.86910  0.57740  1.0000
  C   C56       1.0  0.80000  0.36910  0.92260  1.0000
  H   H25       1.0  0.27530  0.15690  0.46780  1.0000
  H   H26       1.0  0.22470  0.65690  0.03220  1.0000
  H   H27       1.0  0.72470  0.84310  0.53220  1.0000
  H   H28       1.0  0.77530  0.34310  0.96780  1.0000
  O   O37       1.0  0.23850  0.40530  0.37460  1.0000
  O   O38       1.0  0.26150  0.90530  0.12540  1.0000
  O   O39       1.0  0.76150  0.59470  0.62540  1.0000
  O   O40       1.0  0.73850  0.09470  0.87460  1.0000
  O   O41       1.0  0.14080  0.28910  0.28300  1.0000
  O   O42       1.0  0.35920  0.78910  0.21700  1.0000
  O   O43       1.0  0.85920  0.71090  0.71700  1.0000
  O   O44       1.0  0.64080  0.21090  0.78300  1.0000
  Bi  Bi1       1.0  0.42095  0.98475  0.16205  1.0000
  Bi  Bi2       1.0  0.07905  0.48475  0.33795  1.0000
  Bi  Bi3       1.0  0.57905  0.01525  0.83795  1.0000
  Bi  Bi4       1.0  0.92095  0.51525  0.66205  1.0000
