data_image0
_chemical_formula_structural       Cd4O20N8C6H2C14H2C6H2C2H2C4H2C6H2C4H2C2H2C4H2C2H2C2H2C2H2C2H2C2H2C2H2C4H2C2H2C2H2C2H2
_chemical_formula_sum              "Cd4 O20 N8 C70 H38"
_cell_length_a       10.6211
_cell_length_b       13.3279
_cell_length_c       17.1934
_cell_angle_alpha    73.796
_cell_angle_beta     84.894
_cell_angle_gamma    71.376

_space_group_name_H-M_alt    "P 1"
_space_group_IT_number       1

loop_
  _space_group_symop_operation_xyz
  'x, y, z'

loop_
  _atom_site_type_symbol
  _atom_site_label
  _atom_site_symmetry_multiplicity
  _atom_site_fract_x
  _atom_site_fract_y
  _atom_site_fract_z
  _atom_site_occupancy
  Cd  Cd1       1.0  0.35044  0.05034  0.24753  1.0000
  Cd  Cd2       1.0  0.64956  0.94966  0.75247  1.0000
  Cd  Cd3       1.0  0.98361  0.37435  0.20795  1.0000
  Cd  Cd4       1.0  0.01639  0.62565  0.79205  1.0000
  O   O1        1.0  0.19980  0.97810  0.21700  1.0000
  O   O2        1.0  0.80020  0.02190  0.78300  1.0000
  O   O3        1.0  0.40730  0.87960  0.20250  1.0000
  O   O4        1.0  0.59270  0.12040  0.79750  1.0000
  O   O5        1.0  0.20280  0.20320  0.27120  1.0000
  O   O6        1.0  0.79720  0.79680  0.72880  1.0000
  O   O7        1.0  0.05770  0.31080  0.33570  1.0000
  O   O8        1.0  0.94230  0.68920  0.66430  1.0000
  O   O9        1.0  0.46070  0.97790  0.67900  1.0000
  O   O10       1.0  0.53930  0.02210  0.32100  1.0000
  O   O11       1.0  0.60000  0.06700  0.62210  1.0000
  O   O12       1.0  0.40000  0.93300  0.37790  1.0000
  O   O13       1.0  0.76350  0.42780  0.21590  1.0000
  O   O14       1.0  0.23650  0.57220  0.78410  1.0000
  O   O15       1.0  0.80790  0.24840  0.26130  1.0000
  O   O16       1.0  0.19210  0.75160  0.73870  1.0000
  O   O17       1.0  0.14560  0.46490  0.16600  1.0000
  O   O18       1.0  0.85440  0.53510  0.83400  1.0000
  O   O19       1.0  0.96230  0.55240  0.22010  1.0000
  O   O20       1.0  0.03770  0.44760  0.77990  1.0000
  N   N1        1.0  0.02170  0.30240  0.10470  1.0000
  N   N2        1.0  0.97830  0.69760  0.89530  1.0000
  N   N3        1.0  0.04060  0.17770  0.03970  1.0000
  N   N4        1.0  0.95940  0.82230  0.96030  1.0000
  N   N5        1.0  0.41990  0.14940  0.13590  1.0000
  N   N6        1.0  0.58010  0.85060  0.86410  1.0000
  N   N7        1.0  0.47170  0.28940  0.05590  1.0000
  N   N8        1.0  0.52830  0.71060  0.94410  1.0000
  C   C1        1.0  0.28610  0.89250  0.20600  1.0000
  C   C2        1.0  0.71390  0.10750  0.79400  1.0000
  C   C3        1.0  0.23440  0.79990  0.20030  1.0000
  C   C4        1.0  0.76560  0.20010  0.79970  1.0000
  C   C5        1.0  0.31760  0.69130  0.22290  1.0000
  C   C6        1.0  0.68240  0.30870  0.77710  1.0000
  H   H1        1.0  0.40725  0.67663  0.23734  1.0000
  H   H2        1.0  0.59275  0.32337  0.76266  1.0000
  C   C7        1.0  0.27030  0.60420  0.22440  1.0000
  C   C8        1.0  0.72970  0.39580  0.77560  1.0000
  C   C9        1.0  0.13870  0.62850  0.19950  1.0000
  C   C10       1.0  0.86130  0.37150  0.80050  1.0000
  C   C11       1.0  0.07850  0.54190  0.19590  1.0000
  C   C12       1.0  0.92150  0.45810  0.80410  1.0000
  C   C13       1.0  0.16630  0.23780  0.33330  1.0000
  C   C14       1.0  0.83370  0.76220  0.66670  1.0000
  C   C15       1.0  0.25150  0.19390  0.40650  1.0000
  C   C16       1.0  0.74850  0.80610  0.59350  1.0000
  C   C17       1.0  0.36580  0.22240  0.41290  1.0000
  C   C18       1.0  0.63420  0.77760  0.58710  1.0000
  C   C19       1.0  0.44010  0.17420  0.48250  1.0000
  C   C20       1.0  0.55990  0.82580  0.51750  1.0000
  H   H3        1.0  0.51548  0.19576  0.48741  1.0000
  H   H4        1.0  0.48452  0.80424  0.51259  1.0000
  C   C21       1.0  0.40920  0.09560  0.54550  1.0000
  C   C22       1.0  0.59080  0.90440  0.45450  1.0000
  C   C23       1.0  0.49450  0.04340  0.62070  1.0000
  C   C24       1.0  0.50550  0.95660  0.37930  1.0000
  C   C25       1.0  0.29680  0.06480  0.54120  1.0000
  C   C26       1.0  0.70320  0.93520  0.45880  1.0000
  H   H5        1.0  0.27434  0.01114  0.58445  1.0000
  H   H6        1.0  0.72566  0.98886  0.41555  1.0000
  C   C27       1.0  0.21830  0.11480  0.47190  1.0000
  C   C28       1.0  0.78170  0.88520  0.52810  1.0000
  H   H7        1.0  0.14067  0.09542  0.46841  1.0000
  H   H8        1.0  0.85933  0.90458  0.53159  1.0000
  C   C29       1.0  0.40700  0.30650  0.34600  1.0000
  C   C30       1.0  0.59300  0.69350  0.65400  1.0000
  C   C31       1.0  0.54040  0.28310  0.32190  1.0000
  C   C32       1.0  0.45960  0.71690  0.67810  1.0000
  H   H9        1.0  0.60147  0.21250  0.34364  1.0000
  H   H10       1.0  0.39853  0.78750  0.65636  1.0000
  C   C33       1.0  0.58350  0.36390  0.26560  1.0000
  C   C34       1.0  0.41650  0.63610  0.73440  1.0000
  C   C35       1.0  0.72790  0.34360  0.24530  1.0000
  C   C36       1.0  0.27210  0.65640  0.75470  1.0000
  C   C37       1.0  0.49450  0.46470  0.23380  1.0000
  C   C38       1.0  0.50550  0.53530  0.76620  1.0000
  H   H11       1.0  0.52423  0.51921  0.19559  1.0000
  H   H12       1.0  0.47577  0.48079  0.80441  1.0000
  C   C39       1.0  0.36110  0.48920  0.25610  1.0000
  C   C40       1.0  0.63890  0.51080  0.74390  1.0000
  C   C41       1.0  0.31740  0.41070  0.31260  1.0000
  C   C42       1.0  0.68260  0.58930  0.68740  1.0000
  H   H13       1.0  0.22681  0.42723  0.32877  1.0000
  H   H14       1.0  0.77319  0.57277  0.67123  1.0000
  C   C43       1.0  0.98430  0.21880  0.10270  1.0000
  C   C44       1.0  0.01570  0.78120  0.89730  1.0000
  H   H15       1.0  0.92520  0.19049  0.14061  1.0000
  H   H16       1.0  0.07480  0.80951  0.85939  1.0000
  C   C45       1.0  0.02120  0.08580  0.01950  1.0000
  C   C46       1.0  0.97880  0.91420  0.98050  1.0000
  C   C47       1.0  0.12040  0.02080  0.98230  1.0000
  C   C48       1.0  0.87960  0.97920  0.01770  1.0000
  H   H17       1.0  0.20246  0.03593  0.96971  1.0000
  H   H18       1.0  0.79754  0.96407  0.03029  1.0000
  C   C49       1.0  0.89990  0.06690  0.03660  1.0000
  C   C50       1.0  0.10010  0.93310  0.96340  1.0000
  H   H19       1.0  0.83110  0.11384  0.06114  1.0000
  H   H20       1.0  0.16890  0.88616  0.93886  1.0000
  C   C51       1.0  0.11910  0.24210  0.99860  1.0000
  C   C52       1.0  0.88090  0.75790  0.00140  1.0000
  H   H21       1.0  0.17099  0.23507  0.95132  1.0000
  H   H22       1.0  0.82901  0.76493  0.04868  1.0000
  C   C53       1.0  0.10530  0.31580  0.04020  1.0000
  C   C54       1.0  0.89470  0.68420  0.95980  1.0000
  H   H23       1.0  0.14833  0.37086  0.02659  1.0000
  H   H24       1.0  0.85167  0.62914  0.97341  1.0000
  C   C55       1.0  0.05710  0.73770  0.17820  1.0000
  C   C56       1.0  0.94290  0.26230  0.82180  1.0000
  H   H25       1.0  0.96757  0.75325  0.16312  1.0000
  H   H26       1.0  0.03243  0.24675  0.83688  1.0000
  C   C57       1.0  0.10380  0.82470  0.17860  1.0000
  C   C58       1.0  0.89620  0.17530  0.82140  1.0000
  H   H27       1.0  0.04723  0.89848  0.16430  1.0000
  H   H28       1.0  0.95277  0.10152  0.83570  1.0000
  C   C59       1.0  0.41470  0.25200  0.12680  1.0000
  C   C60       1.0  0.58530  0.74800  0.87320  1.0000
  H   H29       1.0  0.37643  0.29361  0.16453  1.0000
  H   H30       1.0  0.62357  0.70639  0.83547  1.0000
  C   C61       1.0  0.48620  0.39760  0.02660  1.0000
  C   C62       1.0  0.51380  0.60240  0.97340  1.0000
  C   C63       1.0  0.38480  0.48720  0.04050  1.0000
  C   C64       1.0  0.61520  0.51280  0.95950  1.0000
  H   H31       1.0  0.30600  0.47782  0.06792  1.0000
  H   H32       1.0  0.69400  0.52218  0.93208  1.0000
  C   C65       1.0  0.59910  0.41120  0.98600  1.0000
  C   C66       1.0  0.40090  0.58880  0.01400  1.0000
  H   H33       1.0  0.66677  0.34935  0.97628  1.0000
  H   H34       1.0  0.33323  0.65065  0.02372  1.0000
  C   C67       1.0  0.51320  0.20660  0.01870  1.0000
  C   C68       1.0  0.48680  0.79340  0.98130  1.0000
  H   H35       1.0  0.55571  0.20926  0.96749  1.0000
  H   H36       1.0  0.44429  0.79074  0.03251  1.0000
  C   C69       1.0  0.48200  0.11970  0.06920  1.0000
  C   C70       1.0  0.51800  0.88030  0.93080  1.0000
  H   H37       1.0  0.50031  0.04958  0.05958  1.0000
  H   H38       1.0  0.49969  0.95042  0.94042  1.0000
