data_image0
_chemical_formula_structural       C6H2C2H2C2H2C2H2C2H4C4H2C2H2CrMo6N2NaO16H2O4H2O8H2
_chemical_formula_sum              "C20 H22 Cr1 Mo6 N2 Na1 O28"
_cell_length_a       9.9536
_cell_length_b       11.7858
_cell_length_c       12.3214
_cell_angle_alpha    114.368
_cell_angle_beta     91.155
_cell_angle_gamma    93.198

_space_group_name_H-M_alt    "P 1"
_space_group_IT_number       1

loop_
  _space_group_symop_operation_xyz
  'x, y, z'

loop_
  _atom_site_type_symbol
  _atom_site_label
  _atom_site_symmetry_multiplicity
  _atom_site_fract_x
  _atom_site_fract_y
  _atom_site_fract_z
  _atom_site_occupancy
  C   C1        1.0  0.74900  0.45190  0.63990  1.0000
  C   C2        1.0  0.25100  0.54810  0.36010  1.0000
  C   C3        1.0  0.87730  0.53450  0.65590  1.0000
  C   C4        1.0  0.12270  0.46550  0.34410  1.0000
  C   C5        1.0  0.00370  0.48730  0.63440  1.0000
  C   C6        1.0  0.99630  0.51270  0.36560  1.0000
  H   H1        1.0  0.01205  0.40037  0.60993  1.0000
  H   H2        1.0  0.98795  0.59963  0.39007  1.0000
  C   C7        1.0  0.11640  0.56520  0.64810  1.0000
  C   C8        1.0  0.88360  0.43480  0.35190  1.0000
  H   H3        1.0  0.20318  0.53360  0.63718  1.0000
  H   H4        1.0  0.79682  0.46640  0.36282  1.0000
  C   C9        1.0  0.10170  0.69220  0.67850  1.0000
  C   C10       1.0  0.89830  0.30780  0.32150  1.0000
  H   H5        1.0  0.17795  0.74664  0.68371  1.0000
  H   H6        1.0  0.82205  0.25336  0.31629  1.0000
  C   C11       1.0  0.86770  0.65980  0.68870  1.0000
  C   C12       1.0  0.13230  0.34020  0.31130  1.0000
  H   H7        1.0  0.78221  0.69385  0.70359  1.0000
  H   H8        1.0  0.21779  0.30615  0.29641  1.0000
  C   C13       1.0  0.96830  0.87380  0.74070  1.0000
  C   C14       1.0  0.03170  0.12620  0.25930  1.0000
  H   H9        1.0  0.87906  0.88882  0.71435  1.0000
  H   H10       1.0  0.12094  0.11118  0.28565  1.0000
  H   H11       1.0  0.03834  0.90808  0.70436  1.0000
  H   H12       1.0  0.96166  0.09192  0.29564  1.0000
  C   C15       1.0  0.98550  0.93930  0.87600  1.0000
  C   C16       1.0  0.01450  0.06070  0.12400  1.0000
  C   C17       1.0  0.11440  0.96350  0.93220  1.0000
  C   C18       1.0  0.88560  0.03650  0.06780  1.0000
  H   H13       1.0  0.19154  0.93863  0.88608  1.0000
  H   H14       1.0  0.80846  0.06137  0.11392  1.0000
  C   C19       1.0  0.87150  0.97550  0.94370  1.0000
  C   C20       1.0  0.12850  0.02450  0.05630  1.0000
  H   H15       1.0  0.78444  0.95861  0.90510  1.0000
  H   H16       1.0  0.21556  0.04139  0.09490  1.0000
  Cr  Cr1       1.0  0.50000  0.00000  0.50000  1.0000
  Mo  Mo1       1.0  0.30460  0.23063  0.53357  1.0000
  Mo  Mo2       1.0  0.69540  0.76937  0.46643  1.0000
  Mo  Mo3       1.0  0.51935  0.13990  0.31486  1.0000
  Mo  Mo4       1.0  0.48065  0.86010  0.68514  1.0000
  Mo  Mo5       1.0  0.71006  0.90649  0.27947  1.0000
  Mo  Mo6       1.0  0.28994  0.09351  0.72053  1.0000
  N   N1        1.0  0.98000  0.73570  0.70000  1.0000
  N   N2        1.0  0.02000  0.26430  0.30000  1.0000
  Na  Na1       1.0  0.50000  0.50000  0.50000  1.0000
  O   O1        1.0  0.75980  0.33770  0.60870  1.0000
  O   O2        1.0  0.24020  0.66230  0.39130  1.0000
  O   O3        1.0  0.64210  0.50690  0.66100  1.0000
  O   O4        1.0  0.35790  0.49310  0.33900  1.0000
  O   O5        1.0  0.56920  0.29380  0.35350  1.0000
  O   O6        1.0  0.43080  0.70620  0.64650  1.0000
  O   O7        1.0  0.48110  0.07690  0.16450  1.0000
  O   O8        1.0  0.51890  0.92310  0.83550  1.0000
  O   O9        1.0  0.35240  0.38270  0.56410  1.0000
  O   O10       1.0  0.64760  0.61730  0.43590  1.0000
  O   O11       1.0  0.33480  0.15250  0.36650  1.0000
  O   O12       1.0  0.66520  0.84750  0.63350  1.0000
  O   O13       1.0  0.13140  0.22030  0.52410  1.0000
  O   O14       1.0  0.86860  0.77970  0.47590  1.0000
  O   O15       1.0  0.52540  0.17250  0.51130  1.0000
  O   O16       1.0  0.47460  0.82750  0.48870  1.0000
  H   H17       1.0  0.59982  0.21563  0.53493  1.0000
  H   H18       1.0  0.40018  0.78437  0.46507  1.0000
  O   O17       1.0  0.66090  0.75890  0.30750  1.0000
  O   O18       1.0  0.33910  0.24110  0.69250  1.0000
  O   O19       1.0  0.30860  0.03450  0.52170  1.0000
  O   O20       1.0  0.69140  0.96550  0.47830  1.0000
  H   H19       1.0  0.25030  0.98095  0.47218  1.0000
  H   H20       1.0  0.74970  0.01905  0.52782  1.0000
  O   O21       1.0  0.88220  0.90710  0.29170  1.0000
  O   O22       1.0  0.11780  0.09290  0.70830  1.0000
  O   O23       1.0  0.69730  0.08030  0.31760  1.0000
  O   O24       1.0  0.30270  0.91970  0.68240  1.0000
  O   O25       1.0  0.66770  0.84170  0.12920  1.0000
  O   O26       1.0  0.33230  0.15830  0.87080  1.0000
  O   O27       1.0  0.49330  0.95200  0.32660  1.0000
  O   O28       1.0  0.50670  0.04800  0.67340  1.0000
  H   H21       1.0  0.42464  0.90507  0.28733  1.0000
  H   H22       1.0  0.57536  0.09493  0.71267  1.0000
