data_image0
_chemical_formula_structural       Bi8O72N16C80H112
_chemical_formula_sum              "Bi8 O72 N16 C80 H112"
_cell_length_a       8.1316
_cell_length_b       19.2261
_cell_length_c       22.0019
_cell_angle_alpha    90
_cell_angle_beta     90
_cell_angle_gamma    90

_space_group_name_H-M_alt    "P 1"
_space_group_IT_number       1

loop_
  _space_group_symop_operation_xyz
  'x, y, z'

loop_
  _atom_site_type_symbol
  _atom_site_label
  _atom_site_symmetry_multiplicity
  _atom_site_fract_x
  _atom_site_fract_y
  _atom_site_fract_z
  _atom_site_occupancy
  Bi  Bi1       1.0  0.16788  0.12256  0.13329  1.0000
  Bi  Bi2       1.0  0.66788  0.12256  0.36671  1.0000
  Bi  Bi3       1.0  0.16788  0.37744  0.63329  1.0000
  Bi  Bi4       1.0  0.33212  0.62256  0.13329  1.0000
  Bi  Bi5       1.0  0.83212  0.87744  0.86671  1.0000
  Bi  Bi6       1.0  0.33212  0.87744  0.63329  1.0000
  Bi  Bi7       1.0  0.83212  0.62256  0.36671  1.0000
  Bi  Bi8       1.0  0.66788  0.37744  0.86671  1.0000
  O   O1        1.0  0.27780  0.14850  0.03710  1.0000
  O   O2        1.0  0.77780  0.14850  0.46290  1.0000
  O   O3        1.0  0.27780  0.35150  0.53710  1.0000
  O   O4        1.0  0.22220  0.64850  0.03710  1.0000
  O   O5        1.0  0.72220  0.85150  0.96290  1.0000
  O   O6        1.0  0.22220  0.85150  0.53710  1.0000
  O   O7        1.0  0.72220  0.64850  0.46290  1.0000
  O   O8        1.0  0.77780  0.35150  0.96290  1.0000
  O   O9        1.0  0.39890  0.22570  0.97810  1.0000
  O   O10       1.0  0.89890  0.22570  0.52190  1.0000
  O   O11       1.0  0.39890  0.27430  0.47810  1.0000
  O   O12       1.0  0.10110  0.72570  0.97810  1.0000
  O   O13       1.0  0.60110  0.77430  0.02190  1.0000
  O   O14       1.0  0.10110  0.77430  0.47810  1.0000
  O   O15       1.0  0.60110  0.72570  0.52190  1.0000
  O   O16       1.0  0.89890  0.27430  0.02190  1.0000
  O   O17       1.0  0.06130  0.23610  0.16520  1.0000
  O   O18       1.0  0.56130  0.23610  0.33480  1.0000
  O   O19       1.0  0.06130  0.26390  0.66520  1.0000
  O   O20       1.0  0.43870  0.73610  0.16520  1.0000
  O   O21       1.0  0.93870  0.76390  0.83480  1.0000
  O   O22       1.0  0.43870  0.76390  0.66520  1.0000
  O   O23       1.0  0.93870  0.73610  0.33480  1.0000
  O   O24       1.0  0.56130  0.26390  0.83480  1.0000
  O   O25       1.0  0.10680  0.33630  0.21200  1.0000
  O   O26       1.0  0.60680  0.33630  0.28800  1.0000
  O   O27       1.0  0.10680  0.16370  0.71200  1.0000
  O   O28       1.0  0.39320  0.83630  0.21200  1.0000
  O   O29       1.0  0.89320  0.66370  0.78800  1.0000
  O   O30       1.0  0.39320  0.66370  0.71200  1.0000
  O   O31       1.0  0.89320  0.83630  0.28800  1.0000
  O   O32       1.0  0.60680  0.16370  0.78800  1.0000
  O   O33       1.0  0.27220  0.11290  0.23300  1.0000
  O   O34       1.0  0.77220  0.11290  0.26700  1.0000
  O   O35       1.0  0.27220  0.38710  0.73300  1.0000
  O   O36       1.0  0.22780  0.61290  0.23300  1.0000
  O   O37       1.0  0.72780  0.88710  0.76700  1.0000
  O   O38       1.0  0.22780  0.88710  0.73300  1.0000
  O   O39       1.0  0.72780  0.61290  0.26700  1.0000
  O   O40       1.0  0.77220  0.38710  0.76700  1.0000
  O   O41       1.0  0.44120  0.05890  0.29690  1.0000
  O   O42       1.0  0.94120  0.05890  0.20310  1.0000
  O   O43       1.0  0.44120  0.44110  0.79690  1.0000
  O   O44       1.0  0.05880  0.55890  0.29690  1.0000
  O   O45       1.0  0.55880  0.94110  0.70310  1.0000
  O   O46       1.0  0.05880  0.94110  0.79690  1.0000
  O   O47       1.0  0.55880  0.55890  0.20310  1.0000
  O   O48       1.0  0.94120  0.44110  0.70310  1.0000
  O   O49       1.0  0.14850  0.00340  0.09410  1.0000
  O   O50       1.0  0.64850  0.00340  0.40590  1.0000
  O   O51       1.0  0.14850  0.49660  0.59410  1.0000
  O   O52       1.0  0.35150  0.50340  0.09410  1.0000
  O   O53       1.0  0.85150  0.99660  0.90590  1.0000
  O   O54       1.0  0.35150  0.99660  0.59410  1.0000
  O   O55       1.0  0.85150  0.50340  0.40590  1.0000
  O   O56       1.0  0.64850  0.49660  0.90590  1.0000
  O   O57       1.0  0.27280  0.92610  0.03480  1.0000
  O   O58       1.0  0.77280  0.92610  0.46520  1.0000
  O   O59       1.0  0.27280  0.57390  0.53480  1.0000
  O   O60       1.0  0.22720  0.42610  0.03480  1.0000
  O   O61       1.0  0.72720  0.07390  0.96520  1.0000
  O   O62       1.0  0.22720  0.07390  0.53480  1.0000
  O   O63       1.0  0.72720  0.42610  0.46520  1.0000
  O   O64       1.0  0.77280  0.57390  0.96520  1.0000
  O   O65       1.0  0.91840  0.13720  0.05520  1.0000
  O   O66       1.0  0.41840  0.13720  0.44480  1.0000
  O   O67       1.0  0.91840  0.36280  0.55520  1.0000
  O   O68       1.0  0.58160  0.63720  0.05520  1.0000
  O   O69       1.0  0.08160  0.86280  0.94480  1.0000
  O   O70       1.0  0.58160  0.86280  0.55520  1.0000
  O   O71       1.0  0.08160  0.63720  0.44480  1.0000
  O   O72       1.0  0.41840  0.36280  0.94480  1.0000
  N   N1        1.0  0.38770  0.21460  0.14210  1.0000
  N   N2        1.0  0.88770  0.21460  0.35790  1.0000
  N   N3        1.0  0.38770  0.28540  0.64210  1.0000
  N   N4        1.0  0.11230  0.71460  0.14210  1.0000
  N   N5        1.0  0.61230  0.78540  0.85790  1.0000
  N   N6        1.0  0.11230  0.78540  0.64210  1.0000
  N   N7        1.0  0.61230  0.71460  0.35790  1.0000
  N   N8        1.0  0.88770  0.28540  0.85790  1.0000
  N   N9        1.0  0.43890  0.06190  0.13200  1.0000
  N   N10       1.0  0.93890  0.06190  0.36800  1.0000
  N   N11       1.0  0.43890  0.43810  0.63200  1.0000
  N   N12       1.0  0.06110  0.56190  0.13200  1.0000
  N   N13       1.0  0.56110  0.93810  0.86800  1.0000
  N   N14       1.0  0.06110  0.93810  0.63200  1.0000
  N   N15       1.0  0.56110  0.56190  0.36800  1.0000
  N   N16       1.0  0.93890  0.43810  0.86800  1.0000
  C   C1        1.0  0.35590  0.20520  0.02820  1.0000
  C   C2        1.0  0.85590  0.20520  0.47180  1.0000
  C   C3        1.0  0.35590  0.29480  0.52820  1.0000
  C   C4        1.0  0.14410  0.70520  0.02820  1.0000
  C   C5        1.0  0.64410  0.79480  0.97180  1.0000
  C   C6        1.0  0.14410  0.79480  0.52820  1.0000
  C   C7        1.0  0.64410  0.70520  0.47180  1.0000
  C   C8        1.0  0.85590  0.29480  0.97180  1.0000
  C   C9        1.0  0.39550  0.25080  0.08240  1.0000
  C   C10       1.0  0.89550  0.25080  0.41760  1.0000
  C   C11       1.0  0.39550  0.24920  0.58240  1.0000
  C   C12       1.0  0.10450  0.75080  0.08240  1.0000
  C   C13       1.0  0.60450  0.74920  0.91760  1.0000
  C   C14       1.0  0.10450  0.74920  0.58240  1.0000
  C   C15       1.0  0.60450  0.75080  0.41760  1.0000
  C   C16       1.0  0.89550  0.24920  0.91760  1.0000
  C   C17       1.0  0.15520  0.28080  0.18860  1.0000
  C   C18       1.0  0.65520  0.28080  0.31140  1.0000
  C   C19       1.0  0.15520  0.21920  0.68860  1.0000
  C   C20       1.0  0.34480  0.78080  0.18860  1.0000
  C   C21       1.0  0.84480  0.71920  0.81140  1.0000
  C   C22       1.0  0.34480  0.71920  0.68860  1.0000
  C   C23       1.0  0.84480  0.78080  0.31140  1.0000
  C   C24       1.0  0.65520  0.21920  0.81140  1.0000
  C   C25       1.0  0.33880  0.26450  0.19010  1.0000
  C   C26       1.0  0.83880  0.26450  0.30990  1.0000
  C   C27       1.0  0.33880  0.23550  0.69010  1.0000
  C   C28       1.0  0.16120  0.76450  0.19010  1.0000
  C   C29       1.0  0.66120  0.73550  0.80990  1.0000
  C   C30       1.0  0.16120  0.73550  0.69010  1.0000
  C   C31       1.0  0.66120  0.76450  0.30990  1.0000
  C   C32       1.0  0.83880  0.23550  0.80990  1.0000
  C   C33       1.0  0.38700  0.07010  0.24480  1.0000
  C   C34       1.0  0.88700  0.07010  0.25520  1.0000
  C   C35       1.0  0.38700  0.42990  0.74480  1.0000
  C   C36       1.0  0.11300  0.57010  0.24480  1.0000
  C   C37       1.0  0.61300  0.92990  0.75520  1.0000
  C   C38       1.0  0.11300  0.92990  0.74480  1.0000
  C   C39       1.0  0.61300  0.57010  0.25520  1.0000
  C   C40       1.0  0.88700  0.42990  0.75520  1.0000
  C   C41       1.0  0.45490  0.02700  0.19190  1.0000
  C   C42       1.0  0.95490  0.02700  0.30810  1.0000
  C   C43       1.0  0.45490  0.47300  0.69190  1.0000
  C   C44       1.0  0.04510  0.52700  0.19190  1.0000
  C   C45       1.0  0.54510  0.97300  0.80810  1.0000
  C   C46       1.0  0.04510  0.97300  0.69190  1.0000
  C   C47       1.0  0.54510  0.52700  0.30810  1.0000
  C   C48       1.0  0.95490  0.47300  0.80810  1.0000
  C   C49       1.0  0.57650  0.11320  0.12270  1.0000
  C   C50       1.0  0.07650  0.11320  0.37730  1.0000
  C   C51       1.0  0.57650  0.38680  0.62270  1.0000
  C   C52       1.0  0.92350  0.61320  0.12270  1.0000
  C   C53       1.0  0.42350  0.88680  0.87730  1.0000
  C   C54       1.0  0.92350  0.88680  0.62270  1.0000
  C   C55       1.0  0.42350  0.61320  0.37730  1.0000
  C   C56       1.0  0.07650  0.38680  0.87730  1.0000
  C   C57       1.0  0.54680  0.18070  0.15780  1.0000
  C   C58       1.0  0.04680  0.18070  0.34220  1.0000
  C   C59       1.0  0.54680  0.31930  0.65780  1.0000
  C   C60       1.0  0.95320  0.68070  0.15780  1.0000
  C   C61       1.0  0.45320  0.81930  0.84220  1.0000
  C   C62       1.0  0.95320  0.81930  0.65780  1.0000
  C   C63       1.0  0.45320  0.68070  0.34220  1.0000
  C   C64       1.0  0.04680  0.31930  0.84220  1.0000
  C   C65       1.0  0.44070  0.00940  0.08210  1.0000
  C   C66       1.0  0.94070  0.00940  0.41790  1.0000
  C   C67       1.0  0.44070  0.49060  0.58210  1.0000
  C   C68       1.0  0.05930  0.50940  0.08210  1.0000
  C   C69       1.0  0.55930  0.99060  0.91790  1.0000
  C   C70       1.0  0.05930  0.99060  0.58210  1.0000
  C   C71       1.0  0.55930  0.50940  0.41790  1.0000
  C   C72       1.0  0.94070  0.49060  0.91790  1.0000
  C   C73       1.0  0.27440  0.97620  0.06970  1.0000
  C   C74       1.0  0.77440  0.97620  0.43030  1.0000
  C   C75       1.0  0.27440  0.52380  0.56970  1.0000
  C   C76       1.0  0.22560  0.47620  0.06970  1.0000
  C   C77       1.0  0.72560  0.02380  0.93030  1.0000
  C   C78       1.0  0.22560  0.02380  0.56970  1.0000
  C   C79       1.0  0.72560  0.47620  0.43030  1.0000
  C   C80       1.0  0.77440  0.52380  0.93030  1.0000
  H   H1        1.0  0.92910  0.10360  0.02310  1.0000
  H   H2        1.0  0.42910  0.10360  0.47690  1.0000
  H   H3        1.0  0.92910  0.39640  0.52310  1.0000
  H   H4        1.0  0.57090  0.60360  0.02310  1.0000
  H   H5        1.0  0.07090  0.89640  0.97690  1.0000
  H   H6        1.0  0.57090  0.89640  0.52310  1.0000
  H   H7        1.0  0.07090  0.60360  0.47690  1.0000
  H   H8        1.0  0.42910  0.39640  0.97690  1.0000
  H   H9        1.0  0.92040  0.18320  0.03830  1.0000
  H   H10       1.0  0.42040  0.18320  0.46170  1.0000
  H   H11       1.0  0.92040  0.31680  0.53830  1.0000
  H   H12       1.0  0.57960  0.68320  0.03830  1.0000
  H   H13       1.0  0.07960  0.81680  0.96170  1.0000
  H   H14       1.0  0.57960  0.81680  0.53830  1.0000
  H   H15       1.0  0.07960  0.68320  0.46170  1.0000
  H   H16       1.0  0.42040  0.31680  0.96170  1.0000
  H   H17       1.0  0.50520  0.26980  0.07720  1.0000
  H   H18       1.0  0.00520  0.26980  0.42280  1.0000
  H   H19       1.0  0.50520  0.23020  0.57720  1.0000
  H   H20       1.0  0.99480  0.76980  0.07720  1.0000
  H   H21       1.0  0.49480  0.73020  0.92280  1.0000
  H   H22       1.0  0.99480  0.73020  0.57720  1.0000
  H   H23       1.0  0.49480  0.76980  0.42280  1.0000
  H   H24       1.0  0.00520  0.23020  0.92280  1.0000
  H   H25       1.0  0.31910  0.28960  0.08310  1.0000
  H   H26       1.0  0.81910  0.28960  0.41690  1.0000
  H   H27       1.0  0.31910  0.21040  0.58310  1.0000
  H   H28       1.0  0.18090  0.78960  0.08310  1.0000
  H   H29       1.0  0.68090  0.71040  0.91690  1.0000
  H   H30       1.0  0.18090  0.71040  0.58310  1.0000
  H   H31       1.0  0.68090  0.78960  0.41690  1.0000
  H   H32       1.0  0.81910  0.21040  0.91690  1.0000
  H   H33       1.0  0.40040  0.30730  0.18490  1.0000
  H   H34       1.0  0.90040  0.30730  0.31510  1.0000
  H   H35       1.0  0.40040  0.19270  0.68490  1.0000
  H   H36       1.0  0.09960  0.80730  0.18490  1.0000
  H   H37       1.0  0.59960  0.69270  0.81510  1.0000
  H   H38       1.0  0.09960  0.69270  0.68490  1.0000
  H   H39       1.0  0.59960  0.80730  0.31510  1.0000
  H   H40       1.0  0.90040  0.19270  0.81510  1.0000
  H   H41       1.0  0.36690  0.24530  0.22950  1.0000
  H   H42       1.0  0.86690  0.24530  0.27050  1.0000
  H   H43       1.0  0.36690  0.25470  0.72950  1.0000
  H   H44       1.0  0.13310  0.74530  0.22950  1.0000
  H   H45       1.0  0.63310  0.75470  0.77050  1.0000
  H   H46       1.0  0.13310  0.75470  0.72950  1.0000
  H   H47       1.0  0.63310  0.74530  0.27050  1.0000
  H   H48       1.0  0.86690  0.25470  0.77050  1.0000
  H   H49       1.0  0.57010  0.01720  0.19940  1.0000
  H   H50       1.0  0.07010  0.01720  0.30060  1.0000
  H   H51       1.0  0.57010  0.48280  0.69940  1.0000
  H   H52       1.0  0.92990  0.51720  0.19940  1.0000
  H   H53       1.0  0.42990  0.98280  0.80060  1.0000
  H   H54       1.0  0.92990  0.98280  0.69940  1.0000
  H   H55       1.0  0.42990  0.51720  0.30060  1.0000
  H   H56       1.0  0.07010  0.48280  0.80060  1.0000
  H   H57       1.0  0.39700  0.98290  0.19040  1.0000
  H   H58       1.0  0.89700  0.98290  0.30960  1.0000
  H   H59       1.0  0.39700  0.51710  0.69040  1.0000
  H   H60       1.0  0.10300  0.48290  0.19040  1.0000
  H   H61       1.0  0.60300  0.01710  0.80960  1.0000
  H   H62       1.0  0.10300  0.01710  0.69040  1.0000
  H   H63       1.0  0.60300  0.48290  0.30960  1.0000
  H   H64       1.0  0.89700  0.51710  0.80960  1.0000
  H   H65       1.0  0.58650  0.12360  0.07970  1.0000
  H   H66       1.0  0.08650  0.12360  0.42030  1.0000
  H   H67       1.0  0.58650  0.37640  0.57970  1.0000
  H   H68       1.0  0.91350  0.62360  0.07970  1.0000
  H   H69       1.0  0.41350  0.87640  0.92030  1.0000
  H   H70       1.0  0.91350  0.87640  0.57970  1.0000
  H   H71       1.0  0.41350  0.62360  0.42030  1.0000
  H   H72       1.0  0.08650  0.37640  0.92030  1.0000
  H   H73       1.0  0.67920  0.09250  0.13610  1.0000
  H   H74       1.0  0.17920  0.09250  0.36390  1.0000
  H   H75       1.0  0.67920  0.40750  0.63610  1.0000
  H   H76       1.0  0.82080  0.59250  0.13610  1.0000
  H   H77       1.0  0.32080  0.90750  0.86390  1.0000
  H   H78       1.0  0.82080  0.90750  0.63610  1.0000
  H   H79       1.0  0.32080  0.59250  0.36390  1.0000
  H   H80       1.0  0.17920  0.40750  0.86390  1.0000
  H   H81       1.0  0.54820  0.17070  0.20100  1.0000
  H   H82       1.0  0.04820  0.17070  0.29900  1.0000
  H   H83       1.0  0.54820  0.32930  0.70100  1.0000
  H   H84       1.0  0.95180  0.67070  0.20100  1.0000
  H   H85       1.0  0.45180  0.82930  0.79900  1.0000
  H   H86       1.0  0.95180  0.82930  0.70100  1.0000
  H   H87       1.0  0.45180  0.67070  0.29900  1.0000
  H   H88       1.0  0.04820  0.32930  0.79900  1.0000
  H   H89       1.0  0.63580  0.21280  0.14940  1.0000
  H   H90       1.0  0.13580  0.21280  0.35060  1.0000
  H   H91       1.0  0.63580  0.28720  0.64940  1.0000
  H   H92       1.0  0.86420  0.71280  0.14940  1.0000
  H   H93       1.0  0.36420  0.78720  0.85060  1.0000
  H   H94       1.0  0.86420  0.78720  0.64940  1.0000
  H   H95       1.0  0.36420  0.71280  0.35060  1.0000
  H   H96       1.0  0.13580  0.28720  0.85060  1.0000
  H   H97       1.0  0.51870  0.97310  0.09240  1.0000
  H   H98       1.0  0.01870  0.97310  0.40760  1.0000
  H   H99       1.0  0.51870  0.52690  0.59240  1.0000
  H   H100      1.0  0.98130  0.47310  0.09240  1.0000
  H   H101      1.0  0.48130  0.02690  0.90760  1.0000
  H   H102      1.0  0.98130  0.02690  0.59240  1.0000
  H   H103      1.0  0.48130  0.47310  0.40760  1.0000
  H   H104      1.0  0.01870  0.52690  0.90760  1.0000
  H   H105      1.0  0.47910  0.03170  0.04520  1.0000
  H   H106      1.0  0.97910  0.03170  0.45480  1.0000
  H   H107      1.0  0.47910  0.46830  0.54520  1.0000
  H   H108      1.0  0.02090  0.53170  0.04520  1.0000
  H   H109      1.0  0.52090  0.96830  0.95480  1.0000
  H   H110      1.0  0.02090  0.96830  0.54520  1.0000
  H   H111      1.0  0.52090  0.53170  0.45480  1.0000
  H   H112      1.0  0.97910  0.46830  0.95480  1.0000
