data_image0
_chemical_formula_structural       Bi8N16O72C80H112
_chemical_formula_sum              "Bi8 N16 O72 C80 H112"
_cell_length_a       8.111
_cell_length_b       19.172
_cell_length_c       21.965
_cell_angle_alpha    90
_cell_angle_beta     90
_cell_angle_gamma    90

_space_group_name_H-M_alt    "P 1"
_space_group_IT_number       1

loop_
  _space_group_symop_operation_xyz
  'x, y, z'

loop_
  _atom_site_type_symbol
  _atom_site_label
  _atom_site_symmetry_multiplicity
  _atom_site_fract_x
  _atom_site_fract_y
  _atom_site_fract_z
  _atom_site_occupancy
  Bi  Bi1       1.0  0.66844  0.12276  0.36665  1.0000
  Bi  Bi2       1.0  0.83156  0.87724  0.86665  1.0000
  Bi  Bi3       1.0  0.16844  0.37724  0.63335  1.0000
  Bi  Bi4       1.0  0.33156  0.62276  0.13335  1.0000
  Bi  Bi5       1.0  0.33156  0.87724  0.63335  1.0000
  Bi  Bi6       1.0  0.16844  0.12276  0.13335  1.0000
  Bi  Bi7       1.0  0.83156  0.62276  0.36665  1.0000
  Bi  Bi8       1.0  0.66844  0.37724  0.86665  1.0000
  N   N1        1.0  0.90100  0.21540  0.35810  1.0000
  N   N2        1.0  0.59900  0.78460  0.85810  1.0000
  N   N3        1.0  0.40100  0.28460  0.64190  1.0000
  N   N4        1.0  0.09900  0.71540  0.14190  1.0000
  N   N5        1.0  0.09900  0.78460  0.64190  1.0000
  N   N6        1.0  0.40100  0.21540  0.14190  1.0000
  N   N7        1.0  0.59900  0.71540  0.35810  1.0000
  N   N8        1.0  0.90100  0.28460  0.85810  1.0000
  N   N9        1.0  0.95000  0.06240  0.36960  1.0000
  N   N10       1.0  0.55000  0.93760  0.86960  1.0000
  N   N11       1.0  0.45000  0.43760  0.63040  1.0000
  N   N12       1.0  0.05000  0.56240  0.13040  1.0000
  N   N13       1.0  0.05000  0.93760  0.63040  1.0000
  N   N14       1.0  0.45000  0.06240  0.13040  1.0000
  N   N15       1.0  0.55000  0.56240  0.36960  1.0000
  N   N16       1.0  0.95000  0.43760  0.86960  1.0000
  O   O1        1.0  0.77800  0.14840  0.46290  1.0000
  O   O2        1.0  0.72200  0.85160  0.96290  1.0000
  O   O3        1.0  0.27800  0.35160  0.53710  1.0000
  O   O4        1.0  0.22200  0.64840  0.03710  1.0000
  O   O5        1.0  0.22200  0.85160  0.53710  1.0000
  O   O6        1.0  0.27800  0.14840  0.03710  1.0000
  O   O7        1.0  0.72200  0.64840  0.46290  1.0000
  O   O8        1.0  0.77800  0.35160  0.96290  1.0000
  O   O9        1.0  0.90000  0.22640  0.52190  1.0000
  O   O10       1.0  0.60000  0.77360  0.02190  1.0000
  O   O11       1.0  0.40000  0.27360  0.47810  1.0000
  O   O12       1.0  0.10000  0.72640  0.97810  1.0000
  O   O13       1.0  0.10000  0.77360  0.47810  1.0000
  O   O14       1.0  0.40000  0.22640  0.97810  1.0000
  O   O15       1.0  0.60000  0.72640  0.52190  1.0000
  O   O16       1.0  0.90000  0.27360  0.02190  1.0000
  O   O17       1.0  0.55700  0.23570  0.33680  1.0000
  O   O18       1.0  0.94300  0.76430  0.83680  1.0000
  O   O19       1.0  0.05700  0.26430  0.66320  1.0000
  O   O20       1.0  0.44300  0.73570  0.16320  1.0000
  O   O21       1.0  0.44300  0.76430  0.66320  1.0000
  O   O22       1.0  0.05700  0.23570  0.16320  1.0000
  O   O23       1.0  0.94300  0.73570  0.33680  1.0000
  O   O24       1.0  0.55700  0.26430  0.83680  1.0000
  O   O25       1.0  0.60900  0.33610  0.28760  1.0000
  O   O26       1.0  0.89100  0.66390  0.78760  1.0000
  O   O27       1.0  0.10900  0.16390  0.71240  1.0000
  O   O28       1.0  0.39100  0.83610  0.21240  1.0000
  O   O29       1.0  0.39100  0.66390  0.71240  1.0000
  O   O30       1.0  0.10900  0.33610  0.21240  1.0000
  O   O31       1.0  0.89100  0.83610  0.28760  1.0000
  O   O32       1.0  0.60900  0.16390  0.78760  1.0000
  O   O33       1.0  0.77300  0.11360  0.26660  1.0000
  O   O34       1.0  0.72700  0.88640  0.76660  1.0000
  O   O35       1.0  0.27300  0.38640  0.73340  1.0000
  O   O36       1.0  0.22700  0.61360  0.23340  1.0000
  O   O37       1.0  0.22700  0.88640  0.73340  1.0000
  O   O38       1.0  0.27300  0.11360  0.23340  1.0000
  O   O39       1.0  0.72700  0.61360  0.26660  1.0000
  O   O40       1.0  0.77300  0.38640  0.76660  1.0000
  O   O41       1.0  0.94200  0.05890  0.20430  1.0000
  O   O42       1.0  0.55800  0.94110  0.70430  1.0000
  O   O43       1.0  0.44200  0.44110  0.79570  1.0000
  O   O44       1.0  0.05800  0.55890  0.29570  1.0000
  O   O45       1.0  0.05800  0.94110  0.79570  1.0000
  O   O46       1.0  0.44200  0.05890  0.29570  1.0000
  O   O47       1.0  0.55800  0.55890  0.20430  1.0000
  O   O48       1.0  0.94200  0.44110  0.70430  1.0000
  O   O49       1.0  0.64900  0.00280  0.40630  1.0000
  O   O50       1.0  0.85100  0.99720  0.90630  1.0000
  O   O51       1.0  0.14900  0.49720  0.59370  1.0000
  O   O52       1.0  0.35100  0.50280  0.09370  1.0000
  O   O53       1.0  0.35100  0.99720  0.59370  1.0000
  O   O54       1.0  0.14900  0.00280  0.09370  1.0000
  O   O55       1.0  0.85100  0.50280  0.40630  1.0000
  O   O56       1.0  0.64900  0.49720  0.90630  1.0000
  O   O57       1.0  0.77000  0.92570  0.46570  1.0000
  O   O58       1.0  0.73000  0.07430  0.96570  1.0000
  O   O59       1.0  0.27000  0.57430  0.53430  1.0000
  O   O60       1.0  0.23000  0.42570  0.03430  1.0000
  O   O61       1.0  0.23000  0.07430  0.53430  1.0000
  O   O62       1.0  0.27000  0.92570  0.03430  1.0000
  O   O63       1.0  0.73000  0.42570  0.46570  1.0000
  O   O64       1.0  0.77000  0.57430  0.96570  1.0000
  O   O65       1.0  0.41900  0.13680  0.44600  1.0000
  O   O66       1.0  0.08100  0.86320  0.94600  1.0000
  O   O67       1.0  0.91900  0.36320  0.55400  1.0000
  O   O68       1.0  0.58100  0.63680  0.05400  1.0000
  O   O69       1.0  0.58100  0.86320  0.55400  1.0000
  O   O70       1.0  0.91900  0.13680  0.05400  1.0000
  O   O71       1.0  0.08100  0.63680  0.44600  1.0000
  O   O72       1.0  0.41900  0.36320  0.94600  1.0000
  C   C1        1.0  0.86000  0.20600  0.47190  1.0000
  C   C2        1.0  0.64000  0.79400  0.97190  1.0000
  C   C3        1.0  0.36000  0.29400  0.52810  1.0000
  C   C4        1.0  0.14000  0.70600  0.02810  1.0000
  C   C5        1.0  0.14000  0.79400  0.52810  1.0000
  C   C6        1.0  0.36000  0.20600  0.02810  1.0000
  C   C7        1.0  0.64000  0.70600  0.47190  1.0000
  C   C8        1.0  0.86000  0.29400  0.97190  1.0000
  C   C9        1.0  0.89800  0.25200  0.41850  1.0000
  C   C10       1.0  0.60200  0.74800  0.91850  1.0000
  C   C11       1.0  0.39800  0.24800  0.58150  1.0000
  C   C12       1.0  0.10200  0.75200  0.08150  1.0000
  C   C13       1.0  0.10200  0.74800  0.58150  1.0000
  C   C14       1.0  0.39800  0.25200  0.08150  1.0000
  C   C15       1.0  0.60200  0.75200  0.41850  1.0000
  C   C16       1.0  0.89800  0.24800  0.91850  1.0000
  C   C17       1.0  0.66000  0.28100  0.31010  1.0000
  C   C18       1.0  0.84000  0.71900  0.81010  1.0000
  C   C19       1.0  0.16000  0.21900  0.68990  1.0000
  C   C20       1.0  0.34000  0.78100  0.18990  1.0000
  C   C21       1.0  0.34000  0.71900  0.68990  1.0000
  C   C22       1.0  0.16000  0.28100  0.18990  1.0000
  C   C23       1.0  0.84000  0.78100  0.31010  1.0000
  C   C24       1.0  0.66000  0.21900  0.81010  1.0000
  C   C25       1.0  0.83400  0.26500  0.30950  1.0000
  C   C26       1.0  0.66600  0.73500  0.80950  1.0000
  C   C27       1.0  0.33400  0.23500  0.69050  1.0000
  C   C28       1.0  0.16600  0.76500  0.19050  1.0000
  C   C29       1.0  0.16600  0.73500  0.69050  1.0000
  C   C30       1.0  0.33400  0.26500  0.19050  1.0000
  C   C31       1.0  0.66600  0.76500  0.30950  1.0000
  C   C32       1.0  0.83400  0.23500  0.80950  1.0000
  C   C33       1.0  0.88700  0.06990  0.25620  1.0000
  C   C34       1.0  0.61300  0.93010  0.75620  1.0000
  C   C35       1.0  0.38700  0.43010  0.74380  1.0000
  C   C36       1.0  0.11300  0.56990  0.24380  1.0000
  C   C37       1.0  0.11300  0.93010  0.74380  1.0000
  C   C38       1.0  0.38700  0.06990  0.24380  1.0000
  C   C39       1.0  0.61300  0.56990  0.25620  1.0000
  C   C40       1.0  0.88700  0.43010  0.75620  1.0000
  C   C41       1.0  0.96100  0.02600  0.30970  1.0000
  C   C42       1.0  0.53900  0.97400  0.80970  1.0000
  C   C43       1.0  0.46100  0.47400  0.69030  1.0000
  C   C44       1.0  0.03900  0.52600  0.19030  1.0000
  C   C45       1.0  0.03900  0.97400  0.69030  1.0000
  C   C46       1.0  0.46100  0.02600  0.19030  1.0000
  C   C47       1.0  0.53900  0.52600  0.30970  1.0000
  C   C48       1.0  0.96100  0.47400  0.80970  1.0000
  C   C49       1.0  0.76900  0.97300  0.43000  1.0000
  C   C50       1.0  0.73100  0.02700  0.93000  1.0000
  C   C51       1.0  0.26900  0.52700  0.57000  1.0000
  C   C52       1.0  0.23100  0.47300  0.07000  1.0000
  C   C53       1.0  0.23100  0.02700  0.57000  1.0000
  C   C54       1.0  0.26900  0.97300  0.07000  1.0000
  C   C55       1.0  0.73100  0.47300  0.43000  1.0000
  C   C56       1.0  0.76900  0.52700  0.93000  1.0000
  C   C57       1.0  0.94600  0.00900  0.41800  1.0000
  C   C58       1.0  0.55400  0.99100  0.91800  1.0000
  C   C59       1.0  0.44600  0.49100  0.58200  1.0000
  C   C60       1.0  0.05400  0.50900  0.08200  1.0000
  C   C61       1.0  0.05400  0.99100  0.58200  1.0000
  C   C62       1.0  0.44600  0.00900  0.08200  1.0000
  C   C63       1.0  0.55400  0.50900  0.41800  1.0000
  C   C64       1.0  0.94600  0.49100  0.91800  1.0000
  C   C65       1.0  0.03800  0.18100  0.34070  1.0000
  C   C66       1.0  0.46200  0.81900  0.84070  1.0000
  C   C67       1.0  0.53800  0.31900  0.65930  1.0000
  C   C68       1.0  0.96200  0.68100  0.15930  1.0000
  C   C69       1.0  0.96200  0.81900  0.65930  1.0000
  C   C70       1.0  0.53800  0.18100  0.15930  1.0000
  C   C71       1.0  0.46200  0.68100  0.34070  1.0000
  C   C72       1.0  0.03800  0.31900  0.84070  1.0000
  C   C73       1.0  0.08200  0.11500  0.37710  1.0000
  C   C74       1.0  0.41800  0.88500  0.87710  1.0000
  C   C75       1.0  0.58200  0.38500  0.62290  1.0000
  C   C76       1.0  0.91800  0.61500  0.12290  1.0000
  C   C77       1.0  0.91800  0.88500  0.62290  1.0000
  C   C78       1.0  0.58200  0.11500  0.12290  1.0000
  C   C79       1.0  0.41800  0.61500  0.37710  1.0000
  C   C80       1.0  0.08200  0.38500  0.87710  1.0000
  H   H1        1.0  0.01500  0.27600  0.42700  1.0000
  H   H2        1.0  0.48500  0.72400  0.92700  1.0000
  H   H3        1.0  0.51500  0.22400  0.57300  1.0000
  H   H4        1.0  0.98500  0.77600  0.07300  1.0000
  H   H5        1.0  0.98500  0.72400  0.57300  1.0000
  H   H6        1.0  0.51500  0.27600  0.07300  1.0000
  H   H7        1.0  0.48500  0.77600  0.42700  1.0000
  H   H8        1.0  0.01500  0.22400  0.92700  1.0000
  H   H9        1.0  0.81200  0.29100  0.41600  1.0000
  H   H10       1.0  0.68800  0.70900  0.91600  1.0000
  H   H11       1.0  0.31200  0.20900  0.58400  1.0000
  H   H12       1.0  0.18800  0.79100  0.08400  1.0000
  H   H13       1.0  0.18800  0.70900  0.58400  1.0000
  H   H14       1.0  0.31200  0.29100  0.08400  1.0000
  H   H15       1.0  0.68800  0.79100  0.41600  1.0000
  H   H16       1.0  0.81200  0.20900  0.91600  1.0000
  H   H17       1.0  0.90200  0.31100  0.31300  1.0000
  H   H18       1.0  0.59800  0.68900  0.81300  1.0000
  H   H19       1.0  0.40200  0.18900  0.68700  1.0000
  H   H20       1.0  0.09800  0.81100  0.18700  1.0000
  H   H21       1.0  0.09800  0.68900  0.68700  1.0000
  H   H22       1.0  0.40200  0.31100  0.18700  1.0000
  H   H23       1.0  0.59800  0.81100  0.31300  1.0000
  H   H24       1.0  0.90200  0.18900  0.81300  1.0000
  H   H25       1.0  0.86600  0.24200  0.26700  1.0000
  H   H26       1.0  0.63400  0.75800  0.76700  1.0000
  H   H27       1.0  0.36600  0.25800  0.73300  1.0000
  H   H28       1.0  0.13400  0.74200  0.23300  1.0000
  H   H29       1.0  0.13400  0.75800  0.73300  1.0000
  H   H30       1.0  0.36600  0.24200  0.23300  1.0000
  H   H31       1.0  0.63400  0.74200  0.26700  1.0000
  H   H32       1.0  0.86600  0.25800  0.76700  1.0000
  H   H33       1.0  0.08200  0.01400  0.30100  1.0000
  H   H34       1.0  0.41800  0.98600  0.80100  1.0000
  H   H35       1.0  0.58200  0.48600  0.69900  1.0000
  H   H36       1.0  0.91800  0.51400  0.19900  1.0000
  H   H37       1.0  0.91800  0.98600  0.69900  1.0000
  H   H38       1.0  0.58200  0.01400  0.19900  1.0000
  H   H39       1.0  0.41800  0.51400  0.30100  1.0000
  H   H40       1.0  0.08200  0.48600  0.80100  1.0000
  H   H41       1.0  0.89400  0.98000  0.31300  1.0000
  H   H42       1.0  0.60600  0.02000  0.81300  1.0000
  H   H43       1.0  0.39400  0.52000  0.68700  1.0000
  H   H44       1.0  0.10600  0.48000  0.18700  1.0000
  H   H45       1.0  0.10600  0.02000  0.68700  1.0000
  H   H46       1.0  0.39400  0.98000  0.18700  1.0000
  H   H47       1.0  0.60600  0.48000  0.31300  1.0000
  H   H48       1.0  0.89400  0.52000  0.81300  1.0000
  H   H49       1.0  0.02900  0.97100  0.40700  1.0000
  H   H50       1.0  0.47100  0.02900  0.90700  1.0000
  H   H51       1.0  0.52900  0.52900  0.59300  1.0000
  H   H52       1.0  0.97100  0.47100  0.09300  1.0000
  H   H53       1.0  0.97100  0.02900  0.59300  1.0000
  H   H54       1.0  0.52900  0.97100  0.09300  1.0000
  H   H55       1.0  0.47100  0.47100  0.40700  1.0000
  H   H56       1.0  0.02900  0.52900  0.90700  1.0000
  H   H57       1.0  0.98400  0.03300  0.45800  1.0000
  H   H58       1.0  0.51600  0.96700  0.95800  1.0000
  H   H59       1.0  0.48400  0.46700  0.54200  1.0000
  H   H60       1.0  0.01600  0.53300  0.04200  1.0000
  H   H61       1.0  0.01600  0.96700  0.54200  1.0000
  H   H62       1.0  0.48400  0.03300  0.04200  1.0000
  H   H63       1.0  0.51600  0.53300  0.45800  1.0000
  H   H64       1.0  0.98400  0.46700  0.95800  1.0000
  H   H65       1.0  0.01600  0.16500  0.29600  1.0000
  H   H66       1.0  0.48400  0.83500  0.79600  1.0000
  H   H67       1.0  0.51600  0.33500  0.70400  1.0000
  H   H68       1.0  0.98400  0.66500  0.20400  1.0000
  H   H69       1.0  0.98400  0.83500  0.70400  1.0000
  H   H70       1.0  0.51600  0.16500  0.20400  1.0000
  H   H71       1.0  0.48400  0.66500  0.29600  1.0000
  H   H72       1.0  0.01600  0.33500  0.79600  1.0000
  H   H73       1.0  0.13700  0.21400  0.34100  1.0000
  H   H74       1.0  0.36300  0.78600  0.84100  1.0000
  H   H75       1.0  0.63700  0.28600  0.65900  1.0000
  H   H76       1.0  0.86300  0.71400  0.15900  1.0000
  H   H77       1.0  0.86300  0.78600  0.65900  1.0000
  H   H78       1.0  0.63700  0.21400  0.15900  1.0000
  H   H79       1.0  0.36300  0.71400  0.34100  1.0000
  H   H80       1.0  0.13700  0.28600  0.84100  1.0000
  H   H81       1.0  0.09500  0.12600  0.42300  1.0000
  H   H82       1.0  0.40500  0.87400  0.92300  1.0000
  H   H83       1.0  0.59500  0.37400  0.57700  1.0000
  H   H84       1.0  0.90500  0.62600  0.07700  1.0000
  H   H85       1.0  0.90500  0.87400  0.57700  1.0000
  H   H86       1.0  0.59500  0.12600  0.07700  1.0000
  H   H87       1.0  0.40500  0.62600  0.42300  1.0000
  H   H88       1.0  0.09500  0.37400  0.92300  1.0000
  H   H89       1.0  0.19400  0.09500  0.36200  1.0000
  H   H90       1.0  0.30600  0.90500  0.86200  1.0000
  H   H91       1.0  0.69400  0.40500  0.63800  1.0000
  H   H92       1.0  0.80600  0.59500  0.13800  1.0000
  H   H93       1.0  0.80600  0.90500  0.63800  1.0000
  H   H94       1.0  0.69400  0.09500  0.13800  1.0000
  H   H95       1.0  0.30600  0.59500  0.36200  1.0000
  H   H96       1.0  0.19400  0.40500  0.86200  1.0000
  H   H97       1.0  0.45800  0.20000  0.45400  1.0000
  H   H98       1.0  0.04200  0.80000  0.95400  1.0000
  H   H99       1.0  0.95800  0.30000  0.54600  1.0000
  H   H100      1.0  0.54200  0.70000  0.04600  1.0000
  H   H101      1.0  0.54200  0.80000  0.54600  1.0000
  H   H102      1.0  0.95800  0.20000  0.04600  1.0000
  H   H103      1.0  0.04200  0.70000  0.45400  1.0000
  H   H104      1.0  0.45800  0.30000  0.95400  1.0000
  H   H105      1.0  0.46700  0.12400  0.49800  1.0000
  H   H106      1.0  0.03300  0.87600  0.99800  1.0000
  H   H107      1.0  0.96700  0.37600  0.50200  1.0000
  H   H108      1.0  0.53300  0.62400  0.00200  1.0000
  H   H109      1.0  0.53300  0.87600  0.50200  1.0000
  H   H110      1.0  0.96700  0.12400  0.00200  1.0000
  H   H111      1.0  0.03300  0.62400  0.49800  1.0000
  H   H112      1.0  0.46700  0.37600  0.99800  1.0000
