data_image0
_chemical_formula_structural       La4O4C4O8H8C4H4O4C4H4O4C4O4C4O4C4H4O4C4H4O4C4H4C4H4C20H4C4H4C12H4C4H4C4H4C4H4C12
_chemical_formula_sum              "La4 O36 C96 H56"
_cell_length_a       11.1578
_cell_length_b       15.5651
_cell_length_c       16.1486
_cell_angle_alpha    90
_cell_angle_beta     103.75
_cell_angle_gamma    90

_space_group_name_H-M_alt    "P 1"
_space_group_IT_number       1

loop_
  _space_group_symop_operation_xyz
  'x, y, z'

loop_
  _atom_site_type_symbol
  _atom_site_label
  _atom_site_symmetry_multiplicity
  _atom_site_fract_x
  _atom_site_fract_y
  _atom_site_fract_z
  _atom_site_occupancy
  La  La1       1.0  0.68521  0.48300  0.03989  1.0000
  La  La2       1.0  0.31479  0.98300  0.46011  1.0000
  La  La3       1.0  0.31479  0.51700  0.96011  1.0000
  La  La4       1.0  0.68521  0.01700  0.53989  1.0000
  O   O1        1.0  0.74910  0.42070  0.20107  1.0000
  O   O2        1.0  0.25090  0.92070  0.29893  1.0000
  O   O3        1.0  0.25090  0.57930  0.79893  1.0000
  O   O4        1.0  0.74910  0.07930  0.70107  1.0000
  C   C1        1.0  0.88452  0.29901  0.23840  1.0000
  C   C2        1.0  0.11548  0.79901  0.26160  1.0000
  C   C3        1.0  0.11548  0.70099  0.76160  1.0000
  C   C4        1.0  0.88452  0.20099  0.73840  1.0000
  O   O5        1.0  0.79037  0.34333  0.09809  1.0000
  O   O6        1.0  0.20963  0.84333  0.40191  1.0000
  O   O7        1.0  0.20963  0.65667  0.90191  1.0000
  O   O8        1.0  0.79037  0.15667  0.59809  1.0000
  O   O9        1.0  0.85373  0.43266  0.96074  1.0000
  O   O10       1.0  0.14627  0.93266  0.53926  1.0000
  O   O11       1.0  0.14627  0.56734  0.03926  1.0000
  O   O12       1.0  0.85373  0.06734  0.46074  1.0000
  H   H1        1.0  0.92150  0.43040  0.98520  1.0000
  H   H2        1.0  0.07850  0.93040  0.51480  1.0000
  H   H3        1.0  0.07850  0.56960  0.01480  1.0000
  H   H4        1.0  0.92150  0.06960  0.48520  1.0000
  H   H5        1.0  0.82800  0.40730  0.91830  1.0000
  H   H6        1.0  0.17200  0.90730  0.58170  1.0000
  H   H7        1.0  0.17200  0.59270  0.08170  1.0000
  H   H8        1.0  0.82800  0.09270  0.41830  1.0000
  C   C5        1.0  0.85613  0.21340  0.23467  1.0000
  C   C6        1.0  0.14387  0.71340  0.26533  1.0000
  C   C7        1.0  0.14387  0.78660  0.76533  1.0000
  C   C8        1.0  0.85613  0.28660  0.73467  1.0000
  H   H9        1.0  0.78570  0.19390  0.19610  1.0000
  H   H10       1.0  0.21430  0.69390  0.30390  1.0000
  H   H11       1.0  0.21430  0.80610  0.80390  1.0000
  H   H12       1.0  0.78570  0.30610  0.69610  1.0000
  O   O13       1.0  0.09173  0.03419  0.37773  1.0000
  O   O14       1.0  0.90827  0.53419  0.12227  1.0000
  O   O15       1.0  0.90827  0.96581  0.62227  1.0000
  O   O16       1.0  0.09173  0.46581  0.87773  1.0000
  C   C9        1.0  0.93253  0.15485  0.28859  1.0000
  C   C10       1.0  0.06747  0.65485  0.21141  1.0000
  C   C11       1.0  0.06747  0.84515  0.71141  1.0000
  C   C12       1.0  0.93253  0.34515  0.78859  1.0000
  H   H13       1.0  0.91190  0.09690  0.28470  1.0000
  H   H14       1.0  0.08810  0.59690  0.21530  1.0000
  H   H15       1.0  0.08810  0.90310  0.71530  1.0000
  H   H16       1.0  0.91190  0.40310  0.78470  1.0000
  O   O17       1.0  0.21067  0.12925  0.45393  1.0000
  O   O18       1.0  0.78933  0.62925  0.04607  1.0000
  O   O19       1.0  0.78933  0.87075  0.54607  1.0000
  O   O20       1.0  0.21067  0.37075  0.95393  1.0000
  C   C13       1.0  0.03734  0.18059  0.34721  1.0000
  C   C14       1.0  0.96266  0.68059  0.15279  1.0000
  C   C15       1.0  0.96266  0.81941  0.65279  1.0000
  C   C16       1.0  0.03734  0.31941  0.84721  1.0000
  O   O21       1.0  0.48767  0.41431  0.05981  1.0000
  O   O22       1.0  0.51233  0.91431  0.44019  1.0000
  O   O23       1.0  0.51233  0.58569  0.94019  1.0000
  O   O24       1.0  0.48767  0.08569  0.55981  1.0000
  C   C17       1.0  0.06916  0.27051  0.35445  1.0000
  C   C18       1.0  0.93084  0.77051  0.14555  1.0000
  C   C19       1.0  0.93084  0.72949  0.64555  1.0000
  C   C20       1.0  0.06916  0.22949  0.85445  1.0000
  O   O25       1.0  0.32871  0.44556  0.11272  1.0000
  O   O26       1.0  0.67129  0.94556  0.38728  1.0000
  O   O27       1.0  0.67129  0.55444  0.88728  1.0000
  O   O28       1.0  0.32871  0.05444  0.61272  1.0000
  C   C21       1.0  0.17395  0.30374  0.41399  1.0000
  C   C22       1.0  0.82605  0.80374  0.08601  1.0000
  C   C23       1.0  0.82605  0.69626  0.58601  1.0000
  C   C24       1.0  0.17395  0.19626  0.91399  1.0000
  H   H17       1.0  0.22370  0.26680  0.45270  1.0000
  H   H18       1.0  0.77630  0.76680  0.04730  1.0000
  H   H19       1.0  0.77630  0.73320  0.54730  1.0000
  H   H20       1.0  0.22370  0.23320  0.95270  1.0000
  O   O29       1.0  0.40452  0.07990  0.36408  1.0000
  O   O30       1.0  0.59548  0.57990  0.13592  1.0000
  O   O31       1.0  0.59548  0.92010  0.63592  1.0000
  O   O32       1.0  0.40452  0.42010  0.86408  1.0000
  C   C25       1.0  0.20260  0.38930  0.41518  1.0000
  C   C26       1.0  0.79740  0.88930  0.08482  1.0000
  C   C27       1.0  0.79740  0.61070  0.58482  1.0000
  C   C28       1.0  0.20260  0.11070  0.91518  1.0000
  H   H21       1.0  0.27100  0.41000  0.45490  1.0000
  H   H22       1.0  0.72900  0.91000  0.04510  1.0000
  H   H23       1.0  0.72900  0.59000  0.54510  1.0000
  H   H24       1.0  0.27100  0.09000  0.95490  1.0000
  O   O33       1.0  0.59695  0.12197  0.42092  1.0000
  O   O34       1.0  0.40305  0.62197  0.07908  1.0000
  O   O35       1.0  0.40305  0.87803  0.57908  1.0000
  O   O36       1.0  0.59695  0.37803  0.92092  1.0000
  C   C29       1.0  0.12913  0.44614  0.35677  1.0000
  C   C30       1.0  0.87087  0.94614  0.14323  1.0000
  C   C31       1.0  0.87087  0.55386  0.64323  1.0000
  C   C32       1.0  0.12913  0.05386  0.85677  1.0000
  H   H25       1.0  0.15100  0.50380  0.35690  1.0000
  H   H26       1.0  0.84900  0.00380  0.14310  1.0000
  H   H27       1.0  0.84900  0.49620  0.64310  1.0000
  H   H28       1.0  0.15100  0.99620  0.85690  1.0000
  C   C33       1.0  0.02651  0.41760  0.30021  1.0000
  C   C34       1.0  0.97349  0.91760  0.19979  1.0000
  C   C35       1.0  0.97349  0.58240  0.69979  1.0000
  C   C36       1.0  0.02651  0.08240  0.80021  1.0000
  H   H29       1.0  0.97820  0.45630  0.26270  1.0000
  H   H30       1.0  0.02180  0.95630  0.23730  1.0000
  H   H31       1.0  0.02180  0.54370  0.73730  1.0000
  H   H32       1.0  0.97820  0.04370  0.76270  1.0000
  C   C37       1.0  0.99189  0.32957  0.29750  1.0000
  C   C38       1.0  0.00811  0.82957  0.20250  1.0000
  C   C39       1.0  0.00811  0.67043  0.70250  1.0000
  C   C40       1.0  0.99189  0.17043  0.79750  1.0000
  C   C41       1.0  0.11807  0.11085  0.39608  1.0000
  C   C42       1.0  0.88193  0.61085  0.10392  1.0000
  C   C43       1.0  0.88193  0.88915  0.60392  1.0000
  C   C44       1.0  0.11807  0.38915  0.89608  1.0000
  C   C45       1.0  0.80197  0.35878  0.17701  1.0000
  C   C46       1.0  0.19803  0.85878  0.32299  1.0000
  C   C47       1.0  0.19803  0.64122  0.82299  1.0000
  C   C48       1.0  0.80197  0.14122  0.67701  1.0000
  C   C49       1.0  0.44972  0.32708  0.17566  1.0000
  C   C50       1.0  0.55028  0.82708  0.32434  1.0000
  C   C51       1.0  0.55028  0.67292  0.82434  1.0000
  C   C52       1.0  0.44972  0.17292  0.67566  1.0000
  C   C53       1.0  0.42628  0.34164  0.25443  1.0000
  C   C54       1.0  0.57372  0.84164  0.24557  1.0000
  C   C55       1.0  0.57372  0.65836  0.74557  1.0000
  C   C56       1.0  0.42628  0.15836  0.75443  1.0000
  H   H33       1.0  0.39790  0.39530  0.26650  1.0000
  H   H34       1.0  0.60210  0.89530  0.23350  1.0000
  H   H35       1.0  0.60210  0.60470  0.73350  1.0000
  H   H36       1.0  0.39790  0.10470  0.76650  1.0000
  C   C57       1.0  0.44433  0.27704  0.31695  1.0000
  C   C58       1.0  0.55567  0.77704  0.18305  1.0000
  C   C59       1.0  0.55567  0.72296  0.68305  1.0000
  C   C60       1.0  0.44433  0.22296  0.81695  1.0000
  H   H37       1.0  0.42990  0.28890  0.37020  1.0000
  H   H38       1.0  0.57010  0.78890  0.12980  1.0000
  H   H39       1.0  0.57010  0.71110  0.62980  1.0000
  H   H40       1.0  0.42990  0.21110  0.87020  1.0000
  C   C61       1.0  0.48293  0.19675  0.30027  1.0000
  C   C62       1.0  0.51707  0.69675  0.19973  1.0000
  C   C63       1.0  0.51707  0.80325  0.69973  1.0000
  C   C64       1.0  0.48293  0.30325  0.80027  1.0000
  C   C65       1.0  0.50699  0.17842  0.21973  1.0000
  C   C66       1.0  0.49301  0.67842  0.28027  1.0000
  C   C67       1.0  0.49301  0.82158  0.78027  1.0000
  C   C68       1.0  0.50699  0.32158  0.71973  1.0000
  C   C69       1.0  0.54217  0.09473  0.19996  1.0000
  C   C70       1.0  0.45783  0.59473  0.30004  1.0000
  C   C71       1.0  0.45783  0.90527  0.80004  1.0000
  C   C72       1.0  0.54217  0.40527  0.69996  1.0000
  H   H41       1.0  0.55200  0.05170  0.24100  1.0000
  H   H42       1.0  0.44800  0.55170  0.25900  1.0000
  H   H43       1.0  0.44800  0.94830  0.75900  1.0000
  H   H44       1.0  0.55200  0.44830  0.74100  1.0000
  C   C73       1.0  0.56180  0.07660  0.12165  1.0000
  C   C74       1.0  0.43820  0.57660  0.37835  1.0000
  C   C75       1.0  0.43820  0.92340  0.87835  1.0000
  C   C76       1.0  0.56180  0.42340  0.62165  1.0000
  H   H45       1.0  0.58550  0.02160  0.10970  1.0000
  H   H46       1.0  0.41450  0.52160  0.39030  1.0000
  H   H47       1.0  0.41450  0.97840  0.89030  1.0000
  H   H48       1.0  0.58550  0.47840  0.60970  1.0000
  C   C77       1.0  0.54610  0.14115  0.05879  1.0000
  C   C78       1.0  0.45390  0.64115  0.44121  1.0000
  C   C79       1.0  0.45390  0.85885  0.94121  1.0000
  C   C80       1.0  0.54610  0.35885  0.55879  1.0000
  H   H49       1.0  0.55820  0.12800  0.00520  1.0000
  H   H50       1.0  0.44180  0.62800  0.49480  1.0000
  H   H51       1.0  0.44180  0.87200  0.99480  1.0000
  H   H52       1.0  0.55820  0.37200  0.50520  1.0000
  C   C81       1.0  0.51354  0.22274  0.07556  1.0000
  C   C82       1.0  0.48646  0.72274  0.42444  1.0000
  C   C83       1.0  0.48646  0.77726  0.92444  1.0000
  C   C84       1.0  0.51354  0.27726  0.57556  1.0000
  H   H53       1.0  0.50560  0.26470  0.03360  1.0000
  H   H54       1.0  0.49440  0.76470  0.46640  1.0000
  H   H55       1.0  0.49440  0.73530  0.96640  1.0000
  H   H56       1.0  0.50560  0.23530  0.53360  1.0000
  C   C85       1.0  0.49161  0.24437  0.15610  1.0000
  C   C86       1.0  0.50839  0.74437  0.34390  1.0000
  C   C87       1.0  0.50839  0.75563  0.84390  1.0000
  C   C88       1.0  0.49161  0.25563  0.65610  1.0000
  C   C89       1.0  0.42069  0.40009  0.11238  1.0000
  C   C90       1.0  0.57931  0.90009  0.38762  1.0000
  C   C91       1.0  0.57931  0.59991  0.88762  1.0000
  C   C92       1.0  0.42069  0.09991  0.61238  1.0000
  C   C93       1.0  0.49582  0.12665  0.36734  1.0000
  C   C94       1.0  0.50418  0.62665  0.13266  1.0000
  C   C95       1.0  0.50418  0.87335  0.63266  1.0000
  C   C96       1.0  0.49582  0.37335  0.86734  1.0000
