data_image0
_chemical_formula_structural       Sm8C8H4C4H4C12H4C4H4C4H4C20H4C4H4C8H4C4H4C4H4C4H4C20H4C4H4C12H4C4H4C4H4C4H4C20H4C4H4C12H4C4H4C4H4C4H4C20H4O16H8O4H8O52
_chemical_formula_sum              "Sm8 C192 H112 O72"
_cell_length_a       23.0803
_cell_length_b       15.5854
_cell_length_c       15.6694
_cell_angle_alpha    90
_cell_angle_beta     103.898
_cell_angle_gamma    90

_space_group_name_H-M_alt    "P 1"
_space_group_IT_number       1

loop_
  _space_group_symop_operation_xyz
  'x, y, z'

loop_
  _atom_site_type_symbol
  _atom_site_label
  _atom_site_symmetry_multiplicity
  _atom_site_fract_x
  _atom_site_fract_y
  _atom_site_fract_z
  _atom_site_occupancy
  Sm  Sm1       1.0  0.34252  0.01041  0.53432  1.0000
  Sm  Sm2       1.0  0.65748  0.51041  0.96568  1.0000
  Sm  Sm3       1.0  0.65748  0.98959  0.46568  1.0000
  Sm  Sm4       1.0  0.34252  0.48959  0.03432  1.0000
  Sm  Sm5       1.0  0.16393  0.98274  0.45256  1.0000
  Sm  Sm6       1.0  0.83607  0.48274  0.04744  1.0000
  Sm  Sm7       1.0  0.83607  0.01726  0.54744  1.0000
  Sm  Sm8       1.0  0.16393  0.51725  0.95257  1.0000
  C   C1        1.0  0.44391  0.19650  0.71820  1.0000
  C   C2        1.0  0.55609  0.69650  0.78180  1.0000
  C   C3        1.0  0.55609  0.80350  0.28180  1.0000
  C   C4        1.0  0.44391  0.30350  0.21820  1.0000
  C   C5        1.0  0.42493  0.27990  0.71720  1.0000
  C   C6        1.0  0.57507  0.77990  0.78280  1.0000
  C   C7        1.0  0.57507  0.72010  0.28280  1.0000
  C   C8        1.0  0.42493  0.22010  0.21720  1.0000
  H   H1        1.0  0.39190  0.29770  0.67420  1.0000
  H   H2        1.0  0.60810  0.79770  0.82580  1.0000
  H   H3        1.0  0.60810  0.70230  0.32580  1.0000
  H   H4        1.0  0.39190  0.20230  0.17420  1.0000
  C   C9        1.0  0.45498  0.33900  0.78050  1.0000
  C   C10       1.0  0.54502  0.83900  0.71950  1.0000
  C   C11       1.0  0.54502  0.66100  0.21950  1.0000
  C   C12       1.0  0.45498  0.16100  0.28050  1.0000
  H   H5        1.0  0.44070  0.39480  0.78030  1.0000
  H   H6        1.0  0.55930  0.89480  0.71970  1.0000
  H   H7        1.0  0.55930  0.60520  0.21970  1.0000
  H   H8        1.0  0.44070  0.10520  0.28030  1.0000
  C   C13       1.0  0.50496  0.31530  0.84240  1.0000
  C   C14       1.0  0.49504  0.81530  0.65760  1.0000
  C   C15       1.0  0.49504  0.68470  0.15760  1.0000
  C   C16       1.0  0.50496  0.18470  0.34240  1.0000
  C   C17       1.0  0.52768  0.23100  0.84390  1.0000
  C   C18       1.0  0.47232  0.73100  0.65610  1.0000
  C   C19       1.0  0.47232  0.76900  0.15610  1.0000
  C   C20       1.0  0.52768  0.26900  0.34390  1.0000
  C   C21       1.0  0.58015  0.20360  0.90580  1.0000
  C   C22       1.0  0.41985  0.70360  0.59420  1.0000
  C   C23       1.0  0.41985  0.79640  0.09420  1.0000
  C   C24       1.0  0.58015  0.29640  0.40580  1.0000
  H   H9        1.0  0.60140  0.24270  0.94620  1.0000
  H   H10       1.0  0.39860  0.74270  0.55380  1.0000
  H   H11       1.0  0.39860  0.75730  0.05380  1.0000
  H   H12       1.0  0.60140  0.25730  0.44620  1.0000
  C   C25       1.0  0.56841  0.06130  0.84520  1.0000
  C   C26       1.0  0.43159  0.56130  0.65480  1.0000
  C   C27       1.0  0.43159  0.93870  0.15480  1.0000
  C   C28       1.0  0.56841  0.43870  0.34520  1.0000
  H   H13       1.0  0.58190  0.00500  0.84650  1.0000
  H   H14       1.0  0.41810  0.50500  0.65350  1.0000
  H   H15       1.0  0.41810  0.99500  0.15350  1.0000
  H   H16       1.0  0.58190  0.49500  0.34650  1.0000
  C   C29       1.0  0.51868  0.08440  0.78350  1.0000
  C   C30       1.0  0.48132  0.58440  0.71650  1.0000
  C   C31       1.0  0.48132  0.91560  0.21650  1.0000
  C   C32       1.0  0.51868  0.41560  0.28350  1.0000
  H   H17       1.0  0.49920  0.04430  0.74270  1.0000
  H   H18       1.0  0.50080  0.54430  0.75730  1.0000
  H   H19       1.0  0.50080  0.95570  0.25730  1.0000
  H   H20       1.0  0.49920  0.45570  0.24270  1.0000
  C   C33       1.0  0.49636  0.16950  0.78120  1.0000
  C   C34       1.0  0.50364  0.66950  0.71880  1.0000
  C   C35       1.0  0.50364  0.83050  0.21880  1.0000
  C   C36       1.0  0.49636  0.33050  0.28120  1.0000
  C   C37       1.0  0.40745  0.13384  0.65510  1.0000
  C   C38       1.0  0.59255  0.63384  0.84490  1.0000
  C   C39       1.0  0.59255  0.86616  0.34490  1.0000
  C   C40       1.0  0.40745  0.36616  0.15510  1.0000
  C   C41       1.0  0.53493  0.37940  0.91210  1.0000
  C   C42       1.0  0.46507  0.87940  0.58790  1.0000
  C   C43       1.0  0.46507  0.62060  0.08790  1.0000
  C   C44       1.0  0.53493  0.12060  0.41210  1.0000
  C   C45       1.0  0.24502  0.19305  0.29648  1.0000
  C   C46       1.0  0.75498  0.69305  0.20352  1.0000
  C   C47       1.0  0.75498  0.80695  0.70352  1.0000
  C   C48       1.0  0.24502  0.30695  0.79648  1.0000
  C   C49       1.0  0.22255  0.27233  0.30970  1.0000
  C   C50       1.0  0.77745  0.77233  0.19030  1.0000
  C   C51       1.0  0.77745  0.72767  0.69030  1.0000
  C   C52       1.0  0.22255  0.22767  0.80970  1.0000
  H   H21       1.0  0.21250  0.28400  0.36260  1.0000
  H   H22       1.0  0.78750  0.78400  0.13740  1.0000
  H   H23       1.0  0.78750  0.71600  0.63740  1.0000
  H   H24       1.0  0.21250  0.21600  0.86260  1.0000
  C   C53       1.0  0.21468  0.33540  0.24480  1.0000
  C   C54       1.0  0.78532  0.83540  0.25520  1.0000
  C   C55       1.0  0.78532  0.66460  0.75520  1.0000
  C   C56       1.0  0.21468  0.16460  0.74480  1.0000
  H   H25       1.0  0.19910  0.38840  0.25520  1.0000
  H   H26       1.0  0.80090  0.88840  0.24480  1.0000
  H   H27       1.0  0.80090  0.61160  0.74480  1.0000
  H   H28       1.0  0.19910  0.11160  0.75520  1.0000
  C   C57       1.0  0.22922  0.32159  0.16650  1.0000
  C   C58       1.0  0.77078  0.82159  0.33350  1.0000
  C   C59       1.0  0.77078  0.67841  0.83350  1.0000
  C   C60       1.0  0.22922  0.17841  0.66650  1.0000
  C   C61       1.0  0.26539  0.21780  0.06830  1.0000
  C   C62       1.0  0.73461  0.71780  0.43170  1.0000
  C   C63       1.0  0.73461  0.78220  0.93170  1.0000
  C   C64       1.0  0.26539  0.28220  0.56830  1.0000
  H   H29       1.0  0.26150  0.25940  0.02470  1.0000
  H   H30       1.0  0.73850  0.75940  0.47530  1.0000
  H   H31       1.0  0.73850  0.74060  0.97530  1.0000
  H   H32       1.0  0.26150  0.24060  0.52470  1.0000
  C   C65       1.0  0.28289  0.13780  0.05240  1.0000
  C   C66       1.0  0.71711  0.63780  0.44760  1.0000
  C   C67       1.0  0.71711  0.86220  0.94760  1.0000
  C   C68       1.0  0.28289  0.36220  0.55240  1.0000
  H   H33       1.0  0.29000  0.12470  0.99790  1.0000
  H   H34       1.0  0.71000  0.62470  0.50210  1.0000
  H   H35       1.0  0.71000  0.87530  0.00210  1.0000
  H   H36       1.0  0.29000  0.37530  0.49790  1.0000
  C   C69       1.0  0.29030  0.07470  0.11730  1.0000
  C   C70       1.0  0.70970  0.57470  0.38270  1.0000
  C   C71       1.0  0.70970  0.92530  0.88270  1.0000
  C   C72       1.0  0.29030  0.42530  0.61730  1.0000
  H   H37       1.0  0.30260  0.02000  0.10580  1.0000
  H   H38       1.0  0.69740  0.52000  0.39420  1.0000
  H   H39       1.0  0.69740  0.98000  0.89420  1.0000
  H   H40       1.0  0.30260  0.48000  0.60580  1.0000
  C   C73       1.0  0.27973  0.09250  0.19770  1.0000
  C   C74       1.0  0.72027  0.59250  0.30230  1.0000
  C   C75       1.0  0.72027  0.90750  0.80230  1.0000
  C   C76       1.0  0.27973  0.40750  0.69770  1.0000
  H   H41       1.0  0.28560  0.05010  0.24070  1.0000
  H   H42       1.0  0.71440  0.55010  0.25930  1.0000
  H   H43       1.0  0.71440  0.94990  0.75930  1.0000
  H   H44       1.0  0.28560  0.44990  0.74070  1.0000
  C   C77       1.0  0.25279  0.23980  0.14960  1.0000
  C   C78       1.0  0.74721  0.73980  0.35040  1.0000
  C   C79       1.0  0.74721  0.76020  0.85040  1.0000
  C   C80       1.0  0.25279  0.26020  0.64960  1.0000
  C   C81       1.0  0.25048  0.12409  0.36688  1.0000
  C   C82       1.0  0.74952  0.62409  0.13312  1.0000
  C   C83       1.0  0.74952  0.87591  0.63312  1.0000
  C   C84       1.0  0.25048  0.37591  0.86688  1.0000
  C   C85       1.0  0.21632  0.39056  0.09740  1.0000
  C   C86       1.0  0.78368  0.89056  0.40260  1.0000
  C   C87       1.0  0.78368  0.60944  0.90260  1.0000
  C   C88       1.0  0.21632  0.10944  0.59740  1.0000
  C   C89       1.0  0.27225  0.81080  0.33450  1.0000
  C   C90       1.0  0.72775  0.31080  0.16550  1.0000
  C   C91       1.0  0.72775  0.18920  0.66550  1.0000
  C   C92       1.0  0.27225  0.68920  0.83450  1.0000
  C   C93       1.0  0.28102  0.83190  0.25400  1.0000
  C   C94       1.0  0.71898  0.33190  0.24600  1.0000
  C   C95       1.0  0.71898  0.16810  0.74600  1.0000
  C   C96       1.0  0.28102  0.66810  0.75400  1.0000
  H   H45       1.0  0.29120  0.88800  0.24350  1.0000
  H   H46       1.0  0.70880  0.38800  0.25650  1.0000
  H   H47       1.0  0.70880  0.11200  0.75650  1.0000
  H   H48       1.0  0.29120  0.61200  0.74350  1.0000
  C   C97       1.0  0.27505  0.77060  0.18650  1.0000
  C   C98       1.0  0.72495  0.27060  0.31350  1.0000
  C   C99       1.0  0.72495  0.22940  0.81350  1.0000
  C   C100      1.0  0.27505  0.72940  0.68650  1.0000
  H   H49       1.0  0.28160  0.78650  0.13240  1.0000
  H   H50       1.0  0.71840  0.28650  0.36760  1.0000
  H   H51       1.0  0.71840  0.21350  0.86760  1.0000
  H   H52       1.0  0.28160  0.71350  0.63240  1.0000
  C   C101      1.0  0.25972  0.68802  0.19991  1.0000
  C   C102      1.0  0.74028  0.18802  0.30009  1.0000
  C   C103      1.0  0.74028  0.31198  0.80009  1.0000
  C   C104      1.0  0.25972  0.81198  0.69991  1.0000
  C   C105      1.0  0.24852  0.66350  0.28160  1.0000
  C   C106      1.0  0.75148  0.16350  0.21840  1.0000
  C   C107      1.0  0.75148  0.33650  0.71840  1.0000
  C   C108      1.0  0.24852  0.83650  0.78160  1.0000
  C   C109      1.0  0.23165  0.57960  0.29780  1.0000
  C   C110      1.0  0.76835  0.07960  0.20220  1.0000
  C   C111      1.0  0.76835  0.42040  0.70220  1.0000
  C   C112      1.0  0.23165  0.92040  0.79780  1.0000
  H   H53       1.0  0.22700  0.53890  0.25340  1.0000
  H   H54       1.0  0.77300  0.03890  0.24660  1.0000
  H   H55       1.0  0.77300  0.46110  0.74660  1.0000
  H   H56       1.0  0.22700  0.96110  0.75340  1.0000
  C   C113      1.0  0.22190  0.55640  0.37780  1.0000
  C   C114      1.0  0.77810  0.05640  0.12220  1.0000
  C   C115      1.0  0.77810  0.44360  0.62220  1.0000
  C   C116      1.0  0.22190  0.94360  0.87780  1.0000
  H   H57       1.0  0.21170  0.50020  0.38800  1.0000
  H   H58       1.0  0.78830  0.00020  0.11200  1.0000
  H   H59       1.0  0.78830  0.49980  0.61200  1.0000
  H   H60       1.0  0.21170  0.99980  0.88800  1.0000
  C   C117      1.0  0.22760  0.61930  0.44440  1.0000
  C   C118      1.0  0.77240  0.11930  0.05560  1.0000
  C   C119      1.0  0.77240  0.38070  0.55560  1.0000
  C   C120      1.0  0.22760  0.88070  0.94440  1.0000
  H   H61       1.0  0.22040  0.60430  0.49830  1.0000
  H   H62       1.0  0.77960  0.10430  0.00170  1.0000
  H   H63       1.0  0.77960  0.39570  0.50170  1.0000
  H   H64       1.0  0.22040  0.89570  0.99830  1.0000
  C   C121      1.0  0.24294  0.69940  0.43130  1.0000
  C   C122      1.0  0.75706  0.19940  0.06870  1.0000
  C   C123      1.0  0.75706  0.30060  0.56870  1.0000
  C   C124      1.0  0.24294  0.80060  0.93130  1.0000
  H   H65       1.0  0.24580  0.73940  0.47610  1.0000
  H   H66       1.0  0.75420  0.23940  0.02390  1.0000
  H   H67       1.0  0.75420  0.26060  0.52390  1.0000
  H   H68       1.0  0.24580  0.76060  0.97610  1.0000
  C   C125      1.0  0.25526  0.72590  0.35000  1.0000
  C   C126      1.0  0.74474  0.22590  0.15000  1.0000
  C   C127      1.0  0.74474  0.27410  0.65000  1.0000
  C   C128      1.0  0.25526  0.77410  0.85000  1.0000
  C   C129      1.0  0.28912  0.87470  0.40830  1.0000
  C   C130      1.0  0.71088  0.37470  0.09170  1.0000
  C   C131      1.0  0.71088  0.12530  0.59170  1.0000
  C   C132      1.0  0.28912  0.62530  0.90830  1.0000
  C   C133      1.0  0.25649  0.62198  0.12756  1.0000
  C   C134      1.0  0.74351  0.12198  0.37244  1.0000
  C   C135      1.0  0.74351  0.37802  0.87244  1.0000
  C   C136      1.0  0.25649  0.87802  0.62756  1.0000
  C   C137      1.0  0.06525  0.79620  0.26940  1.0000
  C   C138      1.0  0.93475  0.29620  0.23060  1.0000
  C   C139      1.0  0.93475  0.20380  0.73060  1.0000
  C   C140      1.0  0.06525  0.70380  0.76940  1.0000
  C   C141      1.0  0.08483  0.71310  0.27930  1.0000
  C   C142      1.0  0.91517  0.21310  0.22070  1.0000
  C   C143      1.0  0.91517  0.28690  0.72070  1.0000
  C   C144      1.0  0.08483  0.78690  0.77930  1.0000
  H   H69       1.0  0.11970  0.69990  0.32110  1.0000
  H   H70       1.0  0.88030  0.19990  0.17890  1.0000
  H   H71       1.0  0.88030  0.30010  0.67890  1.0000
  H   H72       1.0  0.11970  0.80010  0.82110  1.0000
  C   C145      1.0  0.05281  0.64740  0.22670  1.0000
  C   C146      1.0  0.94719  0.14740  0.27330  1.0000
  C   C147      1.0  0.94719  0.35260  0.77330  1.0000
  C   C148      1.0  0.05281  0.85260  0.72670  1.0000
  H   H73       1.0  0.06810  0.59190  0.23270  1.0000
  H   H74       1.0  0.93190  0.09190  0.26730  1.0000
  H   H75       1.0  0.93190  0.40810  0.76730  1.0000
  H   H76       1.0  0.06810  0.90810  0.73270  1.0000
  C   C149      1.0  0.99989  0.66250  0.16710  1.0000
  C   C150      1.0  0.00011  0.16250  0.33290  1.0000
  C   C151      1.0  0.00011  0.33750  0.83290  1.0000
  C   C152      1.0  0.99989  0.83750  0.66710  1.0000
  C   C153      1.0  0.97682  0.74940  0.15530  1.0000
  C   C154      1.0  0.02318  0.24940  0.34470  1.0000
  C   C155      1.0  0.02318  0.25060  0.84470  1.0000
  C   C156      1.0  0.97682  0.75060  0.65530  1.0000
  C   C157      1.0  0.92390  0.77190  0.09210  1.0000
  C   C158      1.0  0.07610  0.27190  0.40790  1.0000
  C   C159      1.0  0.07610  0.22810  0.90790  1.0000
  C   C160      1.0  0.92390  0.72810  0.59210  1.0000
  H   H77       1.0  0.90280  0.72950  0.05580  1.0000
  H   H78       1.0  0.09720  0.22950  0.44420  1.0000
  H   H79       1.0  0.09720  0.27050  0.94420  1.0000
  H   H80       1.0  0.90280  0.77050  0.55580  1.0000
  C   C161      1.0  0.90333  0.85320  0.08320  1.0000
  C   C162      1.0  0.09667  0.35320  0.41680  1.0000
  C   C163      1.0  0.09667  0.14680  0.91680  1.0000
  C   C164      1.0  0.90333  0.64680  0.58320  1.0000
  H   H81       1.0  0.86820  0.86580  0.04190  1.0000
  H   H82       1.0  0.13180  0.36580  0.45810  1.0000
  H   H83       1.0  0.13180  0.13420  0.95810  1.0000
  H   H84       1.0  0.86820  0.63420  0.54190  1.0000
  C   C165      1.0  0.93486  0.91900  0.13630  1.0000
  C   C166      1.0  0.06514  0.41900  0.36370  1.0000
  C   C167      1.0  0.06514  0.08100  0.86370  1.0000
  C   C168      1.0  0.93486  0.58100  0.63630  1.0000
  H   H85       1.0  0.92010  0.97480  0.13040  1.0000
  H   H86       1.0  0.07990  0.47480  0.36960  1.0000
  H   H87       1.0  0.07990  0.02520  0.86960  1.0000
  H   H88       1.0  0.92010  0.52520  0.63040  1.0000
  C   C169      1.0  0.98686  0.90150  0.19630  1.0000
  C   C170      1.0  0.01314  0.40150  0.30370  1.0000
  C   C171      1.0  0.01314  0.09850  0.80370  1.0000
  C   C172      1.0  0.98686  0.59850  0.69630  1.0000
  H   H89       1.0  0.00730  0.94560  0.23070  1.0000
  H   H90       1.0  0.99270  0.44560  0.26930  1.0000
  H   H91       1.0  0.99270  0.05440  0.76930  1.0000
  H   H92       1.0  0.00730  0.55440  0.73070  1.0000
  C   C173      1.0  0.01030  0.81680  0.20700  1.0000
  C   C174      1.0  0.98970  0.31680  0.29300  1.0000
  C   C175      1.0  0.98970  0.18320  0.79300  1.0000
  C   C176      1.0  0.01030  0.68320  0.70700  1.0000
  C   C177      1.0  0.10423  0.86120  0.32660  1.0000
  C   C178      1.0  0.89577  0.36120  0.17340  1.0000
  C   C179      1.0  0.89577  0.13880  0.67340  1.0000
  C   C180      1.0  0.10423  0.63880  0.82660  1.0000
  C   C181      1.0  0.96808  0.58660  0.11910  1.0000
  C   C182      1.0  0.03192  0.08660  0.38090  1.0000
  C   C183      1.0  0.03192  0.41340  0.88090  1.0000
  C   C184      1.0  0.96808  0.91340  0.61910  1.0000
  C   C185      1.0  0.25995  0.17500  0.21580  1.0000
  C   C186      1.0  0.74005  0.67500  0.28420  1.0000
  C   C187      1.0  0.74005  0.82500  0.78420  1.0000
  C   C188      1.0  0.25995  0.32500  0.71580  1.0000
  C   C189      1.0  0.59995  0.12040  0.90680  1.0000
  C   C190      1.0  0.40005  0.62040  0.59320  1.0000
  C   C191      1.0  0.40005  0.87960  0.09320  1.0000
  C   C192      1.0  0.59995  0.37960  0.40680  1.0000
  H   H93       1.0  0.63400  0.10320  0.94810  1.0000
  H   H94       1.0  0.36600  0.60320  0.55190  1.0000
  H   H95       1.0  0.36600  0.89680  0.05190  1.0000
  H   H96       1.0  0.63400  0.39680  0.44810  1.0000
  O   O1        1.0  0.30413  0.58511  0.12620  1.0000
  O   O2        1.0  0.69587  0.08511  0.37380  1.0000
  O   O3        1.0  0.69587  0.41489  0.87380  1.0000
  O   O4        1.0  0.30413  0.91489  0.62620  1.0000
  O   O5        1.0  0.40185  0.14434  0.57261  1.0000
  O   O6        1.0  0.59815  0.64434  0.92739  1.0000
  O   O7        1.0  0.59815  0.85566  0.42739  1.0000
  O   O8        1.0  0.40185  0.35566  0.07261  1.0000
  O   O9        1.0  0.38337  0.07184  0.68246  1.0000
  O   O10       1.0  0.61663  0.57184  0.81754  1.0000
  O   O11       1.0  0.61663  0.92816  0.31754  1.0000
  O   O12       1.0  0.38337  0.42816  0.18246  1.0000
  O   O13       1.0  0.41366  0.01510  0.43810  1.0000
  O   O14       1.0  0.58634  0.51510  0.06190  1.0000
  O   O15       1.0  0.58634  0.98490  0.56190  1.0000
  O   O16       1.0  0.41366  0.48490  0.93810  1.0000
  H   H97       1.0  0.38340  0.98280  0.42500  1.0000
  H   H98       1.0  0.61660  0.48280  0.07500  1.0000
  H   H99       1.0  0.61660  0.01720  0.57500  1.0000
  H   H100      1.0  0.38340  0.51720  0.92500  1.0000
  H   H101      1.0  0.44270  0.98390  0.46300  1.0000
  H   H102      1.0  0.55730  0.48390  0.03700  1.0000
  H   H103      1.0  0.55730  0.01610  0.53700  1.0000
  H   H104      1.0  0.44270  0.51610  0.96300  1.0000
  O   O17       1.0  0.08101  0.93000  0.51260  1.0000
  O   O18       1.0  0.91899  0.43000  0.98740  1.0000
  O   O19       1.0  0.91899  0.07000  0.48740  1.0000
  O   O20       1.0  0.08101  0.57000  0.01260  1.0000
  H   H105      1.0  0.09650  0.92200  0.56690  1.0000
  H   H106      1.0  0.90350  0.42200  0.93310  1.0000
  H   H107      1.0  0.90350  0.07800  0.43310  1.0000
  H   H108      1.0  0.09650  0.57800  0.06690  1.0000
  H   H109      1.0  0.07400  0.98330  0.51200  1.0000
  H   H110      1.0  0.92600  0.48330  0.98800  1.0000
  H   H111      1.0  0.92600  0.01670  0.48800  1.0000
  H   H112      1.0  0.07400  0.51670  0.01200  1.0000
  O   O21       1.0  0.52184  0.37229  0.98765  1.0000
  O   O22       1.0  0.47816  0.87229  0.51235  1.0000
  O   O23       1.0  0.47816  0.62771  0.01235  1.0000
  O   O24       1.0  0.52184  0.12771  0.48765  1.0000
  O   O25       1.0  0.57009  0.42979  0.89502  1.0000
  O   O26       1.0  0.42991  0.92979  0.60498  1.0000
  O   O27       1.0  0.42991  0.57021  0.10498  1.0000
  O   O28       1.0  0.57009  0.07021  0.39502  1.0000
  O   O29       1.0  0.20248  0.09158  0.37314  1.0000
  O   O30       1.0  0.79752  0.59158  0.12686  1.0000
  O   O31       1.0  0.79752  0.90842  0.62686  1.0000
  O   O32       1.0  0.20248  0.40842  0.87314  1.0000
  O   O33       1.0  0.30183  0.10744  0.41224  1.0000
  O   O34       1.0  0.69817  0.60744  0.08776  1.0000
  O   O35       1.0  0.69817  0.89256  0.58776  1.0000
  O   O36       1.0  0.30183  0.39256  0.91224  1.0000
  O   O37       1.0  0.16502  0.42220  0.07810  1.0000
  O   O38       1.0  0.83498  0.92220  0.42190  1.0000
  O   O39       1.0  0.83498  0.57780  0.92190  1.0000
  O   O40       1.0  0.16502  0.07780  0.57810  1.0000
  O   O41       1.0  0.25523  0.41916  0.06230  1.0000
  O   O42       1.0  0.74477  0.91916  0.43770  1.0000
  O   O43       1.0  0.74477  0.58084  0.93770  1.0000
  O   O44       1.0  0.25523  0.08084  0.56230  1.0000
  O   O45       1.0  0.25461  0.93015  0.42123  1.0000
  O   O46       1.0  0.74539  0.43015  0.07877  1.0000
  O   O47       1.0  0.74539  0.06985  0.57877  1.0000
  O   O48       1.0  0.25461  0.56985  0.92123  1.0000
  O   O49       1.0  0.33943  0.86780  0.45770  1.0000
  O   O50       1.0  0.66057  0.36780  0.04230  1.0000
  O   O51       1.0  0.66057  0.13220  0.54230  1.0000
  O   O52       1.0  0.33943  0.63220  0.95770  1.0000
  O   O53       1.0  0.20702  0.60826  0.07664  1.0000
  O   O54       1.0  0.79298  0.10826  0.42336  1.0000
  O   O55       1.0  0.79298  0.39174  0.92336  1.0000
  O   O56       1.0  0.20702  0.89174  0.57664  1.0000
  O   O57       1.0  0.13295  0.83698  0.40040  1.0000
  O   O58       1.0  0.86705  0.33698  0.09960  1.0000
  O   O59       1.0  0.86705  0.16302  0.59960  1.0000
  O   O60       1.0  0.13295  0.66302  0.90040  1.0000
  O   O61       1.0  0.11071  0.93521  0.30187  1.0000
  O   O62       1.0  0.88929  0.43521  0.19813  1.0000
  O   O63       1.0  0.88929  0.06479  0.69813  1.0000
  O   O64       1.0  0.11071  0.56479  0.80187  1.0000
  O   O65       1.0  0.91369  0.58456  0.09720  1.0000
  O   O66       1.0  0.08631  0.08456  0.40280  1.0000
  O   O67       1.0  0.08631  0.41544  0.90280  1.0000
  O   O68       1.0  0.91369  0.91544  0.59720  1.0000
  O   O69       1.0  0.00120  0.52360  0.10880  1.0000
  O   O70       1.0  0.99880  0.02360  0.39120  1.0000
  O   O71       1.0  0.99880  0.47640  0.89120  1.0000
  O   O72       1.0  0.00120  0.97640  0.60880  1.0000
