data_image0
_chemical_formula_structural       Fe4K4O56C24H16
_chemical_formula_sum              "Fe4 K4 O56 C24 H16"
_cell_length_a       14.7637
_cell_length_b       20.5458
_cell_length_c       9.5211
_cell_angle_alpha    90
_cell_angle_beta     107.412
_cell_angle_gamma    90

_space_group_name_H-M_alt    "P 1"
_space_group_IT_number       1

loop_
  _space_group_symop_operation_xyz
  'x, y, z'

loop_
  _atom_site_type_symbol
  _atom_site_label
  _atom_site_symmetry_multiplicity
  _atom_site_fract_x
  _atom_site_fract_y
  _atom_site_fract_z
  _atom_site_occupancy
  Fe  Fe1       1.0  0.00000  0.17231  0.25000  1.0000
  Fe  Fe2       1.0  0.50000  0.67231  0.25000  1.0000
  Fe  Fe3       1.0  0.00000  0.82769  0.75000  1.0000
  Fe  Fe4       1.0  0.50000  0.32769  0.75000  1.0000
  K   K1        1.0  0.00000  0.12581  0.75000  1.0000
  K   K2        1.0  0.50000  0.62581  0.75000  1.0000
  K   K3        1.0  0.00000  0.87419  0.25000  1.0000
  K   K4        1.0  0.50000  0.37419  0.25000  1.0000
  O   O1        1.0  0.89594  0.23951  0.20040  1.0000
  O   O2        1.0  0.10406  0.23951  0.29960  1.0000
  O   O3        1.0  0.39594  0.73951  0.20040  1.0000
  O   O4        1.0  0.60406  0.73951  0.29960  1.0000
  O   O5        1.0  0.10406  0.76049  0.79960  1.0000
  O   O6        1.0  0.89594  0.76049  0.70040  1.0000
  O   O7        1.0  0.60406  0.26049  0.79960  1.0000
  O   O8        1.0  0.39594  0.26049  0.70040  1.0000
  O   O9        1.0  0.81521  0.30368  0.30953  1.0000
  O   O10       1.0  0.18479  0.30368  0.19047  1.0000
  O   O11       1.0  0.31521  0.80368  0.30953  1.0000
  O   O12       1.0  0.68479  0.80368  0.19047  1.0000
  O   O13       1.0  0.18479  0.69632  0.69047  1.0000
  O   O14       1.0  0.81521  0.69632  0.80953  1.0000
  O   O15       1.0  0.68479  0.19632  0.69047  1.0000
  O   O16       1.0  0.31521  0.19632  0.80953  1.0000
  O   O17       1.0  0.89012  0.23290  0.56442  1.0000
  O   O18       1.0  0.10988  0.23290  0.93558  1.0000
  O   O19       1.0  0.39012  0.73290  0.56442  1.0000
  O   O20       1.0  0.60988  0.73290  0.93558  1.0000
  O   O21       1.0  0.10988  0.76710  0.43558  1.0000
  O   O22       1.0  0.89012  0.76710  0.06442  1.0000
  O   O23       1.0  0.60988  0.26710  0.43558  1.0000
  O   O24       1.0  0.39012  0.26710  0.06442  1.0000
  O   O25       1.0  0.97593  0.17936  0.44736  1.0000
  O   O26       1.0  0.02407  0.17936  0.05264  1.0000
  O   O27       1.0  0.47593  0.67936  0.44736  1.0000
  O   O28       1.0  0.52407  0.67936  0.05264  1.0000
  O   O29       1.0  0.02407  0.82064  0.55264  1.0000
  O   O30       1.0  0.97593  0.82064  0.94736  1.0000
  O   O31       1.0  0.52407  0.32064  0.55264  1.0000
  O   O32       1.0  0.47593  0.32064  0.94736  1.0000
  O   O33       1.0  0.91366  0.09890  0.16127  1.0000
  O   O34       1.0  0.08634  0.09890  0.33873  1.0000
  O   O35       1.0  0.41366  0.59890  0.16127  1.0000
  O   O36       1.0  0.58634  0.59890  0.33873  1.0000
  O   O37       1.0  0.08634  0.90110  0.83873  1.0000
  O   O38       1.0  0.91366  0.90110  0.66127  1.0000
  O   O39       1.0  0.58634  0.40110  0.83873  1.0000
  O   O40       1.0  0.41366  0.40110  0.66127  1.0000
  O   O41       1.0  0.91213  0.99135  0.14160  1.0000
  O   O42       1.0  0.08787  0.99135  0.35840  1.0000
  O   O43       1.0  0.41213  0.49135  0.14160  1.0000
  O   O44       1.0  0.58787  0.49135  0.35840  1.0000
  O   O45       1.0  0.08787  0.00865  0.85840  1.0000
  O   O46       1.0  0.91213  0.00865  0.64160  1.0000
  O   O47       1.0  0.58787  0.50865  0.85840  1.0000
  O   O48       1.0  0.41213  0.50865  0.64160  1.0000
  O   O49       1.0  0.17330  0.10971  0.66350  1.0000
  O   O50       1.0  0.82670  0.10971  0.83650  1.0000
  O   O51       1.0  0.67330  0.60971  0.66350  1.0000
  O   O52       1.0  0.32670  0.60971  0.83650  1.0000
  O   O53       1.0  0.82670  0.89029  0.33650  1.0000
  O   O54       1.0  0.17330  0.89029  0.16350  1.0000
  O   O55       1.0  0.32670  0.39029  0.33650  1.0000
  O   O56       1.0  0.67330  0.39029  0.16350  1.0000
  C   C1        1.0  0.94970  0.04201  0.19256  1.0000
  C   C2        1.0  0.05030  0.04201  0.30744  1.0000
  C   C3        1.0  0.44970  0.54201  0.19256  1.0000
  C   C4        1.0  0.55030  0.54201  0.30744  1.0000
  C   C5        1.0  0.05030  0.95799  0.80744  1.0000
  C   C6        1.0  0.94970  0.95799  0.69256  1.0000
  C   C7        1.0  0.55030  0.45799  0.80744  1.0000
  C   C8        1.0  0.44970  0.45799  0.69256  1.0000
  C   C9        1.0  0.86987  0.25931  0.30940  1.0000
  C   C10       1.0  0.13013  0.25931  0.19060  1.0000
  C   C11       1.0  0.36987  0.75931  0.30940  1.0000
  C   C12       1.0  0.63013  0.75931  0.19060  1.0000
  C   C13       1.0  0.13013  0.74069  0.69060  1.0000
  C   C14       1.0  0.86987  0.74069  0.80940  1.0000
  C   C15       1.0  0.63013  0.24069  0.69060  1.0000
  C   C16       1.0  0.36987  0.24069  0.80940  1.0000
  C   C17       1.0  0.91446  0.22150  0.45447  1.0000
  C   C18       1.0  0.08554  0.22150  0.04553  1.0000
  C   C19       1.0  0.41446  0.72150  0.45447  1.0000
  C   C20       1.0  0.58554  0.72150  0.04553  1.0000
  C   C21       1.0  0.08554  0.77850  0.54553  1.0000
  C   C22       1.0  0.91446  0.77850  0.95447  1.0000
  C   C23       1.0  0.58554  0.27850  0.54553  1.0000
  C   C24       1.0  0.41446  0.27850  0.95447  1.0000
  H   H1        1.0  0.21300  0.13760  0.68600  1.0000
  H   H2        1.0  0.78700  0.13760  0.81400  1.0000
  H   H3        1.0  0.71300  0.63760  0.68600  1.0000
  H   H4        1.0  0.28700  0.63760  0.81400  1.0000
  H   H5        1.0  0.78700  0.86240  0.31400  1.0000
  H   H6        1.0  0.21300  0.86240  0.18600  1.0000
  H   H7        1.0  0.28700  0.36240  0.31400  1.0000
  H   H8        1.0  0.71300  0.36240  0.18600  1.0000
  H   H9        1.0  0.14700  0.11090  0.57300  1.0000
  H   H10       1.0  0.85300  0.11090  0.92700  1.0000
  H   H11       1.0  0.64700  0.61090  0.57300  1.0000
  H   H12       1.0  0.35300  0.61090  0.92700  1.0000
  H   H13       1.0  0.85300  0.88910  0.42700  1.0000
  H   H14       1.0  0.14700  0.88910  0.07300  1.0000
  H   H15       1.0  0.35300  0.38910  0.42700  1.0000
  H   H16       1.0  0.64700  0.38910  0.07300  1.0000
