data_image0
_chemical_formula_structural       Fe8K8O56C24O24C16O16C8O8H16
_chemical_formula_sum              "Fe8 K8 O104 C48 H16"
_cell_length_a       14.7204
_cell_length_b       16.3987
_cell_length_c       18.7939
_cell_angle_alpha    90
_cell_angle_beta     103.259
_cell_angle_gamma    90

_space_group_name_H-M_alt    "P 1"
_space_group_IT_number       1

loop_
  _space_group_symop_operation_xyz
  'x, y, z'

loop_
  _atom_site_type_symbol
  _atom_site_label
  _atom_site_symmetry_multiplicity
  _atom_site_fract_x
  _atom_site_fract_y
  _atom_site_fract_z
  _atom_site_occupancy
  Fe  Fe1       1.0  0.00000  0.03012  0.25000  1.0000
  Fe  Fe2       1.0  0.50000  0.53012  0.25000  1.0000
  Fe  Fe3       1.0  0.00000  0.96988  0.75000  1.0000
  Fe  Fe4       1.0  0.50000  0.46988  0.75000  1.0000
  Fe  Fe5       1.0  0.50000  0.18907  0.25000  1.0000
  Fe  Fe6       1.0  0.00000  0.68907  0.25000  1.0000
  Fe  Fe7       1.0  0.50000  0.81093  0.75000  1.0000
  Fe  Fe8       1.0  0.00000  0.31093  0.75000  1.0000
  K   K1        1.0  0.87406  0.36827  0.27991  1.0000
  K   K2        1.0  0.12594  0.36827  0.22009  1.0000
  K   K3        1.0  0.37406  0.86827  0.27991  1.0000
  K   K4        1.0  0.62594  0.86827  0.22009  1.0000
  K   K5        1.0  0.12594  0.63173  0.72009  1.0000
  K   K6        1.0  0.87406  0.63173  0.77991  1.0000
  K   K7        1.0  0.62594  0.13173  0.72009  1.0000
  K   K8        1.0  0.37406  0.13173  0.77991  1.0000
  O   O1        1.0  0.02267  0.12316  0.32077  1.0000
  O   O2        1.0  0.97733  0.12316  0.17923  1.0000
  O   O3        1.0  0.52267  0.62316  0.32077  1.0000
  O   O4        1.0  0.47733  0.62316  0.17923  1.0000
  O   O5        1.0  0.97733  0.87684  0.67923  1.0000
  O   O6        1.0  0.02267  0.87684  0.82077  1.0000
  O   O7        1.0  0.47733  0.37684  0.67923  1.0000
  O   O8        1.0  0.52267  0.37684  0.82077  1.0000
  O   O9        1.0  0.55050  0.09470  0.31641  1.0000
  O   O10       1.0  0.44950  0.09470  0.18359  1.0000
  O   O11       1.0  0.05050  0.59470  0.31641  1.0000
  O   O12       1.0  0.94950  0.59470  0.18359  1.0000
  O   O13       1.0  0.44950  0.90530  0.68359  1.0000
  O   O14       1.0  0.55050  0.90530  0.81641  1.0000
  O   O15       1.0  0.94950  0.40530  0.68359  1.0000
  O   O16       1.0  0.05050  0.40530  0.81641  1.0000
  O   O17       1.0  0.54877  0.95876  0.32235  1.0000
  O   O18       1.0  0.45123  0.95876  0.17765  1.0000
  O   O19       1.0  0.04877  0.45876  0.32235  1.0000
  O   O20       1.0  0.95123  0.45876  0.17765  1.0000
  O   O21       1.0  0.45123  0.04124  0.67765  1.0000
  O   O22       1.0  0.54877  0.04124  0.82235  1.0000
  O   O23       1.0  0.95123  0.54124  0.67765  1.0000
  O   O24       1.0  0.04877  0.54124  0.82235  1.0000
  O   O25       1.0  0.86448  0.01104  0.25022  1.0000
  O   O26       1.0  0.13552  0.01104  0.24978  1.0000
  O   O27       1.0  0.36448  0.51104  0.25022  1.0000
  O   O28       1.0  0.63552  0.51104  0.24978  1.0000
  O   O29       1.0  0.13552  0.98896  0.74978  1.0000
  O   O30       1.0  0.86448  0.98896  0.75022  1.0000
  O   O31       1.0  0.63552  0.48896  0.74978  1.0000
  O   O32       1.0  0.36448  0.48896  0.75022  1.0000
  O   O33       1.0  0.58306  0.26639  0.31649  1.0000
  O   O34       1.0  0.41694  0.26639  0.18351  1.0000
  O   O35       1.0  0.08306  0.76639  0.31649  1.0000
  O   O36       1.0  0.91694  0.76639  0.18351  1.0000
  O   O37       1.0  0.41694  0.73361  0.68351  1.0000
  O   O38       1.0  0.58306  0.73361  0.81649  1.0000
  O   O39       1.0  0.91694  0.23361  0.68351  1.0000
  O   O40       1.0  0.08306  0.23361  0.81649  1.0000
  O   O41       1.0  0.01572  0.95498  0.33680  1.0000
  O   O42       1.0  0.98428  0.95498  0.16320  1.0000
  O   O43       1.0  0.51572  0.45498  0.33680  1.0000
  O   O44       1.0  0.48428  0.45498  0.16320  1.0000
  O   O45       1.0  0.98428  0.04502  0.66320  1.0000
  O   O46       1.0  0.01572  0.04502  0.83680  1.0000
  O   O47       1.0  0.48428  0.54502  0.66320  1.0000
  O   O48       1.0  0.51572  0.54502  0.83680  1.0000
  O   O49       1.0  0.60910  0.19259  0.20064  1.0000
  O   O50       1.0  0.39090  0.19259  0.29936  1.0000
  O   O51       1.0  0.10910  0.69259  0.20064  1.0000
  O   O52       1.0  0.89090  0.69259  0.29936  1.0000
  O   O53       1.0  0.39090  0.80741  0.79936  1.0000
  O   O54       1.0  0.60910  0.80741  0.70064  1.0000
  O   O55       1.0  0.89090  0.30741  0.79936  1.0000
  O   O56       1.0  0.10910  0.30741  0.70064  1.0000
  C   C1        1.0  0.52876  0.02362  0.29043  1.0000
  C   C2        1.0  0.47124  0.02362  0.20957  1.0000
  C   C3        1.0  0.02876  0.52362  0.29043  1.0000
  C   C4        1.0  0.97124  0.52362  0.20957  1.0000
  C   C5        1.0  0.47124  0.97638  0.70957  1.0000
  C   C6        1.0  0.52876  0.97638  0.79043  1.0000
  C   C7        1.0  0.97124  0.47638  0.70957  1.0000
  C   C8        1.0  0.02876  0.47638  0.79043  1.0000
  C   C9        1.0  0.94078  0.93422  0.35376  1.0000
  C   C10       1.0  0.05922  0.93422  0.14624  1.0000
  C   C11       1.0  0.44078  0.43422  0.35376  1.0000
  C   C12       1.0  0.55922  0.43422  0.14624  1.0000
  C   C13       1.0  0.05922  0.06578  0.64624  1.0000
  C   C14       1.0  0.94078  0.06578  0.85376  1.0000
  C   C15       1.0  0.55922  0.56578  0.64624  1.0000
  C   C16       1.0  0.44078  0.56578  0.85376  1.0000
  C   C17       1.0  0.66296  0.28076  0.30266  1.0000
  C   C18       1.0  0.33704  0.28076  0.19734  1.0000
  C   C19       1.0  0.16296  0.78076  0.30266  1.0000
  C   C20       1.0  0.83704  0.78076  0.19734  1.0000
  C   C21       1.0  0.33704  0.71924  0.69734  1.0000
  C   C22       1.0  0.66296  0.71924  0.80266  1.0000
  C   C23       1.0  0.83704  0.21924  0.69734  1.0000
  C   C24       1.0  0.16296  0.21924  0.80266  1.0000
  O   O57       1.0  0.93424  0.89396  0.40802  1.0000
  O   O58       1.0  0.06576  0.89396  0.09198  1.0000
  O   O59       1.0  0.43424  0.39396  0.40802  1.0000
  O   O60       1.0  0.56576  0.39396  0.09198  1.0000
  O   O61       1.0  0.06576  0.10604  0.59198  1.0000
  O   O62       1.0  0.93424  0.10604  0.90802  1.0000
  O   O63       1.0  0.56576  0.60604  0.59198  1.0000
  O   O64       1.0  0.43424  0.60604  0.90802  1.0000
  O   O65       1.0  0.77515  0.94250  0.31144  1.0000
  O   O66       1.0  0.22485  0.94250  0.18856  1.0000
  O   O67       1.0  0.27515  0.44250  0.31144  1.0000
  O   O68       1.0  0.72485  0.44250  0.18856  1.0000
  O   O69       1.0  0.22485  0.05750  0.68856  1.0000
  O   O70       1.0  0.77515  0.05750  0.81144  1.0000
  O   O71       1.0  0.72485  0.55750  0.68856  1.0000
  O   O72       1.0  0.27515  0.55750  0.81144  1.0000
  O   O73       1.0  0.01745  0.25870  0.32561  1.0000
  O   O74       1.0  0.98255  0.25870  0.17439  1.0000
  O   O75       1.0  0.51745  0.75870  0.32561  1.0000
  O   O76       1.0  0.48255  0.75870  0.17439  1.0000
  O   O77       1.0  0.98255  0.74130  0.67439  1.0000
  O   O78       1.0  0.01745  0.74130  0.82561  1.0000
  O   O79       1.0  0.48255  0.24130  0.67439  1.0000
  O   O80       1.0  0.51745  0.24130  0.82561  1.0000
  C   C25       1.0  0.01169  0.19443  0.29243  1.0000
  C   C26       1.0  0.98831  0.19443  0.20757  1.0000
  C   C27       1.0  0.51169  0.69443  0.29243  1.0000
  C   C28       1.0  0.48831  0.69443  0.20757  1.0000
  C   C29       1.0  0.98831  0.80557  0.70757  1.0000
  C   C30       1.0  0.01169  0.80557  0.79243  1.0000
  C   C31       1.0  0.48831  0.30557  0.70757  1.0000
  C   C32       1.0  0.51169  0.30557  0.79243  1.0000
  C   C33       1.0  0.85055  0.96389  0.30116  1.0000
  C   C34       1.0  0.14945  0.96389  0.19884  1.0000
  C   C35       1.0  0.35055  0.46389  0.30116  1.0000
  C   C36       1.0  0.64945  0.46389  0.19884  1.0000
  C   C37       1.0  0.14945  0.03611  0.69884  1.0000
  C   C38       1.0  0.85055  0.03611  0.80116  1.0000
  C   C39       1.0  0.64945  0.53611  0.69884  1.0000
  C   C40       1.0  0.35055  0.53611  0.80116  1.0000
  O   O81       1.0  0.72358  0.32535  0.33707  1.0000
  O   O82       1.0  0.27642  0.32535  0.16293  1.0000
  O   O83       1.0  0.22358  0.82535  0.33707  1.0000
  O   O84       1.0  0.77642  0.82535  0.16293  1.0000
  O   O85       1.0  0.27642  0.67465  0.66293  1.0000
  O   O86       1.0  0.72358  0.67465  0.83707  1.0000
  O   O87       1.0  0.77642  0.17465  0.66293  1.0000
  O   O88       1.0  0.22358  0.17465  0.83707  1.0000
  O   O89       1.0  0.75465  0.23976  0.21764  1.0000
  O   O90       1.0  0.24535  0.23976  0.28236  1.0000
  O   O91       1.0  0.25465  0.73976  0.21764  1.0000
  O   O92       1.0  0.74535  0.73976  0.28236  1.0000
  O   O93       1.0  0.24535  0.76024  0.78236  1.0000
  O   O94       1.0  0.75465  0.76024  0.71764  1.0000
  O   O95       1.0  0.74535  0.26024  0.78236  1.0000
  O   O96       1.0  0.25465  0.26024  0.71764  1.0000
  C   C41       1.0  0.67941  0.23476  0.23430  1.0000
  C   C42       1.0  0.32059  0.23476  0.26570  1.0000
  C   C43       1.0  0.17941  0.73476  0.23430  1.0000
  C   C44       1.0  0.82059  0.73476  0.26570  1.0000
  C   C45       1.0  0.32059  0.76524  0.76570  1.0000
  C   C46       1.0  0.67941  0.76524  0.73430  1.0000
  C   C47       1.0  0.82059  0.26524  0.76570  1.0000
  C   C48       1.0  0.17941  0.26524  0.73430  1.0000
  O   O97       1.0  0.83444  0.52393  0.33471  1.0000
  O   O98       1.0  0.16556  0.52393  0.16529  1.0000
  O   O99       1.0  0.33444  0.02393  0.33471  1.0000
  O   O100      1.0  0.66556  0.02393  0.16529  1.0000
  O   O101      1.0  0.16556  0.47607  0.66529  1.0000
  O   O102      1.0  0.83444  0.47607  0.83471  1.0000
  O   O103      1.0  0.66556  0.97607  0.66529  1.0000
  O   O104      1.0  0.33444  0.97607  0.83471  1.0000
  H   H1        1.0  0.77510  0.53570  0.32000  1.0000
  H   H2        1.0  0.22490  0.53570  0.18000  1.0000
  H   H3        1.0  0.27510  0.03570  0.32000  1.0000
  H   H4        1.0  0.72490  0.03570  0.18000  1.0000
  H   H5        1.0  0.22490  0.46430  0.68000  1.0000
  H   H6        1.0  0.77510  0.46430  0.82000  1.0000
  H   H7        1.0  0.72490  0.96430  0.68000  1.0000
  H   H8        1.0  0.27510  0.96430  0.82000  1.0000
  H   H9        1.0  0.86670  0.56200  0.31910  1.0000
  H   H10       1.0  0.13330  0.56200  0.18090  1.0000
  H   H11       1.0  0.36670  0.06200  0.31910  1.0000
  H   H12       1.0  0.63330  0.06200  0.18090  1.0000
  H   H13       1.0  0.13330  0.43800  0.68090  1.0000
  H   H14       1.0  0.86670  0.43800  0.81910  1.0000
  H   H15       1.0  0.63330  0.93800  0.68090  1.0000
  H   H16       1.0  0.36670  0.93800  0.81910  1.0000
