data_image0
_chemical_formula_structural       Cd2O20N2C14H6C2H6C2H6C2H4C4H2C2H2C4H2C2H2C4H4C4H2C2H2C4H2C2H2C4H4C4H2C2H2C4H2C2H2C6H6C2H6C2H6Cd2O20N2C14H6C2H6C2H6C2H4C4H2C2H2C4H2C2H2C4H4C4H2C2H2C4H2C2H2C4H4C4H2C2H2C4H2C2H2C6H6C2H6C2H6
_chemical_formula_sum              "Cd4 O40 N4 C148 H144"
_cell_length_a       14.275
_cell_length_b       18.902
_cell_length_c       19.667
_cell_angle_alpha    67.586
_cell_angle_beta     85.46
_cell_angle_gamma    68.972

_space_group_name_H-M_alt    "P 1"
_space_group_IT_number       1

loop_
  _space_group_symop_operation_xyz
  'x, y, z'

loop_
  _atom_site_type_symbol
  _atom_site_label
  _atom_site_symmetry_multiplicity
  _atom_site_fract_x
  _atom_site_fract_y
  _atom_site_fract_z
  _atom_site_occupancy
  Cd  Cd1       1.0  0.77002  0.49001  0.09970  1.0000
  Cd  Cd2       1.0  0.22998  0.50999  0.90030  1.0000
  O   O1        1.0  0.89070  0.67490  0.39320  1.0000
  O   O2        1.0  0.10930  0.32510  0.60680  1.0000
  O   O3        1.0  0.88740  0.71290  0.66115  1.0000
  O   O4        1.0  0.11260  0.28710  0.33885  1.0000
  O   O5        1.0  0.94990  0.99070  0.36687  1.0000
  O   O6        1.0  0.05010  0.00930  0.63313  1.0000
  O   O7        1.0  0.71570  0.55980  0.18370  1.0000
  O   O8        1.0  0.28430  0.44020  0.81630  1.0000
  O   O9        1.0  0.87020  0.53810  0.14810  1.0000
  O   O10       1.0  0.12980  0.46190  0.85190  1.0000
  O   O11       1.0  0.87440  0.51000  0.00063  1.0000
  O   O12       1.0  0.12560  0.49000  0.99937  1.0000
  O   O13       1.0  0.72000  0.59870  0.97960  1.0000
  O   O14       1.0  0.28000  0.40130  0.02040  1.0000
  O   O15       1.0  0.79000  0.37830  0.20800  1.0000
  O   O16       1.0  0.21000  0.62170  0.79200  1.0000
  O   O17       1.0  0.86240  0.34440  0.11620  1.0000
  O   O18       1.0  0.13760  0.65560  0.88380  1.0000
  O   O19       1.0  0.61970  0.47760  0.08740  1.0000
  O   O20       1.0  0.38030  0.52240  0.91260  1.0000
  N   N1        1.0  0.55280  0.38120  0.10300  1.0000
  N   N2        1.0  0.44720  0.61880  0.89700  1.0000
  C   C1        1.0  0.97230  0.73890  0.43810  1.0000
  C   C2        1.0  0.02770  0.26110  0.56190  1.0000
  C   C3        1.0  0.99140  0.69920  0.51490  1.0000
  C   C4        1.0  0.00860  0.30080  0.48510  1.0000
  C   C5        1.0  0.97830  0.74590  0.55770  1.0000
  C   C6        1.0  0.02170  0.25410  0.44230  1.0000
  C   C7        1.0  0.94850  0.83040  0.52550  1.0000
  C   C8        1.0  0.05150  0.16960  0.47450  1.0000
  C   C9        1.0  0.92170  0.87010  0.44980  1.0000
  C   C10       1.0  0.07830  0.12990  0.55020  1.0000
  C   C11       1.0  0.93430  0.82330  0.40630  1.0000
  C   C12       1.0  0.06570  0.17670  0.59370  1.0000
  C   C13       1.0  0.02230  0.60600  0.55070  1.0000
  C   C14       1.0  0.97770  0.39400  0.44930  1.0000
  H   H1        1.0  0.02740  0.58420  0.51310  1.0000
  H   H2        1.0  0.97260  0.41580  0.48690  1.0000
  H   H3        1.0  0.97260  0.59210  0.58360  1.0000
  H   H4        1.0  0.02740  0.40790  0.41640  1.0000
  H   H5        1.0  0.08620  0.58310  0.57780  1.0000
  H   H6        1.0  0.91380  0.41690  0.42220  1.0000
  C   C15       1.0  0.94090  0.88160  0.57120  1.0000
  C   C16       1.0  0.05910  0.11840  0.42880  1.0000
  H   H7        1.0  0.91860  0.93850  0.53960  1.0000
  H   H8        1.0  0.08140  0.06150  0.46040  1.0000
  H   H9        1.0  0.00570  0.86590  0.59450  1.0000
  H   H10       1.0  0.99430  0.13410  0.40550  1.0000
  H   H11       1.0  0.89370  0.87260  0.60810  1.0000
  H   H12       1.0  0.10630  0.12740  0.39190  1.0000
  C   C17       1.0  0.90640  0.86640  0.32250  1.0000
  C   C18       1.0  0.09360  0.13360  0.67750  1.0000
  H   H13       1.0  0.88160  0.92470  0.30900  1.0000
  H   H14       1.0  0.11840  0.07530  0.69100  1.0000
  H   H15       1.0  0.85540  0.85050  0.31000  1.0000
  H   H16       1.0  0.14460  0.14950  0.69000  1.0000
  H   H17       1.0  0.96500  0.85070  0.29640  1.0000
  H   H18       1.0  0.03500  0.14930  0.70360  1.0000
  C   C19       1.0  0.98420  0.68960  0.39150  1.0000
  C   C20       1.0  0.01580  0.31040  0.60850  1.0000
  H   H19       1.0  0.99620  0.71970  0.34130  1.0000
  H   H20       1.0  0.00380  0.28030  0.65870  1.0000
  H   H21       1.0  0.04030  0.63820  0.41120  1.0000
  H   H22       1.0  0.95970  0.36180  0.58880  1.0000
  C   C21       1.0  0.87900  0.63970  0.34760  1.0000
  C   C22       1.0  0.12100  0.36030  0.65240  1.0000
  C   C23       1.0  0.78220  0.63580  0.34500  1.0000
  C   C24       1.0  0.21780  0.36420  0.65500  1.0000
  H   H23       1.0  0.73460  0.65200  0.37650  1.0000
  H   H24       1.0  0.26540  0.34800  0.62350  1.0000
  C   C25       1.0  0.75920  0.60810  0.29600  1.0000
  C   C26       1.0  0.24080  0.39190  0.70400  1.0000
  H   H25       1.0  0.69540  0.60600  0.29410  1.0000
  H   H26       1.0  0.30460  0.39400  0.70590  1.0000
  C   C27       1.0  0.83030  0.58280  0.24830  1.0000
  C   C28       1.0  0.16970  0.41720  0.75170  1.0000
  C   C29       1.0  0.92570  0.58210  0.25580  1.0000
  C   C30       1.0  0.07430  0.41790  0.74420  1.0000
  H   H27       1.0  0.97510  0.56090  0.22780  1.0000
  H   H28       1.0  0.02490  0.43910  0.77220  1.0000
  C   C31       1.0  0.95110  0.61150  0.30320  1.0000
  C   C32       1.0  0.04890  0.38850  0.69680  1.0000
  H   H29       1.0  0.01540  0.61240  0.30540  1.0000
  H   H30       1.0  0.98460  0.38760  0.69460  1.0000
  C   C33       1.0  0.80330  0.55840  0.19030  1.0000
  C   C34       1.0  0.19670  0.44160  0.80970  1.0000
  C   C35       1.0  0.98990  0.70340  0.64120  1.0000
  C   C36       1.0  0.01010  0.29660  0.35880  1.0000
  H   H31       1.0  0.03210  0.64610  0.65630  1.0000
  H   H32       1.0  0.96790  0.35390  0.34370  1.0000
  H   H33       1.0  0.01860  0.72970  0.66330  1.0000
  H   H34       1.0  0.98140  0.27030  0.33670  1.0000
  C   C37       1.0  0.87280  0.67730  0.73320  1.0000
  C   C38       1.0  0.12720  0.32270  0.26680  1.0000
  C   C39       1.0  0.77350  0.68710  0.75010  1.0000
  C   C40       1.0  0.22650  0.31290  0.24990  1.0000
  H   H35       1.0  0.72230  0.71530  0.71270  1.0000
  H   H36       1.0  0.27770  0.28470  0.28730  1.0000
  C   C41       1.0  0.75100  0.65450  0.82310  1.0000
  C   C42       1.0  0.24900  0.34550  0.17690  1.0000
  H   H37       1.0  0.68450  0.66170  0.83410  1.0000
  H   H38       1.0  0.31550  0.33830  0.16590  1.0000
  C   C43       1.0  0.82710  0.61090  0.88020  1.0000
  C   C44       1.0  0.17290  0.38910  0.11980  1.0000
  C   C45       1.0  0.92460  0.60160  0.86190  1.0000
  C   C46       1.0  0.07540  0.39840  0.13810  1.0000
  H   H39       1.0  0.97640  0.57120  0.89880  1.0000
  H   H40       1.0  0.02360  0.42880  0.10120  1.0000
  C   C47       1.0  0.94780  0.63690  0.78880  1.0000
  C   C48       1.0  0.05220  0.36310  0.21120  1.0000
  H   H41       1.0  0.01370  0.63290  0.77810  1.0000
  H   H42       1.0  0.98630  0.36710  0.22190  1.0000
  C   C49       1.0  0.80570  0.57170  0.95780  1.0000
  C   C50       1.0  0.19430  0.42830  0.04220  1.0000
  C   C51       1.0  0.87700  0.96200  0.41460  1.0000
  C   C52       1.0  0.12300  0.03800  0.58540  1.0000
  H   H43       1.0  0.81510  0.97870  0.38600  1.0000
  H   H44       1.0  0.18490  0.02130  0.61400  1.0000
  H   H45       1.0  0.86200  0.98520  0.45220  1.0000
  H   H46       1.0  0.13800  0.01480  0.54780  1.0000
  C   C53       1.0  0.91850  0.07260  0.32340  1.0000
  C   C54       1.0  0.08150  0.92740  0.67660  1.0000
  C   C55       1.0  0.83510  0.13100  0.33680  1.0000
  C   C56       1.0  0.16490  0.86900  0.66320  1.0000
  H   H47       1.0  0.79620  0.11600  0.37620  1.0000
  H   H48       1.0  0.20380  0.88400  0.62380  1.0000
  C   C57       1.0  0.81160  0.21260  0.28950  1.0000
  C   C58       1.0  0.18840  0.78740  0.71050  1.0000
  H   H49       1.0  0.75610  0.25220  0.29810  1.0000
  H   H50       1.0  0.24390  0.74780  0.70190  1.0000
  C   C59       1.0  0.86840  0.23710  0.22960  1.0000
  C   C60       1.0  0.13160  0.76290  0.77040  1.0000
  C   C61       1.0  0.95060  0.17620  0.21810  1.0000
  C   C62       1.0  0.04940  0.82380  0.78190  1.0000
  H   H51       1.0  0.98850  0.19040  0.17790  1.0000
  H   H52       1.0  0.01150  0.80960  0.82210  1.0000
  C   C63       1.0  0.97650  0.09670  0.26460  1.0000
  C   C64       1.0  0.02350  0.90330  0.73540  1.0000
  H   H53       1.0  0.03370  0.05760  0.25710  1.0000
  H   H54       1.0  0.96630  0.94240  0.74290  1.0000
  C   C65       1.0  0.83770  0.32610  0.18140  1.0000
  C   C66       1.0  0.16230  0.67390  0.81860  1.0000
  C   C67       1.0  0.60660  0.42740  0.06510  1.0000
  C   C68       1.0  0.39340  0.57260  0.93490  1.0000
  C   C69       1.0  0.64960  0.42070  0.99460  1.0000
  C   C70       1.0  0.35040  0.57930  0.00540  1.0000
  H   H55       1.0  0.63300  0.38020  0.98520  1.0000
  H   H56       1.0  0.36700  0.61980  0.01480  1.0000
  H   H57       1.0  0.72140  0.40490  0.99890  1.0000
  H   H58       1.0  0.27860  0.59510  0.00110  1.0000
  H   H59       1.0  0.62190  0.47270  0.95460  1.0000
  H   H60       1.0  0.37810  0.52730  0.04540  1.0000
  C   C71       1.0  0.51070  0.38880  0.17240  1.0000
  C   C72       1.0  0.48930  0.61120  0.82760  1.0000
  H   H61       1.0  0.47460  0.35210  0.19310  1.0000
  H   H62       1.0  0.52540  0.64790  0.80690  1.0000
  H   H63       1.0  0.46570  0.44410  0.16210  1.0000
  H   H64       1.0  0.53430  0.55590  0.83790  1.0000
  H   H65       1.0  0.56440  0.37530  0.20680  1.0000
  H   H66       1.0  0.43560  0.62470  0.79320  1.0000
  C   C73       1.0  0.52770  0.32840  0.07640  1.0000
  C   C74       1.0  0.47230  0.67160  0.92360  1.0000
  H   H67       1.0  0.48960  0.30060  0.11170  1.0000
  H   H68       1.0  0.51040  0.69940  0.88830  1.0000
  H   H69       1.0  0.58840  0.28890  0.06950  1.0000
  H   H70       1.0  0.41160  0.71110  0.93050  1.0000
  H   H71       1.0  0.48840  0.36070  0.03030  1.0000
  H   H72       1.0  0.51160  0.63930  0.96970  1.0000
  Cd  Cd3       1.0  0.81083  0.27206  0.79340  1.0000
  Cd  Cd4       1.0  0.18917  0.72794  0.20660  1.0000
  O   O21       1.0  0.69170  0.08230  0.50080  1.0000
  O   O22       1.0  0.30830  0.91770  0.49920  1.0000
  O   O23       1.0  0.67490  0.07030  0.23006  1.0000
  O   O24       1.0  0.32510  0.92970  0.76994  1.0000
  O   O25       1.0  0.62570  0.76770  0.52080  1.0000
  O   O26       1.0  0.37430  0.23230  0.47920  1.0000
  O   O27       1.0  0.84020  0.19990  0.71970  1.0000
  O   O28       1.0  0.15980  0.80010  0.28030  1.0000
  O   O29       1.0  0.67940  0.27370  0.70950  1.0000
  O   O30       1.0  0.32060  0.72630  0.29050  1.0000
  O   O31       1.0  0.82480  0.38880  0.71690  1.0000
  O   O32       1.0  0.17520  0.61120  0.28310  1.0000
  O   O33       1.0  0.67700  0.41470  0.76240  1.0000
  O   O34       1.0  0.32300  0.58530  0.23760  1.0000
  O   O35       1.0  0.82130  0.25270  0.92280  1.0000
  O   O36       1.0  0.17870  0.74730  0.07720  1.0000
  O   O37       1.0  0.72460  0.20660  0.88530  1.0000
  O   O38       1.0  0.27540  0.79340  0.11470  1.0000
  O   O39       1.0  0.98590  0.21980  0.81700  1.0000
  O   O40       1.0  0.01410  0.78020  0.18300  1.0000
  N   N3        1.0  0.13870  0.13720  0.86900  1.0000
  N   N4        1.0  0.86130  0.86280  0.13100  1.0000
  C   C75       1.0  0.60770  0.02510  0.44880  1.0000
  C   C76       1.0  0.39230  0.97490  0.55120  1.0000
  C   C77       1.0  0.58840  0.06050  0.37130  1.0000
  C   C78       1.0  0.41160  0.93950  0.62870  1.0000
  C   C79       1.0  0.59800  0.00890  0.33330  1.0000
  C   C80       1.0  0.40200  0.99110  0.66670  1.0000
  C   C81       1.0  0.63010  0.92360  0.36970  1.0000
  C   C82       1.0  0.36990  0.07640  0.63030  1.0000
  C   C83       1.0  0.65600  0.88890  0.44500  1.0000
  C   C84       1.0  0.34400  0.11110  0.55500  1.0000
  C   C85       1.0  0.64510  0.93970  0.48520  1.0000
  C   C86       1.0  0.35490  0.06030  0.51480  1.0000
  C   C87       1.0  0.55610  0.15120  0.33020  1.0000
  C   C88       1.0  0.44390  0.84880  0.66980  1.0000
  H   H73       1.0  0.55270  0.17720  0.36430  1.0000
  H   H74       1.0  0.44730  0.82280  0.63570  1.0000
  H   H75       1.0  0.49100  0.17120  0.30550  1.0000
  H   H76       1.0  0.50900  0.82880  0.69450  1.0000
  H   H77       1.0  0.60380  0.16330  0.29460  1.0000
  H   H78       1.0  0.39620  0.83670  0.70540  1.0000
  C   C89       1.0  0.63350  0.86860  0.32890  1.0000
  C   C90       1.0  0.36650  0.13140  0.67110  1.0000
  H   H79       1.0  0.65710  0.81250  0.36270  1.0000
  H   H80       1.0  0.34290  0.18750  0.63730  1.0000
  H   H81       1.0  0.67840  0.87580  0.28990  1.0000
  H   H82       1.0  0.32160  0.12420  0.71010  1.0000
  H   H83       1.0  0.56730  0.88290  0.30850  1.0000
  H   H84       1.0  0.43270  0.11710  0.69150  1.0000
  C   C91       1.0  0.67050  0.90130  0.56760  1.0000
  C   C92       1.0  0.32950  0.09870  0.43240  1.0000
  H   H85       1.0  0.69440  0.84270  0.58350  1.0000
  H   H86       1.0  0.30560  0.15730  0.41650  1.0000
  H   H87       1.0  0.61140  0.91920  0.59250  1.0000
  H   H88       1.0  0.38860  0.08080  0.40750  1.0000
  H   H89       1.0  0.72170  0.91760  0.57910  1.0000
  H   H90       1.0  0.27830  0.08240  0.42090  1.0000
  C   C93       1.0  0.59410  0.07850  0.49150  1.0000
  C   C94       1.0  0.40590  0.92150  0.50850  1.0000
  H   H91       1.0  0.54610  0.13290  0.46500  1.0000
  H   H92       1.0  0.45390  0.86710  0.53500  1.0000
  H   H93       1.0  0.56920  0.05550  0.53920  1.0000
  H   H94       1.0  0.43080  0.94450  0.46080  1.0000
  C   C95       1.0  0.70050  0.12050  0.54620  1.0000
  C   C96       1.0  0.29950  0.87950  0.45380  1.0000
  C   C97       1.0  0.61890  0.16890  0.57140  1.0000
  C   C98       1.0  0.38110  0.83110  0.42860  1.0000
  H   H95       1.0  0.55350  0.17830  0.55730  1.0000
  H   H96       1.0  0.44650  0.82170  0.44270  1.0000
  C   C99       1.0  0.63670  0.20270  0.61780  1.0000
  C   C100      1.0  0.36330  0.79730  0.38220  1.0000
  H   H97       1.0  0.58220  0.23600  0.63400  1.0000
  H   H98       1.0  0.41780  0.76400  0.36600  1.0000
  C   C101      1.0  0.73290  0.18880  0.64100  1.0000
  C   C102      1.0  0.26710  0.81120  0.35900  1.0000
  C   C103      1.0  0.81370  0.14160  0.61390  1.0000
  C   C104      1.0  0.18630  0.85840  0.38610  1.0000
  H   H99       1.0  0.87900  0.13230  0.62810  1.0000
  H   H100      1.0  0.12100  0.86770  0.37190  1.0000
  C   C105      1.0  0.79820  0.10880  0.56670  1.0000
  C   C106      1.0  0.20180  0.89120  0.43330  1.0000
  H   H101      1.0  0.85280  0.07840  0.54810  1.0000
  H   H102      1.0  0.14720  0.92160  0.45190  1.0000
  C   C107      1.0  0.75250  0.22340  0.69390  1.0000
  C   C108      1.0  0.24750  0.77660  0.30610  1.0000
  C   C109      1.0  0.58740  0.04670  0.24960  1.0000
  C   C110      1.0  0.41260  0.95330  0.75040  1.0000
  H   H103      1.0  0.58770  0.00730  0.22920  1.0000
  H   H104      1.0  0.41230  0.99270  0.77080  1.0000
  H   H105      1.0  0.52580  0.09410  0.23210  1.0000
  H   H106      1.0  0.47420  0.90590  0.76790  1.0000
  C   C111      1.0  0.68790  0.10660  0.15630  1.0000
  C   C112      1.0  0.31210  0.89340  0.84370  1.0000
  C   C113      1.0  0.63190  0.11310  0.09780  1.0000
  C   C114      1.0  0.36810  0.88690  0.90220  1.0000
  H   H107      1.0  0.57860  0.09410  0.10630  1.0000
  H   H108      1.0  0.42140  0.90590  0.89370  1.0000
  C   C115      1.0  0.65710  0.14790  0.02790  1.0000
  C   C116      1.0  0.34290  0.85210  0.97210  1.0000
  H   H109      1.0  0.62150  0.15110  0.98860  1.0000
  H   H110      1.0  0.37850  0.84890  0.01140  1.0000
  C   C117      1.0  0.73450  0.17890  0.01360  1.0000
  C   C118      1.0  0.26550  0.82110  0.98640  1.0000
  C   C119      1.0  0.78430  0.17740  0.07080  1.0000
  C   C120      1.0  0.21570  0.82260  0.92920  1.0000
  H   H111      1.0  0.83220  0.20230  0.06160  1.0000
  H   H112      1.0  0.16780  0.79770  0.93840  1.0000
  C   C121      1.0  0.76340  0.13880  0.14290  1.0000
  C   C122      1.0  0.23660  0.86120  0.85710  1.0000
  H   H113      1.0  0.80030  0.13460  0.18200  1.0000
  H   H114      1.0  0.19970  0.86540  0.81800  1.0000
  C   C123      1.0  0.76250  0.21720  0.93450  1.0000
  C   C124      1.0  0.23750  0.78280  0.06550  1.0000
  C   C125      1.0  0.70370  0.79720  0.48450  1.0000
  C   C126      1.0  0.29630  0.20280  0.51550  1.0000
  H   H115      1.0  0.73310  0.77180  0.44950  1.0000
  H   H116      1.0  0.26690  0.22820  0.55050  1.0000
  H   H117      1.0  0.75640  0.78400  0.52040  1.0000
  H   H118      1.0  0.24360  0.21600  0.47960  1.0000
  C   C127      1.0  0.65790  0.68680  0.56720  1.0000
  C   C128      1.0  0.34210  0.31320  0.43280  1.0000
  C   C129      1.0  0.58540  0.65950  0.60910  1.0000
  C   C130      1.0  0.41460  0.34050  0.39090  1.0000
  H   H119      1.0  0.51930  0.69550  0.60370  1.0000
  H   H120      1.0  0.48070  0.30450  0.39630  1.0000
  C   C131      1.0  0.61110  0.57940  0.65860  1.0000
  C   C132      1.0  0.38890  0.42060  0.34140  1.0000
  H   H121      1.0  0.56260  0.56190  0.68730  1.0000
  H   H122      1.0  0.43740  0.43810  0.31270  1.0000
  C   C133      1.0  0.70850  0.52540  0.66540  1.0000
  C   C134      1.0  0.29150  0.47460  0.33460  1.0000
  C   C135      1.0  0.77980  0.55240  0.62340  1.0000
  C   C136      1.0  0.22020  0.44760  0.37660  1.0000
  H   H123      1.0  0.84560  0.51600  0.62820  1.0000
  H   H124      1.0  0.15440  0.48400  0.37180  1.0000
  C   C137      1.0  0.75550  0.63240  0.57410  1.0000
  C   C138      1.0  0.24450  0.36760  0.42590  1.0000
  H   H125      1.0  0.80440  0.64970  0.54580  1.0000
  H   H126      1.0  0.19560  0.35030  0.45420  1.0000
  C   C139      1.0  0.73800  0.43720  0.71910  1.0000
  C   C140      1.0  0.26200  0.56280  0.28090  1.0000
  C   C141      1.0  0.03830  0.15080  0.85300  1.0000
  C   C142      1.0  0.96170  0.84920  0.14700  1.0000
  C   C143      1.0  0.00210  0.07460  0.87940  1.0000
  C   C144      1.0  0.99790  0.92540  0.12060  1.0000
  H   H127      1.0  0.05690  0.02550  0.90610  1.0000
  H   H128      1.0  0.94310  0.97450  0.09390  1.0000
  H   H129      1.0  0.97990  0.06950  0.83720  1.0000
  H   H130      1.0  0.02010  0.93050  0.16280  1.0000
  H   H131      1.0  0.94750  0.08270  0.91080  1.0000
  H   H132      1.0  0.05250  0.91730  0.08920  1.0000
  C   C145      1.0  0.18170  0.20270  0.84630  1.0000
  C   C146      1.0  0.81830  0.79730  0.15370  1.0000
  H   H133      1.0  0.25120  0.17940  0.86380  1.0000
  H   H134      1.0  0.74880  0.82060  0.13620  1.0000
  H   H135      1.0  0.14540  0.24260  0.86700  1.0000
  H   H136      1.0  0.85460  0.75740  0.13300  1.0000
  H   H137      1.0  0.17630  0.22860  0.79350  1.0000
  H   H138      1.0  0.82370  0.77140  0.20650  1.0000
  C   C147      1.0  0.20910  0.05010  0.90540  1.0000
  C   C148      1.0  0.79090  0.94990  0.09460  1.0000
  H   H139      1.0  0.27480  0.04940  0.91370  1.0000
  H   H140      1.0  0.72520  0.95060  0.08630  1.0000
  H   H141      1.0  0.21280  0.02090  0.87410  1.0000
  H   H142      1.0  0.78720  0.97910  0.12590  1.0000
  H   H143      1.0  0.18460  0.02430  0.95170  1.0000
  H   H144      1.0  0.81540  0.97570  0.04830  1.0000
