data_image0
_chemical_formula_structural       Mn2S4O12S4O12C12H4O4C4H4N4C4H12C4H12
_chemical_formula_sum              "Mn2 S8 O28 C24 H32 N4"
_cell_length_a       9.4202
_cell_length_b       16.8486
_cell_length_c       9.1845
_cell_angle_alpha    90
_cell_angle_beta     97.746
_cell_angle_gamma    90

_space_group_name_H-M_alt    "P 1"
_space_group_IT_number       1

loop_
  _space_group_symop_operation_xyz
  'x, y, z'

loop_
  _atom_site_type_symbol
  _atom_site_label
  _atom_site_symmetry_multiplicity
  _atom_site_fract_x
  _atom_site_fract_y
  _atom_site_fract_z
  _atom_site_occupancy
  Mn  Mn1       1.0  0.50000  0.00000  0.00000  1.0000
  Mn  Mn2       1.0  0.50000  0.50000  0.50000  1.0000
  S   S1        1.0  0.24060  0.86605  0.01233  1.0000
  S   S2        1.0  0.75940  0.36605  0.48767  1.0000
  S   S3        1.0  0.75940  0.13395  0.98767  1.0000
  S   S4        1.0  0.24060  0.63395  0.51233  1.0000
  O   O1        1.0  0.35589  0.90155  0.94228  1.0000
  O   O2        1.0  0.64411  0.40155  0.55772  1.0000
  O   O3        1.0  0.64411  0.09845  0.05772  1.0000
  O   O4        1.0  0.35589  0.59845  0.44228  1.0000
  O   O5        1.0  0.28310  0.84345  0.16239  1.0000
  O   O6        1.0  0.71690  0.34345  0.33761  1.0000
  O   O7        1.0  0.71690  0.15655  0.83761  1.0000
  O   O8        1.0  0.28310  0.65655  0.66239  1.0000
  O   O9        1.0  0.17105  0.80335  0.92121  1.0000
  O   O10       1.0  0.82895  0.30335  0.57879  1.0000
  O   O11       1.0  0.82895  0.19665  0.07879  1.0000
  O   O12       1.0  0.17105  0.69665  0.42121  1.0000
  S   S5        1.0  0.26749  0.03110  0.25076  1.0000
  S   S6        1.0  0.73251  0.53110  0.24924  1.0000
  S   S7        1.0  0.73251  0.96890  0.74924  1.0000
  S   S8        1.0  0.26749  0.46890  0.75076  1.0000
  O   O13       1.0  0.40072  0.00920  0.19730  1.0000
  O   O14       1.0  0.59928  0.50920  0.30270  1.0000
  O   O15       1.0  0.59928  0.99080  0.80270  1.0000
  O   O16       1.0  0.40072  0.49080  0.69730  1.0000
  O   O17       1.0  0.25629  0.11430  0.27770  1.0000
  O   O18       1.0  0.74371  0.61430  0.22230  1.0000
  O   O19       1.0  0.74371  0.88570  0.72230  1.0000
  O   O20       1.0  0.25629  0.38570  0.77770  1.0000
  O   O21       1.0  0.24220  0.98276  0.37439  1.0000
  O   O22       1.0  0.75780  0.48276  0.12561  1.0000
  O   O23       1.0  0.75780  0.01724  0.62561  1.0000
  O   O24       1.0  0.24220  0.51724  0.87439  1.0000
  C   C1        1.0  0.10920  0.94314  0.01250  1.0000
  C   C2        1.0  0.89080  0.44314  0.48750  1.0000
  C   C3        1.0  0.89080  0.05686  0.98750  1.0000
  C   C4        1.0  0.10920  0.55686  0.51250  1.0000
  C   C5        1.0  0.12239  0.00926  0.10630  1.0000
  C   C6        1.0  0.87761  0.50926  0.39370  1.0000
  C   C7        1.0  0.87761  0.99074  0.89370  1.0000
  C   C8        1.0  0.12239  0.49074  0.60630  1.0000
  C   C9        1.0  0.01210  0.06475  0.09090  1.0000
  C   C10       1.0  0.98790  0.56475  0.40910  1.0000
  C   C11       1.0  0.98790  0.93525  0.90910  1.0000
  C   C12       1.0  0.01210  0.43525  0.59090  1.0000
  H   H1        1.0  0.01970  0.10890  0.15230  1.0000
  H   H2        1.0  0.98030  0.60890  0.34770  1.0000
  H   H3        1.0  0.98030  0.89110  0.84770  1.0000
  H   H4        1.0  0.01970  0.39110  0.65230  1.0000
  O   O25       1.0  0.34271  0.08203  0.89070  1.0000
  O   O26       1.0  0.65729  0.58203  0.60930  1.0000
  O   O27       1.0  0.65729  0.91797  0.10930  1.0000
  O   O28       1.0  0.34271  0.41797  0.39070  1.0000
  C   C13       1.0  0.25960  0.07830  0.77710  1.0000
  C   C14       1.0  0.74040  0.57830  0.72290  1.0000
  C   C15       1.0  0.74040  0.92170  0.22290  1.0000
  C   C16       1.0  0.25960  0.42170  0.27710  1.0000
  H   H5        1.0  0.27000  0.03200  0.70300  1.0000
  H   H6        1.0  0.73000  0.53200  0.79700  1.0000
  H   H7        1.0  0.73000  0.96800  0.29700  1.0000
  H   H8        1.0  0.27000  0.46800  0.20300  1.0000
  N   N1        1.0  0.16030  0.13131  0.73390  1.0000
  N   N2        1.0  0.83970  0.63131  0.76610  1.0000
  N   N3        1.0  0.83970  0.86869  0.26610  1.0000
  N   N4        1.0  0.16030  0.36869  0.23390  1.0000
  C   C17       1.0  0.06540  0.12080  0.59500  1.0000
  C   C18       1.0  0.93460  0.62080  0.90500  1.0000
  C   C19       1.0  0.93460  0.87920  0.40500  1.0000
  C   C20       1.0  0.06540  0.37920  0.09500  1.0000
  H   H9        1.0  0.07270  0.16630  0.53340  1.0000
  H   H10       1.0  0.92730  0.66630  0.96660  1.0000
  H   H11       1.0  0.92730  0.83370  0.46660  1.0000
  H   H12       1.0  0.07270  0.33370  0.03340  1.0000
  H   H13       1.0  0.96840  0.11530  0.61460  1.0000
  H   H14       1.0  0.03160  0.61530  0.88540  1.0000
  H   H15       1.0  0.03160  0.88470  0.38540  1.0000
  H   H16       1.0  0.96840  0.38470  0.11460  1.0000
  H   H17       1.0  0.09310  0.07410  0.54620  1.0000
  H   H18       1.0  0.90690  0.57410  0.95380  1.0000
  H   H19       1.0  0.90690  0.92590  0.45380  1.0000
  H   H20       1.0  0.09310  0.42590  0.04620  1.0000
  C   C21       1.0  0.13720  0.20010  0.81980  1.0000
  C   C22       1.0  0.86280  0.70010  0.68020  1.0000
  C   C23       1.0  0.86280  0.79990  0.18020  1.0000
  C   C24       1.0  0.13720  0.29990  0.31980  1.0000
  H   H21       1.0  0.03640  0.20680  0.82260  1.0000
  H   H22       1.0  0.96360  0.70680  0.67740  1.0000
  H   H23       1.0  0.96360  0.79320  0.17740  1.0000
  H   H24       1.0  0.03640  0.29320  0.32260  1.0000
  H   H25       1.0  0.17420  0.24620  0.77620  1.0000
  H   H26       1.0  0.82580  0.74620  0.72380  1.0000
  H   H27       1.0  0.82580  0.75380  0.22380  1.0000
  H   H28       1.0  0.17420  0.25380  0.27620  1.0000
  H   H29       1.0  0.18540  0.19350  0.91790  1.0000
  H   H30       1.0  0.81460  0.69350  0.58210  1.0000
  H   H31       1.0  0.81460  0.80650  0.08210  1.0000
  H   H32       1.0  0.18540  0.30650  0.41790  1.0000
