data_image0
_chemical_formula_structural       Cu4O24N4C12H4C8H4C8H8
_chemical_formula_sum              "Cu4 O24 N4 C28 H16"
_cell_length_a       10.089
_cell_length_b       14.902
_cell_length_c       10.296
_cell_angle_alpha    90
_cell_angle_beta     103
_cell_angle_gamma    90

_space_group_name_H-M_alt    "P 1"
_space_group_IT_number       1

loop_
  _space_group_symop_operation_xyz
  'x, y, z'

loop_
  _atom_site_type_symbol
  _atom_site_label
  _atom_site_symmetry_multiplicity
  _atom_site_fract_x
  _atom_site_fract_y
  _atom_site_fract_z
  _atom_site_occupancy
  Cu  Cu1       1.0  0.48631  0.07124  0.70621  1.0000
  Cu  Cu2       1.0  0.51369  0.57124  0.79379  1.0000
  Cu  Cu3       1.0  0.51369  0.92876  0.29379  1.0000
  Cu  Cu4       1.0  0.48631  0.42876  0.20621  1.0000
  O   O1        1.0  0.60720  0.12411  0.59269  1.0000
  O   O2        1.0  0.39280  0.62411  0.90731  1.0000
  O   O3        1.0  0.39280  0.87589  0.40731  1.0000
  O   O4        1.0  0.60720  0.37589  0.09269  1.0000
  O   O5        1.0  0.68489  0.25416  0.53203  1.0000
  O   O6        1.0  0.31511  0.75416  0.96797  1.0000
  O   O7        1.0  0.31511  0.74584  0.46797  1.0000
  O   O8        1.0  0.68489  0.24584  0.03203  1.0000
  O   O9        1.0  0.36253  0.06682  0.84728  1.0000
  O   O10       1.0  0.63747  0.56682  0.65272  1.0000
  O   O11       1.0  0.63747  0.93318  0.15272  1.0000
  O   O12       1.0  0.36253  0.43318  0.34728  1.0000
  O   O13       1.0  0.24340  0.16000  0.95056  1.0000
  O   O14       1.0  0.75660  0.66000  0.54944  1.0000
  O   O15       1.0  0.75660  0.84000  0.04944  1.0000
  O   O16       1.0  0.24340  0.34000  0.45056  1.0000
  O   O17       1.0  0.42648  0.46089  0.81319  1.0000
  O   O18       1.0  0.57352  0.96089  0.68681  1.0000
  O   O19       1.0  0.57352  0.53911  0.18681  1.0000
  O   O20       1.0  0.42648  0.03911  0.31319  1.0000
  O   O21       1.0  0.29933  0.02946  0.54442  1.0000
  O   O22       1.0  0.70067  0.52946  0.95558  1.0000
  O   O23       1.0  0.70067  0.97054  0.45558  1.0000
  O   O24       1.0  0.29933  0.47054  0.04442  1.0000
  N   N1        1.0  0.45987  0.19585  0.73244  1.0000
  N   N2        1.0  0.54013  0.69585  0.76756  1.0000
  N   N3        1.0  0.54013  0.80415  0.26756  1.0000
  N   N4        1.0  0.45987  0.30415  0.23244  1.0000
  C   C1        1.0  0.61470  0.20973  0.59340  1.0000
  C   C2        1.0  0.38530  0.70973  0.90660  1.0000
  C   C3        1.0  0.38530  0.79027  0.40660  1.0000
  C   C4        1.0  0.61470  0.29027  0.09340  1.0000
  C   C5        1.0  0.53040  0.25540  0.67800  1.0000
  C   C6        1.0  0.46960  0.75540  0.82200  1.0000
  C   C7        1.0  0.46960  0.74460  0.32200  1.0000
  C   C8        1.0  0.53040  0.24460  0.17800  1.0000
  C   C9        1.0  0.52560  0.34651  0.70250  1.0000
  C   C10       1.0  0.47440  0.84651  0.79750  1.0000
  C   C11       1.0  0.47440  0.65349  0.29750  1.0000
  C   C12       1.0  0.52560  0.15349  0.20250  1.0000
  H   H1        1.0  0.57820  0.38750  0.66440  1.0000
  H   H2        1.0  0.42180  0.88750  0.83560  1.0000
  H   H3        1.0  0.42180  0.61250  0.33560  1.0000
  H   H4        1.0  0.57820  0.11250  0.16440  1.0000
  C   C13       1.0  0.44070  0.37740  0.78550  1.0000
  C   C14       1.0  0.55930  0.87740  0.71450  1.0000
  C   C15       1.0  0.55930  0.62260  0.21450  1.0000
  C   C16       1.0  0.44070  0.12260  0.28550  1.0000
  C   C17       1.0  0.36770  0.31183  0.84140  1.0000
  C   C18       1.0  0.63230  0.81183  0.65860  1.0000
  C   C19       1.0  0.63230  0.68817  0.15860  1.0000
  C   C20       1.0  0.36770  0.18817  0.34140  1.0000
  H   H5        1.0  0.30940  0.32960  0.89750  1.0000
  H   H6        1.0  0.69060  0.82960  0.60250  1.0000
  H   H7        1.0  0.69060  0.67040  0.10250  1.0000
  H   H8        1.0  0.30940  0.17040  0.39750  1.0000
  C   C21       1.0  0.38180  0.22231  0.81380  1.0000
  C   C22       1.0  0.61820  0.72231  0.68620  1.0000
  C   C23       1.0  0.61820  0.77769  0.18620  1.0000
  C   C24       1.0  0.38180  0.27769  0.31380  1.0000
  C   C25       1.0  0.32300  0.14484  0.87610  1.0000
  C   C26       1.0  0.67700  0.64484  0.62390  1.0000
  C   C27       1.0  0.67700  0.85516  0.12390  1.0000
  C   C28       1.0  0.32300  0.35516  0.37610  1.0000
  H   H9        1.0  0.26700  0.98500  0.56100  1.0000
  H   H10       1.0  0.73300  0.48500  0.93900  1.0000
  H   H11       1.0  0.73300  0.01500  0.43900  1.0000
  H   H12       1.0  0.26700  0.51500  0.06100  1.0000
  H   H13       1.0  0.32800  0.02100  0.47900  1.0000
  H   H14       1.0  0.67200  0.52100  0.02100  1.0000
  H   H15       1.0  0.67200  0.97900  0.52100  1.0000
  H   H16       1.0  0.32800  0.47900  0.97900  1.0000
