data_image0
_chemical_formula_structural       C8H4C4H4C4H4C4H4C12H4C4H4C4H4C4H4C16H4C4H4C4H4C4H4N36Zn4
_chemical_formula_sum              "C72 H48 N36 Zn4"
_cell_length_a       11.9439
_cell_length_b       9.8058
_cell_length_c       21.585
_cell_angle_alpha    90
_cell_angle_beta     104.212
_cell_angle_gamma    90

_space_group_name_H-M_alt    "P 1"
_space_group_IT_number       1

loop_
  _space_group_symop_operation_xyz
  'x, y, z'

loop_
  _atom_site_type_symbol
  _atom_site_label
  _atom_site_symmetry_multiplicity
  _atom_site_fract_x
  _atom_site_fract_y
  _atom_site_fract_z
  _atom_site_occupancy
  C   C1        1.0  0.64790  0.31880  0.83315  1.0000
  C   C2        1.0  0.35210  0.81880  0.66685  1.0000
  C   C3        1.0  0.35210  0.68120  0.16685  1.0000
  C   C4        1.0  0.64790  0.18120  0.33315  1.0000
  C   C5        1.0  0.74470  0.30690  0.88465  1.0000
  C   C6        1.0  0.25530  0.80690  0.61535  1.0000
  C   C7        1.0  0.25530  0.69310  0.11535  1.0000
  C   C8        1.0  0.74470  0.19310  0.38465  1.0000
  H   H1        1.0  0.78560  0.22560  0.89360  1.0000
  H   H2        1.0  0.21440  0.72560  0.60640  1.0000
  H   H3        1.0  0.21440  0.77440  0.10640  1.0000
  H   H4        1.0  0.78560  0.27440  0.39360  1.0000
  C   C9        1.0  0.77600  0.42040  0.92092  1.0000
  C   C10       1.0  0.22400  0.92040  0.57908  1.0000
  C   C11       1.0  0.22400  0.57960  0.07908  1.0000
  C   C12       1.0  0.77600  0.07960  0.42092  1.0000
  H   H5        1.0  0.84020  0.41660  0.95540  1.0000
  H   H6        1.0  0.15980  0.91660  0.54460  1.0000
  H   H7        1.0  0.15980  0.58340  0.04460  1.0000
  H   H8        1.0  0.84020  0.08340  0.45540  1.0000
  C   C13       1.0  0.71450  0.54290  0.90794  1.0000
  C   C14       1.0  0.28550  0.04290  0.59206  1.0000
  C   C15       1.0  0.28550  0.45710  0.09206  1.0000
  C   C16       1.0  0.71450  0.95710  0.40794  1.0000
  H   H9        1.0  0.73870  0.61790  0.93420  1.0000
  H   H10       1.0  0.26130  0.11790  0.56580  1.0000
  H   H11       1.0  0.26130  0.38210  0.06580  1.0000
  H   H12       1.0  0.73870  0.88210  0.43420  1.0000
  C   C17       1.0  0.62010  0.55540  0.85786  1.0000
  C   C18       1.0  0.37990  0.05540  0.64214  1.0000
  C   C19       1.0  0.37990  0.44460  0.14214  1.0000
  C   C20       1.0  0.62010  0.94460  0.35786  1.0000
  H   H13       1.0  0.57930  0.63680  0.84930  1.0000
  H   H14       1.0  0.42070  0.13680  0.65070  1.0000
  H   H15       1.0  0.42070  0.36320  0.15070  1.0000
  H   H16       1.0  0.57930  0.86320  0.34930  1.0000
  C   C21       1.0  0.58770  0.43960  0.81994  1.0000
  C   C22       1.0  0.41230  0.93960  0.68006  1.0000
  C   C23       1.0  0.41230  0.56040  0.18006  1.0000
  C   C24       1.0  0.58770  0.06040  0.31994  1.0000
  C   C25       1.0  0.18210  0.42170  0.60887  1.0000
  C   C26       1.0  0.81790  0.92170  0.89113  1.0000
  C   C27       1.0  0.81790  0.57830  0.39113  1.0000
  C   C28       1.0  0.18210  0.07830  0.10887  1.0000
  C   C29       1.0  0.08000  0.41310  0.62930  1.0000
  C   C30       1.0  0.92000  0.91310  0.87070  1.0000
  C   C31       1.0  0.92000  0.58690  0.37070  1.0000
  C   C32       1.0  0.08000  0.08690  0.12930  1.0000
  H   H17       1.0  0.07730  0.43880  0.67040  1.0000
  H   H18       1.0  0.92270  0.93880  0.82960  1.0000
  H   H19       1.0  0.92270  0.56120  0.32960  1.0000
  H   H20       1.0  0.07730  0.06120  0.17040  1.0000
  C   C33       1.0  0.98440  0.36560  0.58640  1.0000
  C   C34       1.0  0.01560  0.86560  0.91360  1.0000
  C   C35       1.0  0.01560  0.63440  0.41360  1.0000
  C   C36       1.0  0.98440  0.13440  0.08640  1.0000
  H   H21       1.0  0.91540  0.35800  0.59880  1.0000
  H   H22       1.0  0.08460  0.85800  0.90120  1.0000
  H   H23       1.0  0.08460  0.64200  0.40120  1.0000
  H   H24       1.0  0.91540  0.14200  0.09880  1.0000
  C   C37       1.0  0.98730  0.32800  0.52450  1.0000
  C   C38       1.0  0.01270  0.82800  0.97550  1.0000
  C   C39       1.0  0.01270  0.67200  0.47550  1.0000
  C   C40       1.0  0.98730  0.17200  0.02450  1.0000
  H   H25       1.0  0.92000  0.29680  0.49660  1.0000
  H   H26       1.0  0.08000  0.79680  0.00340  1.0000
  H   H27       1.0  0.08000  0.70320  0.50340  1.0000
  H   H28       1.0  0.92000  0.20320  0.99660  1.0000
  C   C41       1.0  0.08520  0.33560  0.50407  1.0000
  C   C42       1.0  0.91480  0.83560  0.99593  1.0000
  C   C43       1.0  0.91480  0.66440  0.49593  1.0000
  C   C44       1.0  0.08520  0.16440  0.00407  1.0000
  H   H29       1.0  0.08660  0.31000  0.46280  1.0000
  H   H30       1.0  0.91340  0.81000  0.03720  1.0000
  H   H31       1.0  0.91340  0.69000  0.53720  1.0000
  H   H32       1.0  0.08660  0.19000  0.96280  1.0000
  C   C45       1.0  0.18400  0.38320  0.54704  1.0000
  C   C46       1.0  0.81600  0.88320  0.95296  1.0000
  C   C47       1.0  0.81600  0.61680  0.45296  1.0000
  C   C48       1.0  0.18400  0.11680  0.04704  1.0000
  C   C49       1.0  0.12480  0.48770  0.83554  1.0000
  C   C50       1.0  0.87520  0.98770  0.66446  1.0000
  C   C51       1.0  0.87520  0.51230  0.16446  1.0000
  C   C52       1.0  0.12480  0.01230  0.33554  1.0000
  C   C53       1.0  0.15540  0.56040  0.78660  1.0000
  C   C54       1.0  0.84460  0.06040  0.71340  1.0000
  C   C55       1.0  0.84460  0.43960  0.21340  1.0000
  C   C56       1.0  0.15540  0.93960  0.28660  1.0000
  C   C57       1.0  0.08000  0.65530  0.75005  1.0000
  C   C58       1.0  0.92000  0.15530  0.74995  1.0000
  C   C59       1.0  0.92000  0.34470  0.24995  1.0000
  C   C60       1.0  0.08000  0.84470  0.25005  1.0000
  H   H33       1.0  0.10030  0.70540  0.71790  1.0000
  H   H34       1.0  0.89970  0.20540  0.78210  1.0000
  H   H35       1.0  0.89970  0.29460  0.28210  1.0000
  H   H36       1.0  0.10030  0.79460  0.21790  1.0000
  C   C61       1.0  0.97510  0.67100  0.76370  1.0000
  C   C62       1.0  0.02490  0.17100  0.73630  1.0000
  C   C63       1.0  0.02490  0.32900  0.23630  1.0000
  C   C64       1.0  0.97510  0.82900  0.26370  1.0000
  H   H37       1.0  0.92260  0.73300  0.74020  1.0000
  H   H38       1.0  0.07740  0.23300  0.75980  1.0000
  H   H39       1.0  0.07740  0.26700  0.25980  1.0000
  H   H40       1.0  0.92260  0.76700  0.24020  1.0000
  C   C65       1.0  0.94440  0.59590  0.81240  1.0000
  C   C66       1.0  0.05560  0.09590  0.68760  1.0000
  C   C67       1.0  0.05560  0.40410  0.18760  1.0000
  C   C68       1.0  0.94440  0.90410  0.31240  1.0000
  H   H41       1.0  0.87160  0.60870  0.81980  1.0000
  H   H42       1.0  0.12840  0.10870  0.68020  1.0000
  H   H43       1.0  0.12840  0.39130  0.18020  1.0000
  H   H44       1.0  0.87160  0.89130  0.31980  1.0000
  C   C69       1.0  0.01700  0.50590  0.84886  1.0000
  C   C70       1.0  0.98300  0.00590  0.65114  1.0000
  C   C71       1.0  0.98300  0.49410  0.15114  1.0000
  C   C72       1.0  0.01700  0.99410  0.34886  1.0000
  H   H45       1.0  0.99630  0.45790  0.88150  1.0000
  H   H46       1.0  0.00370  0.95790  0.61850  1.0000
  H   H47       1.0  0.00370  0.54210  0.11850  1.0000
  H   H48       1.0  0.99630  0.04210  0.38150  1.0000
  N   N1        1.0  0.59520  0.22640  0.78762  1.0000
  N   N2        1.0  0.40480  0.72640  0.71238  1.0000
  N   N3        1.0  0.40480  0.77360  0.21238  1.0000
  N   N4        1.0  0.59520  0.27360  0.28762  1.0000
  N   N5        1.0  0.50600  0.28960  0.74886  1.0000
  N   N6        1.0  0.49400  0.78960  0.75114  1.0000
  N   N7        1.0  0.49400  0.71040  0.25114  1.0000
  N   N8        1.0  0.50600  0.21040  0.24886  1.0000
  N   N9        1.0  0.50030  0.41850  0.76708  1.0000
  N   N10       1.0  0.49970  0.91850  0.73292  1.0000
  N   N11       1.0  0.49970  0.58150  0.23292  1.0000
  N   N12       1.0  0.50030  0.08150  0.26708  1.0000
  N   N13       1.0  0.29380  0.40070  0.54137  1.0000
  N   N14       1.0  0.70620  0.90070  0.95863  1.0000
  N   N15       1.0  0.70620  0.59930  0.45863  1.0000
  N   N16       1.0  0.29380  0.09930  0.04137  1.0000
  N   N17       1.0  0.35690  0.44640  0.59662  1.0000
  N   N18       1.0  0.64310  0.94640  0.90338  1.0000
  N   N19       1.0  0.64310  0.55360  0.40338  1.0000
  N   N20       1.0  0.35690  0.05360  0.09662  1.0000
  N   N21       1.0  0.29120  0.46010  0.63867  1.0000
  N   N22       1.0  0.70880  0.96010  0.86133  1.0000
  N   N23       1.0  0.70880  0.53990  0.36133  1.0000
  N   N24       1.0  0.29120  0.03990  0.13867  1.0000
  N   N25       1.0  0.21440  0.40340  0.86208  1.0000
  N   N26       1.0  0.78560  0.90340  0.63792  1.0000
  N   N27       1.0  0.78560  0.59660  0.13792  1.0000
  N   N28       1.0  0.21440  0.09660  0.36208  1.0000
  N   N29       1.0  0.29470  0.42090  0.82976  1.0000
  N   N30       1.0  0.70530  0.92090  0.67024  1.0000
  N   N31       1.0  0.70530  0.57910  0.17024  1.0000
  N   N32       1.0  0.29470  0.07910  0.32976  1.0000
  N   N33       1.0  0.26150  0.51540  0.78374  1.0000
  N   N34       1.0  0.73850  0.01540  0.71626  1.0000
  N   N35       1.0  0.73850  0.48460  0.21626  1.0000
  N   N36       1.0  0.26150  0.98460  0.28374  1.0000
  Zn  Zn1       1.0  0.36481  0.53198  0.72486  1.0000
  Zn  Zn2       1.0  0.63519  0.03198  0.77514  1.0000
  Zn  Zn3       1.0  0.63519  0.46802  0.27514  1.0000
  Zn  Zn4       1.0  0.36481  0.96802  0.22486  1.0000
