data_image0
_chemical_formula_structural       Eu8O64N32C8H8C8H8C16H8C24H16C8H16C8H16C8H8C8H8C16H8C32H8C16H8C8H8C16H16C8H16C8H16C16H8C16H8C8H8C8
_chemical_formula_sum              "Eu8 O64 N32 C240 H192"
_cell_length_a       22.848
_cell_length_b       13.2562
_cell_length_c       23.117
_cell_angle_alpha    90
_cell_angle_beta     113.829
_cell_angle_gamma    90

_space_group_name_H-M_alt    "P 1"
_space_group_IT_number       1

loop_
  _space_group_symop_operation_xyz
  'x, y, z'

loop_
  _atom_site_type_symbol
  _atom_site_label
  _atom_site_symmetry_multiplicity
  _atom_site_fract_x
  _atom_site_fract_y
  _atom_site_fract_z
  _atom_site_occupancy
  Eu  Eu1       1.0  0.73340  0.20782  0.23203  1.0000
  Eu  Eu2       1.0  0.26660  0.20782  0.26797  1.0000
  Eu  Eu3       1.0  0.23340  0.70782  0.23203  1.0000
  Eu  Eu4       1.0  0.76660  0.70782  0.26797  1.0000
  Eu  Eu5       1.0  0.26660  0.79218  0.76797  1.0000
  Eu  Eu6       1.0  0.73340  0.79218  0.73203  1.0000
  Eu  Eu7       1.0  0.76660  0.29218  0.76797  1.0000
  Eu  Eu8       1.0  0.23340  0.29218  0.73203  1.0000
  O   O1        1.0  0.73468  0.24990  0.33218  1.0000
  O   O2        1.0  0.26532  0.24990  0.16782  1.0000
  O   O3        1.0  0.23468  0.74990  0.33218  1.0000
  O   O4        1.0  0.76532  0.74990  0.16782  1.0000
  O   O5        1.0  0.26532  0.75010  0.66782  1.0000
  O   O6        1.0  0.73468  0.75010  0.83218  1.0000
  O   O7        1.0  0.76532  0.25010  0.66782  1.0000
  O   O8        1.0  0.23468  0.25010  0.83218  1.0000
  O   O9        1.0  0.71180  0.23430  0.41560  1.0000
  O   O10       1.0  0.28820  0.23430  0.08440  1.0000
  O   O11       1.0  0.21180  0.73430  0.41560  1.0000
  O   O12       1.0  0.78820  0.73430  0.08440  1.0000
  O   O13       1.0  0.28820  0.76570  0.58440  1.0000
  O   O14       1.0  0.71180  0.76570  0.91560  1.0000
  O   O15       1.0  0.78820  0.26570  0.58440  1.0000
  O   O16       1.0  0.21180  0.26570  0.91560  1.0000
  O   O17       1.0  0.30361  0.64770  0.18557  1.0000
  O   O18       1.0  0.69639  0.64770  0.31443  1.0000
  O   O19       1.0  0.80361  0.14770  0.18557  1.0000
  O   O20       1.0  0.19639  0.14770  0.31443  1.0000
  O   O21       1.0  0.69639  0.35230  0.81443  1.0000
  O   O22       1.0  0.30361  0.35230  0.68557  1.0000
  O   O23       1.0  0.19639  0.85230  0.81443  1.0000
  O   O24       1.0  0.80361  0.85230  0.68557  1.0000
  O   O25       1.0  0.39562  0.57310  0.19897  1.0000
  O   O26       1.0  0.60438  0.57310  0.30103  1.0000
  O   O27       1.0  0.89562  0.07310  0.19897  1.0000
  O   O28       1.0  0.10438  0.07310  0.30103  1.0000
  O   O29       1.0  0.60438  0.42690  0.80103  1.0000
  O   O30       1.0  0.39562  0.42690  0.69897  1.0000
  O   O31       1.0  0.10438  0.92690  0.80103  1.0000
  O   O32       1.0  0.89562  0.92690  0.69897  1.0000
  O   O33       1.0  0.74695  0.38930  0.25119  1.0000
  O   O34       1.0  0.25305  0.38930  0.24881  1.0000
  O   O35       1.0  0.24695  0.88930  0.25119  1.0000
  O   O36       1.0  0.75305  0.88930  0.24881  1.0000
  O   O37       1.0  0.25305  0.61070  0.74881  1.0000
  O   O38       1.0  0.74695  0.61070  0.75119  1.0000
  O   O39       1.0  0.75305  0.11070  0.74881  1.0000
  O   O40       1.0  0.24695  0.11070  0.75119  1.0000
  O   O41       1.0  0.72386  0.54740  0.21938  1.0000
  O   O42       1.0  0.27614  0.54740  0.28062  1.0000
  O   O43       1.0  0.22386  0.04740  0.21938  1.0000
  O   O44       1.0  0.77614  0.04740  0.28062  1.0000
  O   O45       1.0  0.27614  0.45260  0.78062  1.0000
  O   O46       1.0  0.72386  0.45260  0.71938  1.0000
  O   O47       1.0  0.77614  0.95260  0.78062  1.0000
  O   O48       1.0  0.22386  0.95260  0.71938  1.0000
  O   O49       1.0  0.43425  0.88930  0.94104  1.0000
  O   O50       1.0  0.56575  0.88930  0.55896  1.0000
  O   O51       1.0  0.93425  0.38930  0.94104  1.0000
  O   O52       1.0  0.06575  0.38930  0.55896  1.0000
  O   O53       1.0  0.56575  0.11070  0.05896  1.0000
  O   O54       1.0  0.43425  0.11070  0.44104  1.0000
  O   O55       1.0  0.06575  0.61070  0.05896  1.0000
  O   O56       1.0  0.93425  0.61070  0.44104  1.0000
  O   O57       1.0  0.34025  0.87490  0.85908  1.0000
  O   O58       1.0  0.65975  0.87490  0.64092  1.0000
  O   O59       1.0  0.84025  0.37490  0.85908  1.0000
  O   O60       1.0  0.15975  0.37490  0.64092  1.0000
  O   O61       1.0  0.65975  0.12510  0.14092  1.0000
  O   O62       1.0  0.34025  0.12510  0.35908  1.0000
  O   O63       1.0  0.15975  0.62510  0.14092  1.0000
  O   O64       1.0  0.84025  0.62510  0.35908  1.0000
  N   N1        1.0  0.65491  0.10100  0.27080  1.0000
  N   N2        1.0  0.34509  0.10100  0.22920  1.0000
  N   N3        1.0  0.15491  0.60100  0.27080  1.0000
  N   N4        1.0  0.84509  0.60100  0.22920  1.0000
  N   N5        1.0  0.34509  0.89900  0.72920  1.0000
  N   N6        1.0  0.65491  0.89900  0.77080  1.0000
  N   N7        1.0  0.84509  0.39900  0.72920  1.0000
  N   N8        1.0  0.15491  0.39900  0.77080  1.0000
  N   N9        1.0  0.35507  0.73150  0.29985  1.0000
  N   N10       1.0  0.64493  0.73150  0.20015  1.0000
  N   N11       1.0  0.85507  0.23150  0.29985  1.0000
  N   N12       1.0  0.14493  0.23150  0.20015  1.0000
  N   N13       1.0  0.64493  0.26850  0.70015  1.0000
  N   N14       1.0  0.35507  0.26850  0.79985  1.0000
  N   N15       1.0  0.14493  0.76850  0.70015  1.0000
  N   N16       1.0  0.85507  0.76850  0.79985  1.0000
  N   N17       1.0  0.72311  0.32460  0.13610  1.0000
  N   N18       1.0  0.27689  0.32460  0.36390  1.0000
  N   N19       1.0  0.22311  0.82460  0.13610  1.0000
  N   N20       1.0  0.77689  0.82460  0.36390  1.0000
  N   N21       1.0  0.27689  0.67540  0.86390  1.0000
  N   N22       1.0  0.72311  0.67540  0.63610  1.0000
  N   N23       1.0  0.77689  0.17540  0.86390  1.0000
  N   N24       1.0  0.22311  0.17540  0.63610  1.0000
  N   N25       1.0  0.38134  0.71660  0.81370  1.0000
  N   N26       1.0  0.61866  0.71660  0.68630  1.0000
  N   N27       1.0  0.88134  0.21660  0.81370  1.0000
  N   N28       1.0  0.11866  0.21660  0.68630  1.0000
  N   N29       1.0  0.61866  0.28340  0.18630  1.0000
  N   N30       1.0  0.38134  0.28340  0.31370  1.0000
  N   N31       1.0  0.11866  0.78340  0.18630  1.0000
  N   N32       1.0  0.88134  0.78340  0.31370  1.0000
  C   C1        1.0  0.61970  0.02080  0.24310  1.0000
  C   C2        1.0  0.38030  0.02080  0.25690  1.0000
  C   C3        1.0  0.11970  0.52080  0.24310  1.0000
  C   C4        1.0  0.88030  0.52080  0.25690  1.0000
  C   C5        1.0  0.38030  0.97920  0.75690  1.0000
  C   C6        1.0  0.61970  0.97920  0.74310  1.0000
  C   C7        1.0  0.88030  0.47920  0.75690  1.0000
  C   C8        1.0  0.11970  0.47920  0.74310  1.0000
  H   H1        1.0  0.61330  0.00600  0.20170  1.0000
  H   H2        1.0  0.38670  0.00600  0.29830  1.0000
  H   H3        1.0  0.11330  0.50600  0.20170  1.0000
  H   H4        1.0  0.88670  0.50600  0.29830  1.0000
  H   H5        1.0  0.38670  0.99400  0.79830  1.0000
  H   H6        1.0  0.61330  0.99400  0.70170  1.0000
  H   H7        1.0  0.88670  0.49400  0.79830  1.0000
  H   H8        1.0  0.11330  0.49400  0.70170  1.0000
  C   C9        1.0  0.59240  0.95880  0.27320  1.0000
  C   C10       1.0  0.40760  0.95880  0.22680  1.0000
  C   C11       1.0  0.09240  0.45880  0.27320  1.0000
  C   C12       1.0  0.90760  0.45880  0.22680  1.0000
  C   C13       1.0  0.40760  0.04120  0.72680  1.0000
  C   C14       1.0  0.59240  0.04120  0.77320  1.0000
  C   C15       1.0  0.90760  0.54120  0.72680  1.0000
  C   C16       1.0  0.09240  0.54120  0.77320  1.0000
  H   H9        1.0  0.56930  0.90240  0.25230  1.0000
  H   H10       1.0  0.43070  0.90240  0.24770  1.0000
  H   H11       1.0  0.06930  0.40240  0.25230  1.0000
  H   H12       1.0  0.93070  0.40240  0.24770  1.0000
  H   H13       1.0  0.43070  0.09760  0.74770  1.0000
  H   H14       1.0  0.56930  0.09760  0.75230  1.0000
  H   H15       1.0  0.93070  0.59760  0.74770  1.0000
  H   H16       1.0  0.06930  0.59760  0.75230  1.0000
  C   C17       1.0  0.59890  0.97960  0.33450  1.0000
  C   C18       1.0  0.40110  0.97960  0.16550  1.0000
  C   C19       1.0  0.09890  0.47960  0.33450  1.0000
  C   C20       1.0  0.90110  0.47960  0.16550  1.0000
  C   C21       1.0  0.40110  0.02040  0.66550  1.0000
  C   C22       1.0  0.59890  0.02040  0.83450  1.0000
  C   C23       1.0  0.90110  0.52040  0.66550  1.0000
  C   C24       1.0  0.09890  0.52040  0.83450  1.0000
  C   C25       1.0  0.63410  0.06350  0.36240  1.0000
  C   C26       1.0  0.36590  0.06350  0.13760  1.0000
  C   C27       1.0  0.13410  0.56350  0.36240  1.0000
  C   C28       1.0  0.86590  0.56350  0.13760  1.0000
  C   C29       1.0  0.36590  0.93650  0.63760  1.0000
  C   C30       1.0  0.63410  0.93650  0.86240  1.0000
  C   C31       1.0  0.86590  0.43650  0.63760  1.0000
  C   C32       1.0  0.13410  0.43650  0.86240  1.0000
  H   H17       1.0  0.63900  0.08190  0.40290  1.0000
  H   H18       1.0  0.36100  0.08190  0.09710  1.0000
  H   H19       1.0  0.13900  0.58190  0.40290  1.0000
  H   H20       1.0  0.86100  0.58190  0.09710  1.0000
  H   H21       1.0  0.36100  0.91810  0.59710  1.0000
  H   H22       1.0  0.63900  0.91810  0.90290  1.0000
  H   H23       1.0  0.86100  0.41810  0.59710  1.0000
  H   H24       1.0  0.13900  0.41810  0.90290  1.0000
  C   C33       1.0  0.66250  0.12180  0.33040  1.0000
  C   C34       1.0  0.33750  0.12180  0.16960  1.0000
  C   C35       1.0  0.16250  0.62180  0.33040  1.0000
  C   C36       1.0  0.83750  0.62180  0.16960  1.0000
  C   C37       1.0  0.33750  0.87820  0.66960  1.0000
  C   C38       1.0  0.66250  0.87820  0.83040  1.0000
  C   C39       1.0  0.83750  0.37820  0.66960  1.0000
  C   C40       1.0  0.16250  0.37820  0.83040  1.0000
  C   C41       1.0  0.70600  0.20900  0.36160  1.0000
  C   C42       1.0  0.29400  0.20900  0.13840  1.0000
  C   C43       1.0  0.20600  0.70900  0.36160  1.0000
  C   C44       1.0  0.79400  0.70900  0.13840  1.0000
  C   C45       1.0  0.29400  0.79100  0.63840  1.0000
  C   C46       1.0  0.70600  0.79100  0.86160  1.0000
  C   C47       1.0  0.79400  0.29100  0.63840  1.0000
  C   C48       1.0  0.20600  0.29100  0.86160  1.0000
  C   C49       1.0  0.56960  0.91370  0.37050  1.0000
  C   C50       1.0  0.43040  0.91370  0.12950  1.0000
  C   C51       1.0  0.06960  0.41370  0.37050  1.0000
  C   C52       1.0  0.93040  0.41370  0.12950  1.0000
  C   C53       1.0  0.43040  0.08630  0.62950  1.0000
  C   C54       1.0  0.56960  0.08630  0.87050  1.0000
  C   C55       1.0  0.93040  0.58630  0.62950  1.0000
  C   C56       1.0  0.06960  0.58630  0.87050  1.0000
  H   H25       1.0  0.58240  0.93960  0.41310  1.0000
  H   H26       1.0  0.41760  0.93960  0.08690  1.0000
  H   H27       1.0  0.08240  0.43960  0.41310  1.0000
  H   H28       1.0  0.91760  0.43960  0.08690  1.0000
  H   H29       1.0  0.41760  0.06040  0.58690  1.0000
  H   H30       1.0  0.58240  0.06040  0.91310  1.0000
  H   H31       1.0  0.91760  0.56040  0.58690  1.0000
  H   H32       1.0  0.08240  0.56040  0.91310  1.0000
  H   H33       1.0  0.52330  0.91690  0.34960  1.0000
  H   H34       1.0  0.47670  0.91690  0.15040  1.0000
  H   H35       1.0  0.02330  0.41690  0.34960  1.0000
  H   H36       1.0  0.97670  0.41690  0.15040  1.0000
  H   H37       1.0  0.47670  0.08310  0.65040  1.0000
  H   H38       1.0  0.52330  0.08310  0.84960  1.0000
  H   H39       1.0  0.97670  0.58310  0.65040  1.0000
  H   H40       1.0  0.02330  0.58310  0.84960  1.0000
  C   C57       1.0  0.59050  0.80780  0.37350  1.0000
  C   C58       1.0  0.40950  0.80780  0.12650  1.0000
  C   C59       1.0  0.09050  0.30780  0.37350  1.0000
  C   C60       1.0  0.90950  0.30780  0.12650  1.0000
  C   C61       1.0  0.40950  0.19220  0.62650  1.0000
  C   C62       1.0  0.59050  0.19220  0.87350  1.0000
  C   C63       1.0  0.90950  0.69220  0.62650  1.0000
  C   C64       1.0  0.09050  0.69220  0.87350  1.0000
  H   H41       1.0  0.63660  0.80450  0.39650  1.0000
  H   H42       1.0  0.36340  0.80450  0.10350  1.0000
  H   H43       1.0  0.13660  0.30450  0.39650  1.0000
  H   H44       1.0  0.86340  0.30450  0.10350  1.0000
  H   H45       1.0  0.36340  0.19550  0.60350  1.0000
  H   H46       1.0  0.63660  0.19550  0.89650  1.0000
  H   H47       1.0  0.86340  0.69550  0.60350  1.0000
  H   H48       1.0  0.13660  0.69550  0.89650  1.0000
  H   H49       1.0  0.58020  0.78360  0.33090  1.0000
  H   H50       1.0  0.41980  0.78360  0.16910  1.0000
  H   H51       1.0  0.08020  0.28360  0.33090  1.0000
  H   H52       1.0  0.91980  0.28360  0.16910  1.0000
  H   H53       1.0  0.41980  0.21640  0.66910  1.0000
  H   H54       1.0  0.58020  0.21640  0.83090  1.0000
  H   H55       1.0  0.91980  0.71640  0.66910  1.0000
  H   H56       1.0  0.08020  0.71640  0.83090  1.0000
  C   C65       1.0  0.55840  0.73760  0.40610  1.0000
  C   C66       1.0  0.44160  0.73760  0.09390  1.0000
  C   C67       1.0  0.05840  0.23760  0.40610  1.0000
  C   C68       1.0  0.94160  0.23760  0.09390  1.0000
  C   C69       1.0  0.44160  0.26240  0.59390  1.0000
  C   C70       1.0  0.55840  0.26240  0.90610  1.0000
  C   C71       1.0  0.94160  0.76240  0.59390  1.0000
  C   C72       1.0  0.05840  0.76240  0.90610  1.0000
  H   H57       1.0  0.57600  0.67010  0.40930  1.0000
  H   H58       1.0  0.42400  0.67010  0.09070  1.0000
  H   H59       1.0  0.07600  0.17010  0.40930  1.0000
  H   H60       1.0  0.92400  0.17010  0.09070  1.0000
  H   H61       1.0  0.42400  0.32990  0.59070  1.0000
  H   H62       1.0  0.57600  0.32990  0.90930  1.0000
  H   H63       1.0  0.92400  0.82990  0.59070  1.0000
  H   H64       1.0  0.07600  0.82990  0.90930  1.0000
  H   H65       1.0  0.56840  0.76180  0.44860  1.0000
  H   H66       1.0  0.43160  0.76180  0.05140  1.0000
  H   H67       1.0  0.06840  0.26180  0.44860  1.0000
  H   H68       1.0  0.93160  0.26180  0.05140  1.0000
  H   H69       1.0  0.43160  0.23820  0.55140  1.0000
  H   H70       1.0  0.56840  0.23820  0.94860  1.0000
  H   H71       1.0  0.93160  0.73820  0.55140  1.0000
  H   H72       1.0  0.06840  0.73820  0.94860  1.0000
  C   C73       1.0  0.38170  0.77870  0.35540  1.0000
  C   C74       1.0  0.61830  0.77870  0.14460  1.0000
  C   C75       1.0  0.88170  0.27870  0.35540  1.0000
  C   C76       1.0  0.11830  0.27870  0.14460  1.0000
  C   C77       1.0  0.61830  0.22130  0.64460  1.0000
  C   C78       1.0  0.38170  0.22130  0.85540  1.0000
  C   C79       1.0  0.11830  0.72130  0.64460  1.0000
  C   C80       1.0  0.88170  0.72130  0.85540  1.0000
  H   H73       1.0  0.35490  0.81160  0.37080  1.0000
  H   H74       1.0  0.64510  0.81160  0.12920  1.0000
  H   H75       1.0  0.85490  0.31160  0.37080  1.0000
  H   H76       1.0  0.14510  0.31160  0.12920  1.0000
  H   H77       1.0  0.64510  0.18840  0.62920  1.0000
  H   H78       1.0  0.35490  0.18840  0.87080  1.0000
  H   H79       1.0  0.14510  0.68840  0.62920  1.0000
  H   H80       1.0  0.85490  0.68840  0.87080  1.0000
  C   C81       1.0  0.44680  0.78140  0.39140  1.0000
  C   C82       1.0  0.55320  0.78140  0.10860  1.0000
  C   C83       1.0  0.94680  0.28140  0.39140  1.0000
  C   C84       1.0  0.05320  0.28140  0.10860  1.0000
  C   C85       1.0  0.55320  0.21860  0.60860  1.0000
  C   C86       1.0  0.44680  0.21860  0.89140  1.0000
  C   C87       1.0  0.05320  0.71860  0.60860  1.0000
  C   C88       1.0  0.94680  0.71860  0.89140  1.0000
  H   H81       1.0  0.46300  0.81590  0.42960  1.0000
  H   H82       1.0  0.53700  0.81590  0.07040  1.0000
  H   H83       1.0  0.96300  0.31590  0.42960  1.0000
  H   H84       1.0  0.03700  0.31590  0.07040  1.0000
  H   H85       1.0  0.53700  0.18410  0.57040  1.0000
  H   H86       1.0  0.46300  0.18410  0.92960  1.0000
  H   H87       1.0  0.03700  0.68410  0.57040  1.0000
  H   H88       1.0  0.96300  0.68410  0.92960  1.0000
  C   C89       1.0  0.48700  0.73310  0.37030  1.0000
  C   C90       1.0  0.51300  0.73310  0.12970  1.0000
  C   C91       1.0  0.98700  0.23310  0.37030  1.0000
  C   C92       1.0  0.01300  0.23310  0.12970  1.0000
  C   C93       1.0  0.51300  0.26690  0.62970  1.0000
  C   C94       1.0  0.48700  0.26690  0.87030  1.0000
  C   C95       1.0  0.01300  0.76690  0.62970  1.0000
  C   C96       1.0  0.98700  0.76690  0.87030  1.0000
  C   C97       1.0  0.46020  0.68210  0.31330  1.0000
  C   C98       1.0  0.53980  0.68210  0.18670  1.0000
  C   C99       1.0  0.96020  0.18210  0.31330  1.0000
  C   C100      1.0  0.03980  0.18210  0.18670  1.0000
  C   C101      1.0  0.53980  0.31790  0.68670  1.0000
  C   C102      1.0  0.46020  0.31790  0.81330  1.0000
  C   C103      1.0  0.03980  0.81790  0.68670  1.0000
  C   C104      1.0  0.96020  0.81790  0.81330  1.0000
  H   H89       1.0  0.48630  0.64730  0.29790  1.0000
  H   H90       1.0  0.51370  0.64730  0.20210  1.0000
  H   H91       1.0  0.98630  0.14730  0.29790  1.0000
  H   H92       1.0  0.01370  0.14730  0.20210  1.0000
  H   H93       1.0  0.51370  0.35270  0.70210  1.0000
  H   H94       1.0  0.48630  0.35270  0.79790  1.0000
  H   H95       1.0  0.01370  0.85270  0.70210  1.0000
  H   H96       1.0  0.98630  0.85270  0.79790  1.0000
  C   C105      1.0  0.39490  0.68280  0.27940  1.0000
  C   C106      1.0  0.60510  0.68280  0.22060  1.0000
  C   C107      1.0  0.89490  0.18280  0.27940  1.0000
  C   C108      1.0  0.10510  0.18280  0.22060  1.0000
  C   C109      1.0  0.60510  0.31720  0.72060  1.0000
  C   C110      1.0  0.39490  0.31720  0.77940  1.0000
  C   C111      1.0  0.10510  0.81720  0.72060  1.0000
  C   C112      1.0  0.89490  0.81720  0.77940  1.0000
  C   C113      1.0  0.36340  0.63000  0.21630  1.0000
  C   C114      1.0  0.63660  0.63000  0.28370  1.0000
  C   C115      1.0  0.86340  0.13000  0.21630  1.0000
  C   C116      1.0  0.13660  0.13000  0.28370  1.0000
  C   C117      1.0  0.63660  0.37000  0.78370  1.0000
  C   C118      1.0  0.36340  0.37000  0.71630  1.0000
  C   C119      1.0  0.13660  0.87000  0.78370  1.0000
  C   C120      1.0  0.86340  0.87000  0.71630  1.0000
  C   C121      1.0  0.71539  0.42350  0.14320  1.0000
  C   C122      1.0  0.28461  0.42350  0.35680  1.0000
  C   C123      1.0  0.21539  0.92350  0.14320  1.0000
  C   C124      1.0  0.78461  0.92350  0.35680  1.0000
  C   C125      1.0  0.28461  0.57650  0.85680  1.0000
  C   C126      1.0  0.71539  0.57650  0.64320  1.0000
  C   C127      1.0  0.78461  0.07650  0.85680  1.0000
  C   C128      1.0  0.21539  0.07650  0.64320  1.0000
  C   C129      1.0  0.69766  0.49050  0.09310  1.0000
  C   C130      1.0  0.30234  0.49050  0.40690  1.0000
  C   C131      1.0  0.19766  0.99050  0.09310  1.0000
  C   C132      1.0  0.80234  0.99050  0.40690  1.0000
  C   C133      1.0  0.30234  0.50950  0.90690  1.0000
  C   C134      1.0  0.69766  0.50950  0.59310  1.0000
  C   C135      1.0  0.80234  0.00950  0.90690  1.0000
  C   C136      1.0  0.19766  0.00950  0.59310  1.0000
  H   H97       1.0  0.69200  0.55840  0.09970  1.0000
  H   H98       1.0  0.30800  0.55840  0.40030  1.0000
  H   H99       1.0  0.19200  0.05840  0.09970  1.0000
  H   H100      1.0  0.80800  0.05840  0.40030  1.0000
  H   H101      1.0  0.30800  0.44160  0.90030  1.0000
  H   H102      1.0  0.69200  0.44160  0.59970  1.0000
  H   H103      1.0  0.80800  0.94160  0.90030  1.0000
  H   H104      1.0  0.19200  0.94160  0.59970  1.0000
  C   C137      1.0  0.68820  0.45670  0.03280  1.0000
  C   C138      1.0  0.31180  0.45670  0.46720  1.0000
  C   C139      1.0  0.18820  0.95670  0.03280  1.0000
  C   C140      1.0  0.81180  0.95670  0.46720  1.0000
  C   C141      1.0  0.31180  0.54330  0.96720  1.0000
  C   C142      1.0  0.68820  0.54330  0.53280  1.0000
  C   C143      1.0  0.81180  0.04330  0.96720  1.0000
  C   C144      1.0  0.18820  0.04330  0.53280  1.0000
  C   C145      1.0  0.69870  0.35490  0.02740  1.0000
  C   C146      1.0  0.30130  0.35490  0.47260  1.0000
  C   C147      1.0  0.19870  0.85490  0.02740  1.0000
  C   C148      1.0  0.80130  0.85490  0.47260  1.0000
  C   C149      1.0  0.30130  0.64510  0.97260  1.0000
  C   C150      1.0  0.69870  0.64510  0.52740  1.0000
  C   C151      1.0  0.80130  0.14510  0.97260  1.0000
  C   C152      1.0  0.19870  0.14510  0.52740  1.0000
  H   H105      1.0  0.69440  0.32870  0.98860  1.0000
  H   H106      1.0  0.30560  0.32870  0.51140  1.0000
  H   H107      1.0  0.19440  0.82870  0.98860  1.0000
  H   H108      1.0  0.80560  0.82870  0.51140  1.0000
  H   H109      1.0  0.30560  0.67130  0.01140  1.0000
  H   H110      1.0  0.69440  0.67130  0.48860  1.0000
  H   H111      1.0  0.80560  0.17130  0.01140  1.0000
  H   H112      1.0  0.19440  0.17130  0.48860  1.0000
  C   C153      1.0  0.71520  0.29300  0.07850  1.0000
  C   C154      1.0  0.28480  0.29300  0.42150  1.0000
  C   C155      1.0  0.21520  0.79300  0.07850  1.0000
  C   C156      1.0  0.78480  0.79300  0.42150  1.0000
  C   C157      1.0  0.28480  0.70700  0.92150  1.0000
  C   C158      1.0  0.71520  0.70700  0.57850  1.0000
  C   C159      1.0  0.78480  0.20700  0.92150  1.0000
  C   C160      1.0  0.21520  0.20700  0.57850  1.0000
  H   H113      1.0  0.72130  0.22480  0.07310  1.0000
  H   H114      1.0  0.27870  0.22480  0.42690  1.0000
  H   H115      1.0  0.22130  0.72480  0.07310  1.0000
  H   H116      1.0  0.77870  0.72480  0.42690  1.0000
  H   H117      1.0  0.27870  0.77520  0.92690  1.0000
  H   H118      1.0  0.72130  0.77520  0.57310  1.0000
  H   H119      1.0  0.77870  0.27520  0.92690  1.0000
  H   H120      1.0  0.22130  0.27520  0.57310  1.0000
  C   C161      1.0  0.72940  0.45630  0.20940  1.0000
  C   C162      1.0  0.27060  0.45630  0.29060  1.0000
  C   C163      1.0  0.22940  0.95630  0.20940  1.0000
  C   C164      1.0  0.77060  0.95630  0.29060  1.0000
  C   C165      1.0  0.27060  0.54370  0.79060  1.0000
  C   C166      1.0  0.72940  0.54370  0.70940  1.0000
  C   C167      1.0  0.77060  0.04370  0.79060  1.0000
  C   C168      1.0  0.22940  0.04370  0.70940  1.0000
  C   C169      1.0  0.66760  0.52670  0.97700  1.0000
  C   C170      1.0  0.33240  0.52670  0.52300  1.0000
  C   C171      1.0  0.16760  0.02670  0.97700  1.0000
  C   C172      1.0  0.83240  0.02670  0.52300  1.0000
  C   C173      1.0  0.33240  0.47330  0.02300  1.0000
  C   C174      1.0  0.66760  0.47330  0.47700  1.0000
  C   C175      1.0  0.83240  0.97330  0.02300  1.0000
  C   C176      1.0  0.16760  0.97330  0.47700  1.0000
  H   H121      1.0  0.67400  0.49340  0.94270  1.0000
  H   H122      1.0  0.32600  0.49340  0.55730  1.0000
  H   H123      1.0  0.17400  0.99340  0.94270  1.0000
  H   H124      1.0  0.82600  0.99340  0.55730  1.0000
  H   H125      1.0  0.32600  0.50660  0.05730  1.0000
  H   H126      1.0  0.67400  0.50660  0.44270  1.0000
  H   H127      1.0  0.82600  0.00660  0.05730  1.0000
  H   H128      1.0  0.17400  0.00660  0.44270  1.0000
  H   H129      1.0  0.69470  0.58610  0.98850  1.0000
  H   H130      1.0  0.30530  0.58610  0.51150  1.0000
  H   H131      1.0  0.19470  0.08610  0.98850  1.0000
  H   H132      1.0  0.80530  0.08610  0.51150  1.0000
  H   H133      1.0  0.30530  0.41390  0.01150  1.0000
  H   H134      1.0  0.69470  0.41390  0.48850  1.0000
  H   H135      1.0  0.80530  0.91390  0.01150  1.0000
  H   H136      1.0  0.19470  0.91390  0.48850  1.0000
  C   C177      1.0  0.59790  0.55990  0.95370  1.0000
  C   C178      1.0  0.40210  0.55990  0.54630  1.0000
  C   C179      1.0  0.09790  0.05990  0.95370  1.0000
  C   C180      1.0  0.90210  0.05990  0.54630  1.0000
  C   C181      1.0  0.40210  0.44010  0.04630  1.0000
  C   C182      1.0  0.59790  0.44010  0.45370  1.0000
  C   C183      1.0  0.90210  0.94010  0.04630  1.0000
  C   C184      1.0  0.09790  0.94010  0.45370  1.0000
  H   H137      1.0  0.59200  0.59870  0.98650  1.0000
  H   H138      1.0  0.40800  0.59870  0.51350  1.0000
  H   H139      1.0  0.09200  0.09870  0.98650  1.0000
  H   H140      1.0  0.90800  0.09870  0.51350  1.0000
  H   H141      1.0  0.40800  0.40130  0.01350  1.0000
  H   H142      1.0  0.59200  0.40130  0.48650  1.0000
  H   H143      1.0  0.90800  0.90130  0.01350  1.0000
  H   H144      1.0  0.09200  0.90130  0.48650  1.0000
  H   H145      1.0  0.57070  0.50080  0.94500  1.0000
  H   H146      1.0  0.42930  0.50080  0.55500  1.0000
  H   H147      1.0  0.07070  0.00080  0.94500  1.0000
  H   H148      1.0  0.92930  0.00080  0.55500  1.0000
  H   H149      1.0  0.42930  0.49920  0.05500  1.0000
  H   H150      1.0  0.57070  0.49920  0.44500  1.0000
  H   H151      1.0  0.92930  0.99920  0.05500  1.0000
  H   H152      1.0  0.07070  0.99920  0.44500  1.0000
  C   C185      1.0  0.57820  0.62400  0.89370  1.0000
  C   C186      1.0  0.42180  0.62400  0.60630  1.0000
  C   C187      1.0  0.07820  0.12400  0.89370  1.0000
  C   C188      1.0  0.92180  0.12400  0.60630  1.0000
  C   C189      1.0  0.42180  0.37600  0.10630  1.0000
  C   C190      1.0  0.57820  0.37600  0.39370  1.0000
  C   C191      1.0  0.92180  0.87600  0.10630  1.0000
  C   C192      1.0  0.07820  0.87600  0.39370  1.0000
  H   H153      1.0  0.60440  0.68440  0.90350  1.0000
  H   H154      1.0  0.39560  0.68440  0.59650  1.0000
  H   H155      1.0  0.10440  0.18440  0.90350  1.0000
  H   H156      1.0  0.89560  0.18440  0.59650  1.0000
  H   H157      1.0  0.39560  0.31560  0.09650  1.0000
  H   H158      1.0  0.60440  0.31560  0.40350  1.0000
  H   H159      1.0  0.89560  0.81560  0.09650  1.0000
  H   H160      1.0  0.10440  0.81560  0.40350  1.0000
  H   H161      1.0  0.58720  0.58630  0.86230  1.0000
  H   H162      1.0  0.41280  0.58630  0.63770  1.0000
  H   H163      1.0  0.08720  0.08630  0.86230  1.0000
  H   H164      1.0  0.91280  0.08630  0.63770  1.0000
  H   H165      1.0  0.41280  0.41370  0.13770  1.0000
  H   H166      1.0  0.58720  0.41370  0.36230  1.0000
  H   H167      1.0  0.91280  0.91370  0.13770  1.0000
  H   H168      1.0  0.08720  0.91370  0.36230  1.0000
  C   C193      1.0  0.42390  0.76160  0.86550  1.0000
  C   C194      1.0  0.57610  0.76160  0.63450  1.0000
  C   C195      1.0  0.92390  0.26160  0.86550  1.0000
  C   C196      1.0  0.07610  0.26160  0.63450  1.0000
  C   C197      1.0  0.57610  0.23840  0.13450  1.0000
  C   C198      1.0  0.42390  0.23840  0.36550  1.0000
  C   C199      1.0  0.07610  0.73840  0.13450  1.0000
  C   C200      1.0  0.92390  0.73840  0.36550  1.0000
  C   C201      1.0  0.48720  0.73320  0.89220  1.0000
  C   C202      1.0  0.51280  0.73320  0.60780  1.0000
  C   C203      1.0  0.98720  0.23320  0.89220  1.0000
  C   C204      1.0  0.01280  0.23320  0.60780  1.0000
  C   C205      1.0  0.51280  0.26680  0.10780  1.0000
  C   C206      1.0  0.48720  0.26680  0.39220  1.0000
  C   C207      1.0  0.01280  0.76680  0.10780  1.0000
  C   C208      1.0  0.98720  0.76680  0.39220  1.0000
  H   H169      1.0  0.51550  0.76620  0.92810  1.0000
  H   H170      1.0  0.48450  0.76620  0.57190  1.0000
  H   H171      1.0  0.01550  0.26620  0.92810  1.0000
  H   H172      1.0  0.98450  0.26620  0.57190  1.0000
  H   H173      1.0  0.48450  0.23380  0.07190  1.0000
  H   H174      1.0  0.51550  0.23380  0.42810  1.0000
  H   H175      1.0  0.98450  0.73380  0.07190  1.0000
  H   H176      1.0  0.01550  0.73380  0.42810  1.0000
  C   C209      1.0  0.50920  0.65480  0.86540  1.0000
  C   C210      1.0  0.49080  0.65480  0.63460  1.0000
  C   C211      1.0  0.00920  0.15480  0.86540  1.0000
  C   C212      1.0  0.99080  0.15480  0.63460  1.0000
  C   C213      1.0  0.49080  0.34520  0.13460  1.0000
  C   C214      1.0  0.50920  0.34520  0.36540  1.0000
  C   C215      1.0  0.99080  0.84520  0.13460  1.0000
  C   C216      1.0  0.00920  0.84520  0.36540  1.0000
  C   C217      1.0  0.46510  0.60810  0.81360  1.0000
  C   C218      1.0  0.53490  0.60810  0.68640  1.0000
  C   C219      1.0  0.96510  0.10810  0.81360  1.0000
  C   C220      1.0  0.03490  0.10810  0.68640  1.0000
  C   C221      1.0  0.53490  0.39190  0.18640  1.0000
  C   C222      1.0  0.46510  0.39190  0.31360  1.0000
  C   C223      1.0  0.03490  0.89190  0.18640  1.0000
  C   C224      1.0  0.96510  0.89190  0.31360  1.0000
  H   H177      1.0  0.47700  0.55440  0.79480  1.0000
  H   H178      1.0  0.52300  0.55440  0.70520  1.0000
  H   H179      1.0  0.97700  0.05440  0.79480  1.0000
  H   H180      1.0  0.02300  0.05440  0.70520  1.0000
  H   H181      1.0  0.52300  0.44560  0.20520  1.0000
  H   H182      1.0  0.47700  0.44560  0.29480  1.0000
  H   H183      1.0  0.02300  0.94560  0.20520  1.0000
  H   H184      1.0  0.97700  0.94560  0.29480  1.0000
  C   C225      1.0  0.40290  0.64150  0.78940  1.0000
  C   C226      1.0  0.59710  0.64150  0.71060  1.0000
  C   C227      1.0  0.90290  0.14150  0.78940  1.0000
  C   C228      1.0  0.09710  0.14150  0.71060  1.0000
  C   C229      1.0  0.59710  0.35850  0.21060  1.0000
  C   C230      1.0  0.40290  0.35850  0.28940  1.0000
  C   C231      1.0  0.09710  0.85850  0.21060  1.0000
  C   C232      1.0  0.90290  0.85850  0.28940  1.0000
  H   H185      1.0  0.37380  0.60930  0.75350  1.0000
  H   H186      1.0  0.62620  0.60930  0.74650  1.0000
  H   H187      1.0  0.87380  0.10930  0.75350  1.0000
  H   H188      1.0  0.12620  0.10930  0.74650  1.0000
  H   H189      1.0  0.62620  0.39070  0.24650  1.0000
  H   H190      1.0  0.37380  0.39070  0.25350  1.0000
  H   H191      1.0  0.12620  0.89070  0.24650  1.0000
  H   H192      1.0  0.87380  0.89070  0.25350  1.0000
  C   C233      1.0  0.39780  0.84800  0.89140  1.0000
  C   C234      1.0  0.60220  0.84800  0.60860  1.0000
  C   C235      1.0  0.89780  0.34800  0.89140  1.0000
  C   C236      1.0  0.10220  0.34800  0.60860  1.0000
  C   C237      1.0  0.60220  0.15200  0.10860  1.0000
  C   C238      1.0  0.39780  0.15200  0.39140  1.0000
  C   C239      1.0  0.10220  0.65200  0.10860  1.0000
  C   C240      1.0  0.89780  0.65200  0.39140  1.0000
