data_image0
_chemical_formula_structural       Sm8O64N32C24H8C16H8C8H8C8H16C8H16C8H16C16H8C8H8C16H8C32H8C16H8C8H8C8H16C8H16C8H16C16H8C8H8C16H8C8
_chemical_formula_sum              "Sm8 O64 N32 C240 H192"
_cell_length_a       22.7409
_cell_length_b       13.2827
_cell_length_c       25.3097
_cell_angle_alpha    90
_cell_angle_beta     122.315
_cell_angle_gamma    90

_space_group_name_H-M_alt    "P 1"
_space_group_IT_number       1

loop_
  _space_group_symop_operation_xyz
  'x, y, z'

loop_
  _atom_site_type_symbol
  _atom_site_label
  _atom_site_symmetry_multiplicity
  _atom_site_fract_x
  _atom_site_fract_y
  _atom_site_fract_z
  _atom_site_occupancy
  Sm  Sm1       1.0  0.74861  0.45931  0.23233  1.0000
  Sm  Sm2       1.0  0.25139  0.45931  0.26767  1.0000
  Sm  Sm3       1.0  0.24861  0.95931  0.23233  1.0000
  Sm  Sm4       1.0  0.75139  0.95931  0.26767  1.0000
  Sm  Sm5       1.0  0.25139  0.54069  0.76767  1.0000
  Sm  Sm6       1.0  0.74861  0.54069  0.73233  1.0000
  Sm  Sm7       1.0  0.75139  0.04069  0.76767  1.0000
  Sm  Sm8       1.0  0.24861  0.04069  0.73233  1.0000
  O   O1        1.0  0.63133  0.39959  0.18658  1.0000
  O   O2        1.0  0.36867  0.39959  0.31342  1.0000
  O   O3        1.0  0.13133  0.89959  0.18658  1.0000
  O   O4        1.0  0.86867  0.89959  0.31342  1.0000
  O   O5        1.0  0.36867  0.60041  0.81342  1.0000
  O   O6        1.0  0.63133  0.60041  0.68658  1.0000
  O   O7        1.0  0.86867  0.10041  0.81342  1.0000
  O   O8        1.0  0.13133  0.10041  0.68658  1.0000
  O   O9        1.0  0.55328  0.32200  0.20006  1.0000
  O   O10       1.0  0.44672  0.32200  0.29994  1.0000
  O   O11       1.0  0.05328  0.82200  0.20006  1.0000
  O   O12       1.0  0.94672  0.82200  0.29994  1.0000
  O   O13       1.0  0.44672  0.67800  0.79994  1.0000
  O   O14       1.0  0.55328  0.67800  0.70006  1.0000
  O   O15       1.0  0.94672  0.17800  0.79994  1.0000
  O   O16       1.0  0.05328  0.17800  0.70006  1.0000
  O   O17       1.0  0.34723  0.00186  0.33150  1.0000
  O   O18       1.0  0.65277  0.00186  0.16850  1.0000
  O   O19       1.0  0.84723  0.50186  0.33150  1.0000
  O   O20       1.0  0.15277  0.50186  0.16850  1.0000
  O   O21       1.0  0.65277  0.99814  0.66850  1.0000
  O   O22       1.0  0.34723  0.99814  0.83150  1.0000
  O   O23       1.0  0.15277  0.49814  0.66850  1.0000
  O   O24       1.0  0.84723  0.49814  0.83150  1.0000
  O   O25       1.0  0.45280  0.98500  0.41518  1.0000
  O   O26       1.0  0.54720  0.98500  0.08482  1.0000
  O   O27       1.0  0.95280  0.48500  0.41518  1.0000
  O   O28       1.0  0.04720  0.48500  0.08482  1.0000
  O   O29       1.0  0.54720  0.01500  0.58482  1.0000
  O   O30       1.0  0.45280  0.01500  0.91518  1.0000
  O   O31       1.0  0.04720  0.51500  0.58482  1.0000
  O   O32       1.0  0.95280  0.51500  0.91518  1.0000
  O   O33       1.0  0.73144  0.37619  0.14176  1.0000
  O   O34       1.0  0.26856  0.37619  0.35824  1.0000
  O   O35       1.0  0.23144  0.87619  0.14176  1.0000
  O   O36       1.0  0.76856  0.87619  0.35824  1.0000
  O   O37       1.0  0.26856  0.62381  0.85824  1.0000
  O   O38       1.0  0.73144  0.62381  0.64176  1.0000
  O   O39       1.0  0.76856  0.12381  0.85824  1.0000
  O   O40       1.0  0.23144  0.12381  0.64176  1.0000
  O   O41       1.0  0.73986  0.36460  0.05847  1.0000
  O   O42       1.0  0.26014  0.36460  0.44153  1.0000
  O   O43       1.0  0.23986  0.86460  0.05847  1.0000
  O   O44       1.0  0.76014  0.86460  0.44153  1.0000
  O   O45       1.0  0.26014  0.63540  0.94153  1.0000
  O   O46       1.0  0.73986  0.63540  0.55847  1.0000
  O   O47       1.0  0.76014  0.13540  0.94153  1.0000
  O   O48       1.0  0.23986  0.13540  0.55847  1.0000
  O   O49       1.0  0.74616  0.85888  0.74976  1.0000
  O   O50       1.0  0.25384  0.85888  0.75024  1.0000
  O   O51       1.0  0.24616  0.35888  0.74976  1.0000
  O   O52       1.0  0.75384  0.35888  0.75024  1.0000
  O   O53       1.0  0.25384  0.14112  0.25024  1.0000
  O   O54       1.0  0.74616  0.14112  0.24976  1.0000
  O   O55       1.0  0.75384  0.64112  0.25024  1.0000
  O   O56       1.0  0.24616  0.64112  0.24976  1.0000
  O   O57       1.0  0.75430  0.70074  0.78171  1.0000
  O   O58       1.0  0.24570  0.70074  0.71829  1.0000
  O   O59       1.0  0.25430  0.20074  0.78171  1.0000
  O   O60       1.0  0.74570  0.20074  0.71829  1.0000
  O   O61       1.0  0.24570  0.29926  0.21829  1.0000
  O   O62       1.0  0.75430  0.29926  0.28171  1.0000
  O   O63       1.0  0.74570  0.79926  0.21829  1.0000
  O   O64       1.0  0.25430  0.79926  0.28171  1.0000
  N   N1        1.0  0.69364  0.48270  0.29953  1.0000
  N   N2        1.0  0.30636  0.48270  0.20047  1.0000
  N   N3        1.0  0.19364  0.98270  0.29953  1.0000
  N   N4        1.0  0.80636  0.98270  0.20047  1.0000
  N   N5        1.0  0.30636  0.51730  0.70047  1.0000
  N   N6        1.0  0.69364  0.51730  0.79953  1.0000
  N   N7        1.0  0.80636  0.01730  0.70047  1.0000
  N   N8        1.0  0.19364  0.01730  0.79953  1.0000
  N   N9        1.0  0.36695  0.85350  0.27206  1.0000
  N   N10       1.0  0.63305  0.85350  0.22794  1.0000
  N   N11       1.0  0.86695  0.35350  0.27206  1.0000
  N   N12       1.0  0.13305  0.35350  0.22794  1.0000
  N   N13       1.0  0.63305  0.14650  0.72794  1.0000
  N   N14       1.0  0.36695  0.14650  0.77206  1.0000
  N   N15       1.0  0.13305  0.64650  0.72794  1.0000
  N   N16       1.0  0.86695  0.64650  0.77206  1.0000
  N   N17       1.0  0.81738  0.53426  0.18570  1.0000
  N   N18       1.0  0.18262  0.53426  0.31430  1.0000
  N   N19       1.0  0.31738  0.03426  0.18570  1.0000
  N   N20       1.0  0.68262  0.03426  0.31430  1.0000
  N   N21       1.0  0.18262  0.46574  0.81430  1.0000
  N   N22       1.0  0.81738  0.46574  0.68570  1.0000
  N   N23       1.0  0.68262  0.96574  0.81430  1.0000
  N   N24       1.0  0.31738  0.96574  0.68570  1.0000
  N   N25       1.0  0.83690  0.92389  0.86349  1.0000
  N   N26       1.0  0.16310  0.92389  0.63651  1.0000
  N   N27       1.0  0.33690  0.42389  0.86349  1.0000
  N   N28       1.0  0.66310  0.42389  0.63651  1.0000
  N   N29       1.0  0.16310  0.07611  0.13651  1.0000
  N   N30       1.0  0.83690  0.07611  0.36349  1.0000
  N   N31       1.0  0.66310  0.57611  0.13651  1.0000
  N   N32       1.0  0.33690  0.57611  0.36349  1.0000
  C   C1        1.0  0.60274  0.38010  0.21715  1.0000
  C   C2        1.0  0.39726  0.38010  0.28285  1.0000
  C   C3        1.0  0.10274  0.88010  0.21715  1.0000
  C   C4        1.0  0.89726  0.88010  0.28285  1.0000
  C   C5        1.0  0.39726  0.61990  0.78285  1.0000
  C   C6        1.0  0.60274  0.61990  0.71715  1.0000
  C   C7        1.0  0.89726  0.11990  0.78285  1.0000
  C   C8        1.0  0.10274  0.11990  0.71715  1.0000
  C   C9        1.0  0.63367  0.43340  0.27937  1.0000
  C   C10       1.0  0.36633  0.43340  0.22063  1.0000
  C   C11       1.0  0.13367  0.93340  0.27937  1.0000
  C   C12       1.0  0.86633  0.93340  0.22063  1.0000
  C   C13       1.0  0.36633  0.56660  0.72063  1.0000
  C   C14       1.0  0.63367  0.56660  0.77937  1.0000
  C   C15       1.0  0.86633  0.06660  0.72063  1.0000
  C   C16       1.0  0.13367  0.06660  0.77937  1.0000
  C   C17       1.0  0.60216  0.43130  0.31340  1.0000
  C   C18       1.0  0.39784  0.43130  0.18660  1.0000
  C   C19       1.0  0.10216  0.93130  0.31340  1.0000
  C   C20       1.0  0.89784  0.93130  0.18660  1.0000
  C   C21       1.0  0.39784  0.56870  0.68660  1.0000
  C   C22       1.0  0.60216  0.56870  0.81340  1.0000
  C   C23       1.0  0.89784  0.06870  0.68660  1.0000
  C   C24       1.0  0.10216  0.06870  0.81340  1.0000
  H   H1        1.0  0.56120  0.39520  0.29850  1.0000
  H   H2        1.0  0.43880  0.39520  0.20150  1.0000
  H   H3        1.0  0.06120  0.89520  0.29850  1.0000
  H   H4        1.0  0.93880  0.89520  0.20150  1.0000
  H   H5        1.0  0.43880  0.60480  0.70150  1.0000
  H   H6        1.0  0.56120  0.60480  0.79850  1.0000
  H   H7        1.0  0.93880  0.10480  0.70150  1.0000
  H   H8        1.0  0.06120  0.10480  0.79850  1.0000
  C   C25       1.0  0.63160  0.48300  0.36974  1.0000
  C   C26       1.0  0.36840  0.48300  0.13026  1.0000
  C   C27       1.0  0.13160  0.98300  0.36974  1.0000
  C   C28       1.0  0.86840  0.98300  0.13026  1.0000
  C   C29       1.0  0.36840  0.51700  0.63026  1.0000
  C   C30       1.0  0.63160  0.51700  0.86974  1.0000
  C   C31       1.0  0.86840  0.01700  0.63026  1.0000
  C   C32       1.0  0.13160  0.01700  0.86974  1.0000
  C   C33       1.0  0.69360  0.53220  0.39038  1.0000
  C   C34       1.0  0.30640  0.53220  0.10962  1.0000
  C   C35       1.0  0.19360  0.03220  0.39038  1.0000
  C   C36       1.0  0.80640  0.03220  0.10962  1.0000
  C   C37       1.0  0.30640  0.46780  0.60962  1.0000
  C   C38       1.0  0.69360  0.46780  0.89038  1.0000
  C   C39       1.0  0.80640  0.96780  0.60962  1.0000
  C   C40       1.0  0.19360  0.96780  0.89038  1.0000
  H   H9        1.0  0.71570  0.56670  0.42820  1.0000
  H   H10       1.0  0.28430  0.56670  0.07180  1.0000
  H   H11       1.0  0.21570  0.06670  0.42820  1.0000
  H   H12       1.0  0.78430  0.06670  0.07180  1.0000
  H   H13       1.0  0.28430  0.43330  0.57180  1.0000
  H   H14       1.0  0.71570  0.43330  0.92820  1.0000
  H   H15       1.0  0.78430  0.93330  0.57180  1.0000
  H   H16       1.0  0.21570  0.93330  0.92820  1.0000
  C   C41       1.0  0.72290  0.53000  0.35439  1.0000
  C   C42       1.0  0.27710  0.53000  0.14561  1.0000
  C   C43       1.0  0.22290  0.03000  0.35439  1.0000
  C   C44       1.0  0.77710  0.03000  0.14561  1.0000
  C   C45       1.0  0.27710  0.47000  0.64561  1.0000
  C   C46       1.0  0.72290  0.47000  0.85439  1.0000
  C   C47       1.0  0.77710  0.97000  0.64561  1.0000
  C   C48       1.0  0.22290  0.97000  0.85439  1.0000
  H   H17       1.0  0.76500  0.56310  0.36920  1.0000
  H   H18       1.0  0.23500  0.56310  0.13080  1.0000
  H   H19       1.0  0.26500  0.06310  0.36920  1.0000
  H   H20       1.0  0.73500  0.06310  0.13080  1.0000
  H   H21       1.0  0.23500  0.43690  0.63080  1.0000
  H   H22       1.0  0.76500  0.43690  0.86920  1.0000
  H   H23       1.0  0.73500  0.93690  0.63080  1.0000
  H   H24       1.0  0.26500  0.93690  0.86920  1.0000
  C   C49       1.0  0.59580  0.48700  0.40560  1.0000
  C   C50       1.0  0.40420  0.48700  0.09440  1.0000
  C   C51       1.0  0.09580  0.98700  0.40560  1.0000
  C   C52       1.0  0.90420  0.98700  0.09440  1.0000
  C   C53       1.0  0.40420  0.51300  0.59440  1.0000
  C   C54       1.0  0.59580  0.51300  0.90560  1.0000
  C   C55       1.0  0.90420  0.01300  0.59440  1.0000
  C   C56       1.0  0.09580  0.01300  0.90560  1.0000
  H   H25       1.0  0.62820  0.51120  0.44760  1.0000
  H   H26       1.0  0.37180  0.51120  0.05240  1.0000
  H   H27       1.0  0.12820  0.01120  0.44760  1.0000
  H   H28       1.0  0.87180  0.01120  0.05240  1.0000
  H   H29       1.0  0.37180  0.48880  0.55240  1.0000
  H   H30       1.0  0.62820  0.48880  0.94760  1.0000
  H   H31       1.0  0.87180  0.98880  0.55240  1.0000
  H   H32       1.0  0.12820  0.98880  0.94760  1.0000
  H   H33       1.0  0.58130  0.41970  0.40870  1.0000
  H   H34       1.0  0.41870  0.41970  0.09130  1.0000
  H   H35       1.0  0.08130  0.91970  0.40870  1.0000
  H   H36       1.0  0.91870  0.91970  0.09130  1.0000
  H   H37       1.0  0.41870  0.58030  0.59130  1.0000
  H   H38       1.0  0.58130  0.58030  0.90870  1.0000
  H   H39       1.0  0.91870  0.08030  0.59130  1.0000
  H   H40       1.0  0.08130  0.08030  0.90870  1.0000
  C   C57       1.0  0.53160  0.55680  0.37320  1.0000
  C   C58       1.0  0.46840  0.55680  0.12680  1.0000
  C   C59       1.0  0.03160  0.05680  0.37320  1.0000
  C   C60       1.0  0.96840  0.05680  0.12680  1.0000
  C   C61       1.0  0.46840  0.44320  0.62680  1.0000
  C   C62       1.0  0.53160  0.44320  0.87320  1.0000
  C   C63       1.0  0.96840  0.94320  0.62680  1.0000
  C   C64       1.0  0.03160  0.94320  0.87320  1.0000
  H   H41       1.0  0.49930  0.53210  0.33130  1.0000
  H   H42       1.0  0.50070  0.53210  0.16870  1.0000
  H   H43       1.0  0.99930  0.03210  0.33130  1.0000
  H   H44       1.0  0.00070  0.03210  0.16870  1.0000
  H   H45       1.0  0.50070  0.46790  0.66870  1.0000
  H   H46       1.0  0.49930  0.46790  0.83130  1.0000
  H   H47       1.0  0.00070  0.96790  0.66870  1.0000
  H   H48       1.0  0.99930  0.96790  0.83130  1.0000
  H   H49       1.0  0.50840  0.55430  0.39600  1.0000
  H   H50       1.0  0.49160  0.55430  0.10400  1.0000
  H   H51       1.0  0.00840  0.05430  0.39600  1.0000
  H   H52       1.0  0.99160  0.05430  0.10400  1.0000
  H   H53       1.0  0.49160  0.44570  0.60400  1.0000
  H   H54       1.0  0.50840  0.44570  0.89600  1.0000
  H   H55       1.0  0.99160  0.94570  0.60400  1.0000
  H   H56       1.0  0.00840  0.94570  0.89600  1.0000
  C   C65       1.0  0.54970  0.66470  0.36940  1.0000
  C   C66       1.0  0.45030  0.66470  0.13060  1.0000
  C   C67       1.0  0.04970  0.16470  0.36940  1.0000
  C   C68       1.0  0.95030  0.16470  0.13060  1.0000
  C   C69       1.0  0.45030  0.33530  0.63060  1.0000
  C   C70       1.0  0.54970  0.33530  0.86940  1.0000
  C   C71       1.0  0.95030  0.83530  0.63060  1.0000
  C   C72       1.0  0.04970  0.83530  0.86940  1.0000
  H   H57       1.0  0.57480  0.66710  0.34820  1.0000
  H   H58       1.0  0.42520  0.66710  0.15180  1.0000
  H   H59       1.0  0.07480  0.16710  0.34820  1.0000
  H   H60       1.0  0.92520  0.16710  0.15180  1.0000
  H   H61       1.0  0.42520  0.33290  0.65180  1.0000
  H   H62       1.0  0.57480  0.33290  0.84820  1.0000
  H   H63       1.0  0.92520  0.83290  0.65180  1.0000
  H   H64       1.0  0.07480  0.83290  0.84820  1.0000
  H   H65       1.0  0.58010  0.69070  0.41140  1.0000
  H   H66       1.0  0.41990  0.69070  0.08860  1.0000
  H   H67       1.0  0.08010  0.19070  0.41140  1.0000
  H   H68       1.0  0.91990  0.19070  0.08860  1.0000
  H   H69       1.0  0.41990  0.30930  0.58860  1.0000
  H   H70       1.0  0.58010  0.30930  0.91140  1.0000
  H   H71       1.0  0.91990  0.80930  0.58860  1.0000
  H   H72       1.0  0.08010  0.80930  0.91140  1.0000
  C   C73       1.0  0.48579  0.73110  0.33478  1.0000
  C   C74       1.0  0.51421  0.73110  0.16522  1.0000
  C   C75       1.0  0.98579  0.23110  0.33478  1.0000
  C   C76       1.0  0.01421  0.23110  0.16522  1.0000
  C   C77       1.0  0.51421  0.26890  0.66522  1.0000
  C   C78       1.0  0.48579  0.26890  0.83478  1.0000
  C   C79       1.0  0.01421  0.76890  0.66522  1.0000
  C   C80       1.0  0.98579  0.76890  0.83478  1.0000
  C   C81       1.0  0.43230  0.71100  0.27402  1.0000
  C   C82       1.0  0.56770  0.71100  0.22598  1.0000
  C   C83       1.0  0.93230  0.21100  0.27402  1.0000
  C   C84       1.0  0.06770  0.21100  0.22598  1.0000
  C   C85       1.0  0.56770  0.28900  0.72598  1.0000
  C   C86       1.0  0.43230  0.28900  0.77402  1.0000
  C   C87       1.0  0.06770  0.78900  0.72598  1.0000
  C   C88       1.0  0.93230  0.78900  0.77402  1.0000
  H   H73       1.0  0.43510  0.65550  0.25310  1.0000
  H   H74       1.0  0.56490  0.65550  0.24690  1.0000
  H   H75       1.0  0.93510  0.15550  0.25310  1.0000
  H   H76       1.0  0.06490  0.15550  0.24690  1.0000
  H   H77       1.0  0.56490  0.34450  0.74690  1.0000
  H   H78       1.0  0.43510  0.34450  0.75310  1.0000
  H   H79       1.0  0.06490  0.84450  0.74690  1.0000
  H   H80       1.0  0.93510  0.84450  0.75310  1.0000
  C   C89       1.0  0.37470  0.77330  0.24432  1.0000
  C   C90       1.0  0.62530  0.77330  0.25568  1.0000
  C   C91       1.0  0.87470  0.27330  0.24432  1.0000
  C   C92       1.0  0.12530  0.27330  0.25568  1.0000
  C   C93       1.0  0.62530  0.22670  0.75568  1.0000
  C   C94       1.0  0.37470  0.22670  0.74432  1.0000
  C   C95       1.0  0.12530  0.72670  0.75568  1.0000
  C   C96       1.0  0.87470  0.72670  0.74432  1.0000
  H   H81       1.0  0.33980  0.75890  0.20330  1.0000
  H   H82       1.0  0.66020  0.75890  0.29670  1.0000
  H   H83       1.0  0.83980  0.25890  0.20330  1.0000
  H   H84       1.0  0.16020  0.25890  0.29670  1.0000
  H   H85       1.0  0.66020  0.24110  0.79670  1.0000
  H   H86       1.0  0.33980  0.24110  0.70330  1.0000
  H   H87       1.0  0.16020  0.74110  0.79670  1.0000
  H   H88       1.0  0.83980  0.74110  0.70330  1.0000
  C   C97       1.0  0.41803  0.87240  0.33084  1.0000
  C   C98       1.0  0.58197  0.87240  0.16916  1.0000
  C   C99       1.0  0.91803  0.37240  0.33084  1.0000
  C   C100      1.0  0.08197  0.37240  0.16916  1.0000
  C   C101      1.0  0.58197  0.12760  0.66916  1.0000
  C   C102      1.0  0.41803  0.12760  0.83084  1.0000
  C   C103      1.0  0.08197  0.62760  0.66916  1.0000
  C   C104      1.0  0.91803  0.62760  0.83084  1.0000
  C   C105      1.0  0.47773  0.81410  0.36305  1.0000
  C   C106      1.0  0.52227  0.81410  0.13695  1.0000
  C   C107      1.0  0.97773  0.31410  0.36305  1.0000
  C   C108      1.0  0.02227  0.31410  0.13695  1.0000
  C   C109      1.0  0.52227  0.18590  0.63695  1.0000
  C   C110      1.0  0.47773  0.18590  0.86305  1.0000
  C   C111      1.0  0.02227  0.68590  0.63695  1.0000
  C   C112      1.0  0.97773  0.68590  0.86305  1.0000
  H   H89       1.0  0.51240  0.83100  0.40380  1.0000
  H   H90       1.0  0.48760  0.83100  0.09620  1.0000
  H   H91       1.0  0.01240  0.33100  0.40380  1.0000
  H   H92       1.0  0.98760  0.33100  0.09620  1.0000
  H   H93       1.0  0.48760  0.16900  0.59620  1.0000
  H   H94       1.0  0.51240  0.16900  0.90380  1.0000
  H   H95       1.0  0.98760  0.66900  0.59620  1.0000
  H   H96       1.0  0.01240  0.66900  0.90380  1.0000
  C   C113      1.0  0.40598  0.95980  0.36192  1.0000
  C   C114      1.0  0.59402  0.95980  0.13808  1.0000
  C   C115      1.0  0.90598  0.45980  0.36192  1.0000
  C   C116      1.0  0.09402  0.45980  0.13808  1.0000
  C   C117      1.0  0.59402  0.04020  0.63808  1.0000
  C   C118      1.0  0.40598  0.04020  0.86192  1.0000
  C   C119      1.0  0.09402  0.54020  0.63808  1.0000
  C   C120      1.0  0.90598  0.54020  0.86192  1.0000
  C   C121      1.0  0.75545  0.40360  0.10876  1.0000
  C   C122      1.0  0.24455  0.40360  0.39124  1.0000
  C   C123      1.0  0.25545  0.90360  0.10876  1.0000
  C   C124      1.0  0.74455  0.90360  0.39124  1.0000
  C   C125      1.0  0.24455  0.59640  0.89124  1.0000
  C   C126      1.0  0.75545  0.59640  0.60876  1.0000
  C   C127      1.0  0.74455  0.09640  0.89124  1.0000
  C   C128      1.0  0.25545  0.09640  0.60876  1.0000
  C   C129      1.0  0.80729  0.48960  0.13356  1.0000
  C   C130      1.0  0.19271  0.48960  0.36644  1.0000
  C   C131      1.0  0.30729  0.98960  0.13356  1.0000
  C   C132      1.0  0.69271  0.98960  0.36644  1.0000
  C   C133      1.0  0.19271  0.51040  0.86644  1.0000
  C   C134      1.0  0.80729  0.51040  0.63356  1.0000
  C   C135      1.0  0.69271  0.01040  0.86644  1.0000
  C   C136      1.0  0.30729  0.01040  0.63356  1.0000
  C   C137      1.0  0.84320  0.51790  0.10621  1.0000
  C   C138      1.0  0.15680  0.51790  0.39379  1.0000
  C   C139      1.0  0.34320  0.01790  0.10621  1.0000
  C   C140      1.0  0.65680  0.01790  0.39379  1.0000
  C   C141      1.0  0.15680  0.48210  0.89379  1.0000
  C   C142      1.0  0.84320  0.48210  0.60621  1.0000
  C   C143      1.0  0.65680  0.98210  0.89379  1.0000
  C   C144      1.0  0.34320  0.98210  0.60621  1.0000
  H   H97       1.0  0.83510  0.48480  0.07050  1.0000
  H   H98       1.0  0.16490  0.48480  0.42950  1.0000
  H   H99       1.0  0.33510  0.98480  0.07050  1.0000
  H   H100      1.0  0.66490  0.98480  0.42950  1.0000
  H   H101      1.0  0.16490  0.51520  0.92950  1.0000
  H   H102      1.0  0.83510  0.51520  0.57050  1.0000
  H   H103      1.0  0.66490  0.01520  0.92950  1.0000
  H   H104      1.0  0.33510  0.01520  0.57050  1.0000
  C   C145      1.0  0.89152  0.59540  0.13157  1.0000
  C   C146      1.0  0.10848  0.59540  0.36843  1.0000
  C   C147      1.0  0.39152  0.09540  0.13157  1.0000
  C   C148      1.0  0.60848  0.09540  0.36843  1.0000
  C   C149      1.0  0.10848  0.40460  0.86843  1.0000
  C   C150      1.0  0.89152  0.40460  0.63157  1.0000
  C   C151      1.0  0.60848  0.90460  0.86843  1.0000
  C   C152      1.0  0.39152  0.90460  0.63157  1.0000
  C   C153      1.0  0.90109  0.64190  0.18450  1.0000
  C   C154      1.0  0.09891  0.64190  0.31550  1.0000
  C   C155      1.0  0.40109  0.14190  0.18450  1.0000
  C   C156      1.0  0.59891  0.14190  0.31550  1.0000
  C   C157      1.0  0.09891  0.35810  0.81550  1.0000
  C   C158      1.0  0.90109  0.35810  0.68450  1.0000
  C   C159      1.0  0.59891  0.85810  0.81550  1.0000
  C   C160      1.0  0.40109  0.85810  0.68450  1.0000
  H   H105      1.0  0.93260  0.69470  0.20300  1.0000
  H   H106      1.0  0.06740  0.69470  0.29700  1.0000
  H   H107      1.0  0.43260  0.19470  0.20300  1.0000
  H   H108      1.0  0.56740  0.19470  0.29700  1.0000
  H   H109      1.0  0.06740  0.30530  0.79700  1.0000
  H   H110      1.0  0.93260  0.30530  0.70300  1.0000
  H   H111      1.0  0.56740  0.80530  0.79700  1.0000
  H   H112      1.0  0.43260  0.80530  0.70300  1.0000
  C   C161      1.0  0.86368  0.60960  0.20970  1.0000
  C   C162      1.0  0.13632  0.60960  0.29030  1.0000
  C   C163      1.0  0.36368  0.10960  0.20970  1.0000
  C   C164      1.0  0.63632  0.10960  0.29030  1.0000
  C   C165      1.0  0.13632  0.39040  0.79030  1.0000
  C   C166      1.0  0.86368  0.39040  0.70970  1.0000
  C   C167      1.0  0.63632  0.89040  0.79030  1.0000
  C   C168      1.0  0.36368  0.89040  0.70970  1.0000
  H   H113      1.0  0.87090  0.64180  0.24530  1.0000
  H   H114      1.0  0.12910  0.64180  0.25470  1.0000
  H   H115      1.0  0.37090  0.14180  0.24530  1.0000
  H   H116      1.0  0.62910  0.14180  0.25470  1.0000
  H   H117      1.0  0.12910  0.35820  0.75470  1.0000
  H   H118      1.0  0.87090  0.35820  0.74530  1.0000
  H   H119      1.0  0.62910  0.85820  0.75470  1.0000
  H   H120      1.0  0.37090  0.85820  0.74530  1.0000
  C   C169      1.0  0.93312  0.62720  0.10385  1.0000
  C   C170      1.0  0.06688  0.62720  0.39615  1.0000
  C   C171      1.0  0.43312  0.12720  0.10385  1.0000
  C   C172      1.0  0.56688  0.12720  0.39615  1.0000
  C   C173      1.0  0.06688  0.37280  0.89615  1.0000
  C   C174      1.0  0.93312  0.37280  0.60385  1.0000
  C   C175      1.0  0.56688  0.87280  0.89615  1.0000
  C   C176      1.0  0.43312  0.87280  0.60385  1.0000
  H   H121      1.0  0.95090  0.56750  0.09490  1.0000
  H   H122      1.0  0.04910  0.56750  0.40510  1.0000
  H   H123      1.0  0.45090  0.06750  0.09490  1.0000
  H   H124      1.0  0.54910  0.06750  0.40510  1.0000
  H   H125      1.0  0.04910  0.43250  0.90510  1.0000
  H   H126      1.0  0.95090  0.43250  0.59490  1.0000
  H   H127      1.0  0.54910  0.93250  0.90510  1.0000
  H   H128      1.0  0.45090  0.93250  0.59490  1.0000
  H   H129      1.0  0.97280  0.66650  0.13470  1.0000
  H   H130      1.0  0.02720  0.66650  0.36530  1.0000
  H   H131      1.0  0.47280  0.16650  0.13470  1.0000
  H   H132      1.0  0.52720  0.16650  0.36530  1.0000
  H   H133      1.0  0.02720  0.33350  0.86530  1.0000
  H   H134      1.0  0.97280  0.33350  0.63470  1.0000
  H   H135      1.0  0.52720  0.83350  0.86530  1.0000
  H   H136      1.0  0.47280  0.83350  0.63470  1.0000
  C   C177      1.0  0.89214  0.68890  0.04433  1.0000
  C   C178      1.0  0.10786  0.68890  0.45567  1.0000
  C   C179      1.0  0.39214  0.18890  0.04433  1.0000
  C   C180      1.0  0.60786  0.18890  0.45567  1.0000
  C   C181      1.0  0.10786  0.31110  0.95567  1.0000
  C   C182      1.0  0.89214  0.31110  0.54433  1.0000
  C   C183      1.0  0.60786  0.81110  0.95567  1.0000
  C   C184      1.0  0.39214  0.81110  0.54433  1.0000
  H   H137      1.0  0.87220  0.74720  0.05220  1.0000
  H   H138      1.0  0.12780  0.74720  0.44780  1.0000
  H   H139      1.0  0.37220  0.24720  0.05220  1.0000
  H   H140      1.0  0.62780  0.24720  0.44780  1.0000
  H   H141      1.0  0.12780  0.25280  0.94780  1.0000
  H   H142      1.0  0.87220  0.25280  0.55220  1.0000
  H   H143      1.0  0.62780  0.75280  0.94780  1.0000
  H   H144      1.0  0.37220  0.75280  0.55220  1.0000
  H   H145      1.0  0.85430  0.64860  0.01210  1.0000
  H   H146      1.0  0.14570  0.64860  0.48790  1.0000
  H   H147      1.0  0.35430  0.14860  0.01210  1.0000
  H   H148      1.0  0.64570  0.14860  0.48790  1.0000
  H   H149      1.0  0.14570  0.35140  0.98790  1.0000
  H   H150      1.0  0.85430  0.35140  0.51210  1.0000
  H   H151      1.0  0.64570  0.85140  0.98790  1.0000
  H   H152      1.0  0.35430  0.85140  0.51210  1.0000
  C   C185      1.0  0.93918  0.72350  0.02155  1.0000
  C   C186      1.0  0.06082  0.72350  0.47845  1.0000
  C   C187      1.0  0.43918  0.22350  0.02155  1.0000
  C   C188      1.0  0.56082  0.22350  0.47845  1.0000
  C   C189      1.0  0.06082  0.27650  0.97845  1.0000
  C   C190      1.0  0.93918  0.27650  0.52155  1.0000
  C   C191      1.0  0.56082  0.77650  0.97845  1.0000
  C   C192      1.0  0.43918  0.77650  0.52155  1.0000
  H   H153      1.0  0.97920  0.75800  0.05550  1.0000
  H   H154      1.0  0.02080  0.75800  0.44450  1.0000
  H   H155      1.0  0.47920  0.25800  0.05550  1.0000
  H   H156      1.0  0.52080  0.25800  0.44450  1.0000
  H   H157      1.0  0.02080  0.24200  0.94450  1.0000
  H   H158      1.0  0.97920  0.24200  0.55550  1.0000
  H   H159      1.0  0.52080  0.74200  0.94450  1.0000
  H   H160      1.0  0.47920  0.74200  0.55550  1.0000
  H   H161      1.0  0.95600  0.66470  0.01090  1.0000
  H   H162      1.0  0.04400  0.66470  0.48910  1.0000
  H   H163      1.0  0.45600  0.16470  0.01090  1.0000
  H   H164      1.0  0.54400  0.16470  0.48910  1.0000
  H   H165      1.0  0.04400  0.33530  0.98910  1.0000
  H   H166      1.0  0.95600  0.33530  0.51090  1.0000
  H   H167      1.0  0.54400  0.83530  0.98910  1.0000
  H   H168      1.0  0.45600  0.83530  0.51090  1.0000
  C   C193      1.0  0.90381  0.79230  0.96586  1.0000
  C   C194      1.0  0.09619  0.79230  0.53414  1.0000
  C   C195      1.0  0.40381  0.29230  0.96586  1.0000
  C   C196      1.0  0.59619  0.29230  0.53414  1.0000
  C   C197      1.0  0.09619  0.20770  0.03414  1.0000
  C   C198      1.0  0.90381  0.20770  0.46586  1.0000
  C   C199      1.0  0.59619  0.70770  0.03414  1.0000
  C   C200      1.0  0.40381  0.70770  0.46586  1.0000
  C   C201      1.0  0.92091  0.89320  0.97108  1.0000
  C   C202      1.0  0.07909  0.89320  0.52892  1.0000
  C   C203      1.0  0.42091  0.39320  0.97108  1.0000
  C   C204      1.0  0.57909  0.39320  0.52892  1.0000
  C   C205      1.0  0.07909  0.10680  0.02892  1.0000
  C   C206      1.0  0.92091  0.10680  0.47108  1.0000
  C   C207      1.0  0.57909  0.60680  0.02892  1.0000
  C   C208      1.0  0.42091  0.60680  0.47108  1.0000
  H   H169      1.0  0.95610  0.91890  0.00930  1.0000
  H   H170      1.0  0.04390  0.91890  0.49070  1.0000
  H   H171      1.0  0.45610  0.41890  0.00930  1.0000
  H   H172      1.0  0.54390  0.41890  0.49070  1.0000
  H   H173      1.0  0.04390  0.08110  0.99070  1.0000
  H   H174      1.0  0.95610  0.08110  0.50930  1.0000
  H   H175      1.0  0.54390  0.58110  0.99070  1.0000
  H   H176      1.0  0.45610  0.58110  0.50930  1.0000
  C   C209      1.0  0.88621  0.95600  0.91998  1.0000
  C   C210      1.0  0.11379  0.95600  0.58002  1.0000
  C   C211      1.0  0.38621  0.45600  0.91998  1.0000
  C   C212      1.0  0.61379  0.45600  0.58002  1.0000
  C   C213      1.0  0.11379  0.04400  0.08002  1.0000
  C   C214      1.0  0.88621  0.04400  0.41998  1.0000
  C   C215      1.0  0.61379  0.54400  0.08002  1.0000
  C   C216      1.0  0.38621  0.54400  0.41998  1.0000
  H   H177      1.0  0.89780  0.02390  0.92520  1.0000
  H   H178      1.0  0.10220  0.02390  0.57480  1.0000
  H   H179      1.0  0.39780  0.52390  0.92520  1.0000
  H   H180      1.0  0.60220  0.52390  0.57480  1.0000
  H   H181      1.0  0.10220  0.97610  0.07480  1.0000
  H   H182      1.0  0.89780  0.97610  0.42520  1.0000
  H   H183      1.0  0.60220  0.47610  0.07480  1.0000
  H   H184      1.0  0.39780  0.47610  0.42520  1.0000
  C   C217      1.0  0.82168  0.82530  0.85690  1.0000
  C   C218      1.0  0.17832  0.82530  0.64310  1.0000
  C   C219      1.0  0.32168  0.32530  0.85690  1.0000
  C   C220      1.0  0.67832  0.32530  0.64310  1.0000
  C   C221      1.0  0.17832  0.17470  0.14310  1.0000
  C   C222      1.0  0.82168  0.17470  0.35690  1.0000
  C   C223      1.0  0.67832  0.67470  0.14310  1.0000
  C   C224      1.0  0.32168  0.67470  0.35690  1.0000
  C   C225      1.0  0.85317  0.75790  0.90670  1.0000
  C   C226      1.0  0.14683  0.75790  0.59330  1.0000
  C   C227      1.0  0.35317  0.25790  0.90670  1.0000
  C   C228      1.0  0.64683  0.25790  0.59330  1.0000
  C   C229      1.0  0.14683  0.24210  0.09330  1.0000
  C   C230      1.0  0.85317  0.24210  0.40670  1.0000
  C   C231      1.0  0.64683  0.74210  0.09330  1.0000
  C   C232      1.0  0.35317  0.74210  0.40670  1.0000
  H   H185      1.0  0.84040  0.69040  0.90040  1.0000
  H   H186      1.0  0.15960  0.69040  0.59960  1.0000
  H   H187      1.0  0.34040  0.19040  0.90040  1.0000
  H   H188      1.0  0.65960  0.19040  0.59960  1.0000
  H   H189      1.0  0.15960  0.30960  0.09960  1.0000
  H   H190      1.0  0.84040  0.30960  0.40040  1.0000
  H   H191      1.0  0.65960  0.80960  0.09960  1.0000
  H   H192      1.0  0.34040  0.80960  0.40040  1.0000
  C   C233      1.0  0.77000  0.79180  0.79107  1.0000
  C   C234      1.0  0.23000  0.79180  0.70893  1.0000
  C   C235      1.0  0.27000  0.29180  0.79107  1.0000
  C   C236      1.0  0.73000  0.29180  0.70893  1.0000
  C   C237      1.0  0.23000  0.20820  0.20893  1.0000
  C   C238      1.0  0.77000  0.20820  0.29107  1.0000
  C   C239      1.0  0.73000  0.70820  0.20893  1.0000
  C   C240      1.0  0.27000  0.70820  0.29107  1.0000
