data_image0
_chemical_formula_structural       Nd8O64N32C8H8C8H8C16H8C24H16C8H16C8H16C8H8C8H8C16H8C32H8C16H8C8H8C16H16C8H16C8H16C16H8C16H8C8H8C8
_chemical_formula_sum              "Nd8 O64 N32 C240 H192"
_cell_length_a       22.85
_cell_length_b       13.361
_cell_length_c       23.203
_cell_angle_alpha    90
_cell_angle_beta     113.611
_cell_angle_gamma    90

_space_group_name_H-M_alt    "P 1"
_space_group_IT_number       1

loop_
  _space_group_symop_operation_xyz
  'x, y, z'

loop_
  _atom_site_type_symbol
  _atom_site_label
  _atom_site_symmetry_multiplicity
  _atom_site_fract_x
  _atom_site_fract_y
  _atom_site_fract_z
  _atom_site_occupancy
  Nd  Nd1       1.0  0.73342  0.20715  0.23201  1.0000
  Nd  Nd2       1.0  0.26658  0.20715  0.26799  1.0000
  Nd  Nd3       1.0  0.23342  0.70715  0.23201  1.0000
  Nd  Nd4       1.0  0.76658  0.70715  0.26799  1.0000
  Nd  Nd5       1.0  0.26658  0.79285  0.76799  1.0000
  Nd  Nd6       1.0  0.73342  0.79285  0.73201  1.0000
  Nd  Nd7       1.0  0.76658  0.29285  0.76799  1.0000
  Nd  Nd8       1.0  0.23342  0.29285  0.73201  1.0000
  O   O1        1.0  0.73410  0.24950  0.33276  1.0000
  O   O2        1.0  0.26590  0.24950  0.16724  1.0000
  O   O3        1.0  0.23410  0.74950  0.33276  1.0000
  O   O4        1.0  0.76590  0.74950  0.16724  1.0000
  O   O5        1.0  0.26590  0.75050  0.66724  1.0000
  O   O6        1.0  0.73410  0.75050  0.83276  1.0000
  O   O7        1.0  0.76590  0.25050  0.66724  1.0000
  O   O8        1.0  0.23410  0.25050  0.83276  1.0000
  O   O9        1.0  0.71110  0.23240  0.41582  1.0000
  O   O10       1.0  0.28890  0.23240  0.08418  1.0000
  O   O11       1.0  0.21110  0.73240  0.41582  1.0000
  O   O12       1.0  0.78890  0.73240  0.08418  1.0000
  O   O13       1.0  0.28890  0.76760  0.58418  1.0000
  O   O14       1.0  0.71110  0.76760  0.91582  1.0000
  O   O15       1.0  0.78890  0.26760  0.58418  1.0000
  O   O16       1.0  0.21110  0.26760  0.91582  1.0000
  O   O17       1.0  0.30602  0.64735  0.18605  1.0000
  O   O18       1.0  0.69398  0.64735  0.31395  1.0000
  O   O19       1.0  0.80602  0.14735  0.18605  1.0000
  O   O20       1.0  0.19398  0.14735  0.31395  1.0000
  O   O21       1.0  0.69398  0.35265  0.81395  1.0000
  O   O22       1.0  0.30602  0.35265  0.68605  1.0000
  O   O23       1.0  0.19398  0.85265  0.81395  1.0000
  O   O24       1.0  0.80602  0.85265  0.68605  1.0000
  O   O25       1.0  0.39765  0.57210  0.19993  1.0000
  O   O26       1.0  0.60235  0.57210  0.30007  1.0000
  O   O27       1.0  0.89765  0.07210  0.19993  1.0000
  O   O28       1.0  0.10235  0.07210  0.30007  1.0000
  O   O29       1.0  0.60235  0.42790  0.80007  1.0000
  O   O30       1.0  0.39765  0.42790  0.69993  1.0000
  O   O31       1.0  0.10235  0.92790  0.80007  1.0000
  O   O32       1.0  0.89765  0.92790  0.69993  1.0000
  O   O33       1.0  0.74629  0.38946  0.25022  1.0000
  O   O34       1.0  0.25371  0.38946  0.24978  1.0000
  O   O35       1.0  0.24629  0.88946  0.25022  1.0000
  O   O36       1.0  0.75371  0.88946  0.24978  1.0000
  O   O37       1.0  0.25371  0.61054  0.74978  1.0000
  O   O38       1.0  0.74629  0.61054  0.75022  1.0000
  O   O39       1.0  0.75371  0.11054  0.74978  1.0000
  O   O40       1.0  0.24629  0.11054  0.75022  1.0000
  O   O41       1.0  0.72236  0.54657  0.21809  1.0000
  O   O42       1.0  0.27764  0.54657  0.28191  1.0000
  O   O43       1.0  0.22236  0.04657  0.21809  1.0000
  O   O44       1.0  0.77764  0.04657  0.28191  1.0000
  O   O45       1.0  0.27764  0.45343  0.78191  1.0000
  O   O46       1.0  0.72236  0.45343  0.71809  1.0000
  O   O47       1.0  0.77764  0.95343  0.78191  1.0000
  O   O48       1.0  0.22236  0.95343  0.71809  1.0000
  O   O49       1.0  0.43536  0.88530  0.94312  1.0000
  O   O50       1.0  0.56464  0.88530  0.55688  1.0000
  O   O51       1.0  0.93536  0.38530  0.94312  1.0000
  O   O52       1.0  0.06464  0.38530  0.55688  1.0000
  O   O53       1.0  0.56464  0.11470  0.05688  1.0000
  O   O54       1.0  0.43536  0.11470  0.44312  1.0000
  O   O55       1.0  0.06464  0.61470  0.05688  1.0000
  O   O56       1.0  0.93536  0.61470  0.44312  1.0000
  O   O57       1.0  0.34233  0.87349  0.86069  1.0000
  O   O58       1.0  0.65767  0.87349  0.63931  1.0000
  O   O59       1.0  0.84233  0.37349  0.86069  1.0000
  O   O60       1.0  0.15767  0.37349  0.63931  1.0000
  O   O61       1.0  0.65767  0.12651  0.13931  1.0000
  O   O62       1.0  0.34233  0.12651  0.36069  1.0000
  O   O63       1.0  0.15767  0.62651  0.13931  1.0000
  O   O64       1.0  0.84233  0.62651  0.36069  1.0000
  N   N1        1.0  0.65484  0.10180  0.27197  1.0000
  N   N2        1.0  0.34516  0.10180  0.22803  1.0000
  N   N3        1.0  0.15484  0.60180  0.27197  1.0000
  N   N4        1.0  0.84516  0.60180  0.22803  1.0000
  N   N5        1.0  0.34516  0.89820  0.72803  1.0000
  N   N6        1.0  0.65484  0.89820  0.77197  1.0000
  N   N7        1.0  0.84516  0.39820  0.72803  1.0000
  N   N8        1.0  0.15484  0.39820  0.77197  1.0000
  N   N9        1.0  0.35651  0.73090  0.29967  1.0000
  N   N10       1.0  0.64349  0.73090  0.20033  1.0000
  N   N11       1.0  0.85651  0.23090  0.29967  1.0000
  N   N12       1.0  0.14349  0.23090  0.20033  1.0000
  N   N13       1.0  0.64349  0.26910  0.70033  1.0000
  N   N14       1.0  0.35651  0.26910  0.79967  1.0000
  N   N15       1.0  0.14349  0.76910  0.70033  1.0000
  N   N16       1.0  0.85651  0.76910  0.79967  1.0000
  N   N17       1.0  0.72341  0.32560  0.13571  1.0000
  N   N18       1.0  0.27659  0.32560  0.36429  1.0000
  N   N19       1.0  0.22341  0.82560  0.13571  1.0000
  N   N20       1.0  0.77659  0.82560  0.36429  1.0000
  N   N21       1.0  0.27659  0.67440  0.86429  1.0000
  N   N22       1.0  0.72341  0.67440  0.63571  1.0000
  N   N23       1.0  0.77659  0.17440  0.86429  1.0000
  N   N24       1.0  0.22341  0.17440  0.63571  1.0000
  N   N25       1.0  0.38253  0.71580  0.81528  1.0000
  N   N26       1.0  0.61747  0.71580  0.68472  1.0000
  N   N27       1.0  0.88253  0.21580  0.81528  1.0000
  N   N28       1.0  0.11747  0.21580  0.68472  1.0000
  N   N29       1.0  0.61747  0.28420  0.18472  1.0000
  N   N30       1.0  0.38253  0.28420  0.31528  1.0000
  N   N31       1.0  0.11747  0.78420  0.18472  1.0000
  N   N32       1.0  0.88253  0.78420  0.31528  1.0000
  C   C1        1.0  0.62000  0.02210  0.24420  1.0000
  C   C2        1.0  0.38000  0.02210  0.25580  1.0000
  C   C3        1.0  0.12000  0.52210  0.24420  1.0000
  C   C4        1.0  0.88000  0.52210  0.25580  1.0000
  C   C5        1.0  0.38000  0.97790  0.75580  1.0000
  C   C6        1.0  0.62000  0.97790  0.74420  1.0000
  C   C7        1.0  0.88000  0.47790  0.75580  1.0000
  C   C8        1.0  0.12000  0.47790  0.74420  1.0000
  H   H1        1.0  0.61410  0.00740  0.20310  1.0000
  H   H2        1.0  0.38590  0.00740  0.29690  1.0000
  H   H3        1.0  0.11410  0.50740  0.20310  1.0000
  H   H4        1.0  0.88590  0.50740  0.29690  1.0000
  H   H5        1.0  0.38590  0.99260  0.79690  1.0000
  H   H6        1.0  0.61410  0.99260  0.70310  1.0000
  H   H7        1.0  0.88590  0.49260  0.79690  1.0000
  H   H8        1.0  0.11410  0.49260  0.70310  1.0000
  C   C9        1.0  0.59220  0.96020  0.27400  1.0000
  C   C10       1.0  0.40780  0.96020  0.22600  1.0000
  C   C11       1.0  0.09220  0.46020  0.27400  1.0000
  C   C12       1.0  0.90780  0.46020  0.22600  1.0000
  C   C13       1.0  0.40780  0.03980  0.72600  1.0000
  C   C14       1.0  0.59220  0.03980  0.77400  1.0000
  C   C15       1.0  0.90780  0.53980  0.72600  1.0000
  C   C16       1.0  0.09220  0.53980  0.77400  1.0000
  H   H9        1.0  0.56860  0.90490  0.25280  1.0000
  H   H10       1.0  0.43140  0.90490  0.24720  1.0000
  H   H11       1.0  0.06860  0.40490  0.25280  1.0000
  H   H12       1.0  0.93140  0.40490  0.24720  1.0000
  H   H13       1.0  0.43140  0.09510  0.74720  1.0000
  H   H14       1.0  0.56860  0.09510  0.75280  1.0000
  H   H15       1.0  0.93140  0.59510  0.74720  1.0000
  H   H16       1.0  0.06860  0.59510  0.75280  1.0000
  C   C17       1.0  0.59930  0.97990  0.33470  1.0000
  C   C18       1.0  0.40070  0.97990  0.16530  1.0000
  C   C19       1.0  0.09930  0.47990  0.33470  1.0000
  C   C20       1.0  0.90070  0.47990  0.16530  1.0000
  C   C21       1.0  0.40070  0.02010  0.66530  1.0000
  C   C22       1.0  0.59930  0.02010  0.83470  1.0000
  C   C23       1.0  0.90070  0.52010  0.66530  1.0000
  C   C24       1.0  0.09930  0.52010  0.83470  1.0000
  C   C25       1.0  0.63520  0.06270  0.36300  1.0000
  C   C26       1.0  0.36480  0.06270  0.13700  1.0000
  C   C27       1.0  0.13520  0.56270  0.36300  1.0000
  C   C28       1.0  0.86480  0.56270  0.13700  1.0000
  C   C29       1.0  0.36480  0.93730  0.63700  1.0000
  C   C30       1.0  0.63520  0.93730  0.86300  1.0000
  C   C31       1.0  0.86480  0.43730  0.63700  1.0000
  C   C32       1.0  0.13520  0.43730  0.86300  1.0000
  H   H17       1.0  0.64130  0.07950  0.40390  1.0000
  H   H18       1.0  0.35870  0.07950  0.09610  1.0000
  H   H19       1.0  0.14130  0.57950  0.40390  1.0000
  H   H20       1.0  0.85870  0.57950  0.09610  1.0000
  H   H21       1.0  0.35870  0.92050  0.59610  1.0000
  H   H22       1.0  0.64130  0.92050  0.90390  1.0000
  H   H23       1.0  0.85870  0.42050  0.59610  1.0000
  H   H24       1.0  0.14130  0.42050  0.90390  1.0000
  C   C33       1.0  0.66227  0.12100  0.33105  1.0000
  C   C34       1.0  0.33773  0.12100  0.16895  1.0000
  C   C35       1.0  0.16227  0.62100  0.33105  1.0000
  C   C36       1.0  0.83773  0.62100  0.16895  1.0000
  C   C37       1.0  0.33773  0.87900  0.66895  1.0000
  C   C38       1.0  0.66227  0.87900  0.83105  1.0000
  C   C39       1.0  0.83773  0.37900  0.66895  1.0000
  C   C40       1.0  0.16227  0.37900  0.83105  1.0000
  C   C41       1.0  0.70570  0.20730  0.36250  1.0000
  C   C42       1.0  0.29430  0.20730  0.13750  1.0000
  C   C43       1.0  0.20570  0.70730  0.36250  1.0000
  C   C44       1.0  0.79430  0.70730  0.13750  1.0000
  C   C45       1.0  0.29430  0.79270  0.63750  1.0000
  C   C46       1.0  0.70570  0.79270  0.86250  1.0000
  C   C47       1.0  0.79430  0.29270  0.63750  1.0000
  C   C48       1.0  0.20570  0.29270  0.86250  1.0000
  C   C49       1.0  0.57010  0.91290  0.36950  1.0000
  C   C50       1.0  0.42990  0.91290  0.13050  1.0000
  C   C51       1.0  0.07010  0.41290  0.36950  1.0000
  C   C52       1.0  0.92990  0.41290  0.13050  1.0000
  C   C53       1.0  0.42990  0.08710  0.63050  1.0000
  C   C54       1.0  0.57010  0.08710  0.86950  1.0000
  C   C55       1.0  0.92990  0.58710  0.63050  1.0000
  C   C56       1.0  0.07010  0.58710  0.86950  1.0000
  H   H25       1.0  0.58200  0.93840  0.41190  1.0000
  H   H26       1.0  0.41800  0.93840  0.08810  1.0000
  H   H27       1.0  0.08200  0.43840  0.41190  1.0000
  H   H28       1.0  0.91800  0.43840  0.08810  1.0000
  H   H29       1.0  0.41800  0.06160  0.58810  1.0000
  H   H30       1.0  0.58200  0.06160  0.91190  1.0000
  H   H31       1.0  0.91800  0.56160  0.58810  1.0000
  H   H32       1.0  0.08200  0.56160  0.91190  1.0000
  H   H33       1.0  0.52390  0.91580  0.34840  1.0000
  H   H34       1.0  0.47610  0.91580  0.15160  1.0000
  H   H35       1.0  0.02390  0.41580  0.34840  1.0000
  H   H36       1.0  0.97610  0.41580  0.15160  1.0000
  H   H37       1.0  0.47610  0.08420  0.65160  1.0000
  H   H38       1.0  0.52390  0.08420  0.84840  1.0000
  H   H39       1.0  0.97610  0.58420  0.65160  1.0000
  H   H40       1.0  0.02390  0.58420  0.84840  1.0000
  C   C57       1.0  0.59100  0.80700  0.37300  1.0000
  C   C58       1.0  0.40900  0.80700  0.12700  1.0000
  C   C59       1.0  0.09100  0.30700  0.37300  1.0000
  C   C60       1.0  0.90900  0.30700  0.12700  1.0000
  C   C61       1.0  0.40900  0.19300  0.62700  1.0000
  C   C62       1.0  0.59100  0.19300  0.87300  1.0000
  C   C63       1.0  0.90900  0.69300  0.62700  1.0000
  C   C64       1.0  0.09100  0.69300  0.87300  1.0000
  H   H41       1.0  0.63700  0.80400  0.39560  1.0000
  H   H42       1.0  0.36300  0.80400  0.10440  1.0000
  H   H43       1.0  0.13700  0.30400  0.39560  1.0000
  H   H44       1.0  0.86300  0.30400  0.10440  1.0000
  H   H45       1.0  0.36300  0.19600  0.60440  1.0000
  H   H46       1.0  0.63700  0.19600  0.89560  1.0000
  H   H47       1.0  0.86300  0.69600  0.60440  1.0000
  H   H48       1.0  0.13700  0.69600  0.89560  1.0000
  H   H49       1.0  0.58070  0.78260  0.33070  1.0000
  H   H50       1.0  0.41930  0.78260  0.16930  1.0000
  H   H51       1.0  0.08070  0.28260  0.33070  1.0000
  H   H52       1.0  0.91930  0.28260  0.16930  1.0000
  H   H53       1.0  0.41930  0.21740  0.66930  1.0000
  H   H54       1.0  0.58070  0.21740  0.83070  1.0000
  H   H55       1.0  0.91930  0.71740  0.66930  1.0000
  H   H56       1.0  0.08070  0.71740  0.83070  1.0000
  C   C65       1.0  0.55989  0.73770  0.40560  1.0000
  C   C66       1.0  0.44011  0.73770  0.09440  1.0000
  C   C67       1.0  0.05989  0.23770  0.40560  1.0000
  C   C68       1.0  0.94011  0.23770  0.09440  1.0000
  C   C69       1.0  0.44011  0.26230  0.59440  1.0000
  C   C70       1.0  0.55989  0.26230  0.90560  1.0000
  C   C71       1.0  0.94011  0.76230  0.59440  1.0000
  C   C72       1.0  0.05989  0.76230  0.90560  1.0000
  H   H57       1.0  0.57760  0.67100  0.40880  1.0000
  H   H58       1.0  0.42240  0.67100  0.09120  1.0000
  H   H59       1.0  0.07760  0.17100  0.40880  1.0000
  H   H60       1.0  0.92240  0.17100  0.09120  1.0000
  H   H61       1.0  0.42240  0.32900  0.59120  1.0000
  H   H62       1.0  0.57760  0.32900  0.90880  1.0000
  H   H63       1.0  0.92240  0.82900  0.59120  1.0000
  H   H64       1.0  0.07760  0.82900  0.90880  1.0000
  H   H65       1.0  0.56970  0.76200  0.44780  1.0000
  H   H66       1.0  0.43030  0.76200  0.05220  1.0000
  H   H67       1.0  0.06970  0.26200  0.44780  1.0000
  H   H68       1.0  0.93030  0.26200  0.05220  1.0000
  H   H69       1.0  0.43030  0.23800  0.55220  1.0000
  H   H70       1.0  0.56970  0.23800  0.94780  1.0000
  H   H71       1.0  0.93030  0.73800  0.55220  1.0000
  H   H72       1.0  0.06970  0.73800  0.94780  1.0000
  C   C73       1.0  0.38250  0.77820  0.35490  1.0000
  C   C74       1.0  0.61750  0.77820  0.14510  1.0000
  C   C75       1.0  0.88250  0.27820  0.35490  1.0000
  C   C76       1.0  0.11750  0.27820  0.14510  1.0000
  C   C77       1.0  0.61750  0.22180  0.64510  1.0000
  C   C78       1.0  0.38250  0.22180  0.85490  1.0000
  C   C79       1.0  0.11750  0.72180  0.64510  1.0000
  C   C80       1.0  0.88250  0.72180  0.85490  1.0000
  H   H73       1.0  0.35540  0.81060  0.36990  1.0000
  H   H74       1.0  0.64460  0.81060  0.13010  1.0000
  H   H75       1.0  0.85540  0.31060  0.36990  1.0000
  H   H76       1.0  0.14460  0.31060  0.13010  1.0000
  H   H77       1.0  0.64460  0.18940  0.63010  1.0000
  H   H78       1.0  0.35540  0.18940  0.86990  1.0000
  H   H79       1.0  0.14460  0.68940  0.63010  1.0000
  H   H80       1.0  0.85540  0.68940  0.86990  1.0000
  C   C81       1.0  0.44760  0.78150  0.39110  1.0000
  C   C82       1.0  0.55240  0.78150  0.10890  1.0000
  C   C83       1.0  0.94760  0.28150  0.39110  1.0000
  C   C84       1.0  0.05240  0.28150  0.10890  1.0000
  C   C85       1.0  0.55240  0.21850  0.60890  1.0000
  C   C86       1.0  0.44760  0.21850  0.89110  1.0000
  C   C87       1.0  0.05240  0.71850  0.60890  1.0000
  C   C88       1.0  0.94760  0.71850  0.89110  1.0000
  H   H81       1.0  0.46350  0.81590  0.42910  1.0000
  H   H82       1.0  0.53650  0.81590  0.07090  1.0000
  H   H83       1.0  0.96350  0.31590  0.42910  1.0000
  H   H84       1.0  0.03650  0.31590  0.07090  1.0000
  H   H85       1.0  0.53650  0.18410  0.57090  1.0000
  H   H86       1.0  0.46350  0.18410  0.92910  1.0000
  H   H87       1.0  0.03650  0.68410  0.57090  1.0000
  H   H88       1.0  0.96350  0.68410  0.92910  1.0000
  C   C89       1.0  0.48864  0.73300  0.36990  1.0000
  C   C90       1.0  0.51136  0.73300  0.13010  1.0000
  C   C91       1.0  0.98864  0.23300  0.36990  1.0000
  C   C92       1.0  0.01136  0.23300  0.13010  1.0000
  C   C93       1.0  0.51136  0.26700  0.63010  1.0000
  C   C94       1.0  0.48864  0.26700  0.86990  1.0000
  C   C95       1.0  0.01136  0.76700  0.63010  1.0000
  C   C96       1.0  0.98864  0.76700  0.86990  1.0000
  C   C97       1.0  0.46170  0.68130  0.31375  1.0000
  C   C98       1.0  0.53830  0.68130  0.18625  1.0000
  C   C99       1.0  0.96170  0.18130  0.31375  1.0000
  C   C100      1.0  0.03830  0.18130  0.18625  1.0000
  C   C101      1.0  0.53830  0.31870  0.68625  1.0000
  C   C102      1.0  0.46170  0.31870  0.81375  1.0000
  C   C103      1.0  0.03830  0.81870  0.68625  1.0000
  C   C104      1.0  0.96170  0.81870  0.81375  1.0000
  H   H89       1.0  0.48780  0.64560  0.29890  1.0000
  H   H90       1.0  0.51220  0.64560  0.20110  1.0000
  H   H91       1.0  0.98780  0.14560  0.29890  1.0000
  H   H92       1.0  0.01220  0.14560  0.20110  1.0000
  H   H93       1.0  0.51220  0.35440  0.70110  1.0000
  H   H94       1.0  0.48780  0.35440  0.79890  1.0000
  H   H95       1.0  0.01220  0.85440  0.70110  1.0000
  H   H96       1.0  0.98780  0.85440  0.79890  1.0000
  C   C105      1.0  0.39635  0.68240  0.27942  1.0000
  C   C106      1.0  0.60365  0.68240  0.22058  1.0000
  C   C107      1.0  0.89635  0.18240  0.27942  1.0000
  C   C108      1.0  0.10365  0.18240  0.22058  1.0000
  C   C109      1.0  0.60365  0.31760  0.72058  1.0000
  C   C110      1.0  0.39635  0.31760  0.77942  1.0000
  C   C111      1.0  0.10365  0.81760  0.72058  1.0000
  C   C112      1.0  0.89635  0.81760  0.77942  1.0000
  C   C113      1.0  0.36525  0.62850  0.21680  1.0000
  C   C114      1.0  0.63475  0.62850  0.28320  1.0000
  C   C115      1.0  0.86525  0.12850  0.21680  1.0000
  C   C116      1.0  0.13475  0.12850  0.28320  1.0000
  C   C117      1.0  0.63475  0.37150  0.78320  1.0000
  C   C118      1.0  0.36525  0.37150  0.71680  1.0000
  C   C119      1.0  0.13475  0.87150  0.78320  1.0000
  C   C120      1.0  0.86525  0.87150  0.71680  1.0000
  C   C121      1.0  0.71510  0.42380  0.14242  1.0000
  C   C122      1.0  0.28490  0.42380  0.35758  1.0000
  C   C123      1.0  0.21510  0.92380  0.14242  1.0000
  C   C124      1.0  0.78490  0.92380  0.35758  1.0000
  C   C125      1.0  0.28490  0.57620  0.85758  1.0000
  C   C126      1.0  0.71510  0.57620  0.64242  1.0000
  C   C127      1.0  0.78490  0.07620  0.85758  1.0000
  C   C128      1.0  0.21510  0.07620  0.64242  1.0000
  C   C129      1.0  0.69695  0.49020  0.09278  1.0000
  C   C130      1.0  0.30305  0.49020  0.40722  1.0000
  C   C131      1.0  0.19695  0.99020  0.09278  1.0000
  C   C132      1.0  0.80305  0.99020  0.40722  1.0000
  C   C133      1.0  0.30305  0.50980  0.90722  1.0000
  C   C134      1.0  0.69695  0.50980  0.59278  1.0000
  C   C135      1.0  0.80305  0.00980  0.90722  1.0000
  C   C136      1.0  0.19695  0.00980  0.59278  1.0000
  H   H97       1.0  0.69050  0.55730  0.09930  1.0000
  H   H98       1.0  0.30950  0.55730  0.40070  1.0000
  H   H99       1.0  0.19050  0.05730  0.09930  1.0000
  H   H100      1.0  0.80950  0.05730  0.40070  1.0000
  H   H101      1.0  0.30950  0.44270  0.90070  1.0000
  H   H102      1.0  0.69050  0.44270  0.59930  1.0000
  H   H103      1.0  0.80950  0.94270  0.90070  1.0000
  H   H104      1.0  0.19050  0.94270  0.59930  1.0000
  C   C137      1.0  0.68820  0.45710  0.03300  1.0000
  C   C138      1.0  0.31180  0.45710  0.46700  1.0000
  C   C139      1.0  0.18820  0.95710  0.03300  1.0000
  C   C140      1.0  0.81180  0.95710  0.46700  1.0000
  C   C141      1.0  0.31180  0.54290  0.96700  1.0000
  C   C142      1.0  0.68820  0.54290  0.53300  1.0000
  C   C143      1.0  0.81180  0.04290  0.96700  1.0000
  C   C144      1.0  0.18820  0.04290  0.53300  1.0000
  C   C145      1.0  0.69979  0.35720  0.02721  1.0000
  C   C146      1.0  0.30021  0.35720  0.47279  1.0000
  C   C147      1.0  0.19979  0.85720  0.02721  1.0000
  C   C148      1.0  0.80021  0.85720  0.47279  1.0000
  C   C149      1.0  0.30021  0.64280  0.97279  1.0000
  C   C150      1.0  0.69979  0.64280  0.52721  1.0000
  C   C151      1.0  0.80021  0.14280  0.97279  1.0000
  C   C152      1.0  0.19979  0.14280  0.52721  1.0000
  H   H105      1.0  0.69650  0.33210  0.98870  1.0000
  H   H106      1.0  0.30350  0.33210  0.51130  1.0000
  H   H107      1.0  0.19650  0.83210  0.98870  1.0000
  H   H108      1.0  0.80350  0.83210  0.51130  1.0000
  H   H109      1.0  0.30350  0.66790  0.01130  1.0000
  H   H110      1.0  0.69650  0.66790  0.48870  1.0000
  H   H111      1.0  0.80350  0.16790  0.01130  1.0000
  H   H112      1.0  0.19650  0.16790  0.48870  1.0000
  C   C153      1.0  0.71630  0.29410  0.07855  1.0000
  C   C154      1.0  0.28370  0.29410  0.42145  1.0000
  C   C155      1.0  0.21630  0.79410  0.07855  1.0000
  C   C156      1.0  0.78370  0.79410  0.42145  1.0000
  C   C157      1.0  0.28370  0.70590  0.92145  1.0000
  C   C158      1.0  0.71630  0.70590  0.57855  1.0000
  C   C159      1.0  0.78370  0.20590  0.92145  1.0000
  C   C160      1.0  0.21630  0.20590  0.57855  1.0000
  H   H113      1.0  0.72260  0.22660  0.07310  1.0000
  H   H114      1.0  0.27740  0.22660  0.42690  1.0000
  H   H115      1.0  0.22260  0.72660  0.07310  1.0000
  H   H116      1.0  0.77740  0.72660  0.42690  1.0000
  H   H117      1.0  0.27740  0.77340  0.92690  1.0000
  H   H118      1.0  0.72260  0.77340  0.57310  1.0000
  H   H119      1.0  0.77740  0.27340  0.92690  1.0000
  H   H120      1.0  0.22260  0.27340  0.57310  1.0000
  C   C161      1.0  0.72902  0.45540  0.20903  1.0000
  C   C162      1.0  0.27098  0.45540  0.29097  1.0000
  C   C163      1.0  0.22902  0.95540  0.20903  1.0000
  C   C164      1.0  0.77098  0.95540  0.29097  1.0000
  C   C165      1.0  0.27098  0.54460  0.79097  1.0000
  C   C166      1.0  0.72902  0.54460  0.70903  1.0000
  C   C167      1.0  0.77098  0.04460  0.79097  1.0000
  C   C168      1.0  0.22902  0.04460  0.70903  1.0000
  C   C169      1.0  0.66827  0.52590  0.97692  1.0000
  C   C170      1.0  0.33173  0.52590  0.52308  1.0000
  C   C171      1.0  0.16827  0.02590  0.97692  1.0000
  C   C172      1.0  0.83173  0.02590  0.52308  1.0000
  C   C173      1.0  0.33173  0.47410  0.02308  1.0000
  C   C174      1.0  0.66827  0.47410  0.47692  1.0000
  C   C175      1.0  0.83173  0.97410  0.02308  1.0000
  C   C176      1.0  0.16827  0.97410  0.47692  1.0000
  H   H121      1.0  0.67380  0.49150  0.94260  1.0000
  H   H122      1.0  0.32620  0.49150  0.55740  1.0000
  H   H123      1.0  0.17380  0.99150  0.94260  1.0000
  H   H124      1.0  0.82620  0.99150  0.55740  1.0000
  H   H125      1.0  0.32620  0.50850  0.05740  1.0000
  H   H126      1.0  0.67380  0.50850  0.44260  1.0000
  H   H127      1.0  0.82620  0.00850  0.05740  1.0000
  H   H128      1.0  0.17380  0.00850  0.44260  1.0000
  H   H129      1.0  0.69590  0.58410  0.98770  1.0000
  H   H130      1.0  0.30410  0.58410  0.51230  1.0000
  H   H131      1.0  0.19590  0.08410  0.98770  1.0000
  H   H132      1.0  0.80410  0.08410  0.51230  1.0000
  H   H133      1.0  0.30410  0.41590  0.01230  1.0000
  H   H134      1.0  0.69590  0.41590  0.48770  1.0000
  H   H135      1.0  0.80410  0.91590  0.01230  1.0000
  H   H136      1.0  0.19590  0.91590  0.48770  1.0000
  C   C177      1.0  0.59859  0.56050  0.95475  1.0000
  C   C178      1.0  0.40141  0.56050  0.54525  1.0000
  C   C179      1.0  0.09859  0.06050  0.95475  1.0000
  C   C180      1.0  0.90141  0.06050  0.54525  1.0000
  C   C181      1.0  0.40141  0.43950  0.04525  1.0000
  C   C182      1.0  0.59859  0.43950  0.45475  1.0000
  C   C183      1.0  0.90141  0.93950  0.04525  1.0000
  C   C184      1.0  0.09859  0.93950  0.45475  1.0000
  H   H137      1.0  0.57070  0.50260  0.94640  1.0000
  H   H138      1.0  0.42930  0.50260  0.55360  1.0000
  H   H139      1.0  0.07070  0.00260  0.94640  1.0000
  H   H140      1.0  0.92930  0.00260  0.55360  1.0000
  H   H141      1.0  0.42930  0.49740  0.05360  1.0000
  H   H142      1.0  0.57070  0.49740  0.44640  1.0000
  H   H143      1.0  0.92930  0.99740  0.05360  1.0000
  H   H144      1.0  0.07070  0.99740  0.44640  1.0000
  H   H145      1.0  0.59340  0.59980  0.98750  1.0000
  H   H146      1.0  0.40660  0.59980  0.51250  1.0000
  H   H147      1.0  0.09340  0.09980  0.98750  1.0000
  H   H148      1.0  0.90660  0.09980  0.51250  1.0000
  H   H149      1.0  0.40660  0.40020  0.01250  1.0000
  H   H150      1.0  0.59340  0.40020  0.48750  1.0000
  H   H151      1.0  0.90660  0.90020  0.01250  1.0000
  H   H152      1.0  0.09340  0.90020  0.48750  1.0000
  C   C185      1.0  0.58020  0.62340  0.89519  1.0000
  C   C186      1.0  0.41980  0.62340  0.60481  1.0000
  C   C187      1.0  0.08020  0.12340  0.89519  1.0000
  C   C188      1.0  0.91980  0.12340  0.60481  1.0000
  C   C189      1.0  0.41980  0.37660  0.10481  1.0000
  C   C190      1.0  0.58020  0.37660  0.39519  1.0000
  C   C191      1.0  0.91980  0.87660  0.10481  1.0000
  C   C192      1.0  0.08020  0.87660  0.39519  1.0000
  H   H153      1.0  0.60680  0.68280  0.90470  1.0000
  H   H154      1.0  0.39320  0.68280  0.59530  1.0000
  H   H155      1.0  0.10680  0.18280  0.90470  1.0000
  H   H156      1.0  0.89320  0.18280  0.59530  1.0000
  H   H157      1.0  0.39320  0.31720  0.09530  1.0000
  H   H158      1.0  0.60680  0.31720  0.40470  1.0000
  H   H159      1.0  0.89320  0.81720  0.09530  1.0000
  H   H160      1.0  0.10680  0.81720  0.40470  1.0000
  H   H161      1.0  0.58870  0.58520  0.86380  1.0000
  H   H162      1.0  0.41130  0.58520  0.63620  1.0000
  H   H163      1.0  0.08870  0.08520  0.86380  1.0000
  H   H164      1.0  0.91130  0.08520  0.63620  1.0000
  H   H165      1.0  0.41130  0.41480  0.13620  1.0000
  H   H166      1.0  0.58870  0.41480  0.36380  1.0000
  H   H167      1.0  0.91130  0.91480  0.13620  1.0000
  H   H168      1.0  0.08870  0.91480  0.36380  1.0000
  C   C193      1.0  0.42535  0.76050  0.86722  1.0000
  C   C194      1.0  0.57465  0.76050  0.63278  1.0000
  C   C195      1.0  0.92535  0.26050  0.86722  1.0000
  C   C196      1.0  0.07465  0.26050  0.63278  1.0000
  C   C197      1.0  0.57465  0.23950  0.13278  1.0000
  C   C198      1.0  0.42535  0.23950  0.36722  1.0000
  C   C199      1.0  0.07465  0.73950  0.13278  1.0000
  C   C200      1.0  0.92535  0.73950  0.36722  1.0000
  C   C201      1.0  0.48810  0.73210  0.89398  1.0000
  C   C202      1.0  0.51190  0.73210  0.60602  1.0000
  C   C203      1.0  0.98810  0.23210  0.89398  1.0000
  C   C204      1.0  0.01190  0.23210  0.60602  1.0000
  C   C205      1.0  0.51190  0.26790  0.10602  1.0000
  C   C206      1.0  0.48810  0.26790  0.39398  1.0000
  C   C207      1.0  0.01190  0.76790  0.10602  1.0000
  C   C208      1.0  0.98810  0.76790  0.39398  1.0000
  H   H169      1.0  0.51610  0.76460  0.92990  1.0000
  H   H170      1.0  0.48390  0.76460  0.57010  1.0000
  H   H171      1.0  0.01610  0.26460  0.92990  1.0000
  H   H172      1.0  0.98390  0.26460  0.57010  1.0000
  H   H173      1.0  0.48390  0.23540  0.07010  1.0000
  H   H174      1.0  0.51610  0.23540  0.42990  1.0000
  H   H175      1.0  0.98390  0.73540  0.07010  1.0000
  H   H176      1.0  0.01610  0.73540  0.42990  1.0000
  C   C209      1.0  0.51057  0.65490  0.86786  1.0000
  C   C210      1.0  0.48943  0.65490  0.63214  1.0000
  C   C211      1.0  0.01057  0.15490  0.86786  1.0000
  C   C212      1.0  0.98943  0.15490  0.63214  1.0000
  C   C213      1.0  0.48943  0.34510  0.13214  1.0000
  C   C214      1.0  0.51057  0.34510  0.36786  1.0000
  C   C215      1.0  0.98943  0.84510  0.13214  1.0000
  C   C216      1.0  0.01057  0.84510  0.36786  1.0000
  C   C217      1.0  0.46635  0.60870  0.81542  1.0000
  C   C218      1.0  0.53365  0.60870  0.68458  1.0000
  C   C219      1.0  0.96635  0.10870  0.81542  1.0000
  C   C220      1.0  0.03365  0.10870  0.68458  1.0000
  C   C221      1.0  0.53365  0.39130  0.18458  1.0000
  C   C222      1.0  0.46635  0.39130  0.31542  1.0000
  C   C223      1.0  0.03365  0.89130  0.18458  1.0000
  C   C224      1.0  0.96635  0.89130  0.31542  1.0000
  H   H177      1.0  0.47870  0.55590  0.79670  1.0000
  H   H178      1.0  0.52130  0.55590  0.70330  1.0000
  H   H179      1.0  0.97870  0.05590  0.79670  1.0000
  H   H180      1.0  0.02130  0.05590  0.70330  1.0000
  H   H181      1.0  0.52130  0.44410  0.20330  1.0000
  H   H182      1.0  0.47870  0.44410  0.29670  1.0000
  H   H183      1.0  0.02130  0.94410  0.20330  1.0000
  H   H184      1.0  0.97870  0.94410  0.29670  1.0000
  C   C225      1.0  0.40434  0.64060  0.79093  1.0000
  C   C226      1.0  0.59566  0.64060  0.70907  1.0000
  C   C227      1.0  0.90434  0.14060  0.79093  1.0000
  C   C228      1.0  0.09566  0.14060  0.70907  1.0000
  C   C229      1.0  0.59566  0.35940  0.20907  1.0000
  C   C230      1.0  0.40434  0.35940  0.29093  1.0000
  C   C231      1.0  0.09566  0.85940  0.20907  1.0000
  C   C232      1.0  0.90434  0.85940  0.29093  1.0000
  H   H185      1.0  0.37560  0.60830  0.75530  1.0000
  H   H186      1.0  0.62440  0.60830  0.74470  1.0000
  H   H187      1.0  0.87560  0.10830  0.75530  1.0000
  H   H188      1.0  0.12440  0.10830  0.74470  1.0000
  H   H189      1.0  0.62440  0.39170  0.24470  1.0000
  H   H190      1.0  0.37560  0.39170  0.25530  1.0000
  H   H191      1.0  0.12440  0.89170  0.24470  1.0000
  H   H192      1.0  0.87560  0.89170  0.25530  1.0000
  C   C233      1.0  0.39940  0.84630  0.89291  1.0000
  C   C234      1.0  0.60060  0.84630  0.60709  1.0000
  C   C235      1.0  0.89940  0.34630  0.89291  1.0000
  C   C236      1.0  0.10060  0.34630  0.60709  1.0000
  C   C237      1.0  0.60060  0.15370  0.10709  1.0000
  C   C238      1.0  0.39940  0.15370  0.39291  1.0000
  C   C239      1.0  0.10060  0.65370  0.10709  1.0000
  C   C240      1.0  0.89940  0.65370  0.39291  1.0000
