data_image0
_chemical_formula_structural       C6H6Fe9Cl12N30O12C12H6C12H6C6H6C12H12C12H18C6H18C6H12C6H6C12H6C12H6C6H6C24
_chemical_formula_sum              "C132 H108 Fe9 Cl12 N30 O12"
_cell_length_a       16.3482
_cell_length_b       16.3482
_cell_length_c       19.5011
_cell_angle_alpha    90
_cell_angle_beta     90
_cell_angle_gamma    120

_space_group_name_H-M_alt    "P 1"
_space_group_IT_number       1

loop_
  _space_group_symop_operation_xyz
  'x, y, z'

loop_
  _atom_site_type_symbol
  _atom_site_label
  _atom_site_symmetry_multiplicity
  _atom_site_fract_x
  _atom_site_fract_y
  _atom_site_fract_z
  _atom_site_occupancy
  C   C1        1.0  0.29980  0.70570  0.13770  1.0000
  C   C2        1.0  0.29430  0.59410  0.47103  1.0000
  C   C3        1.0  0.40590  0.70020  0.80437  1.0000
  C   C4        1.0  0.70570  0.29980  0.86230  1.0000
  C   C5        1.0  0.59410  0.29430  0.52897  1.0000
  C   C6        1.0  0.70020  0.40590  0.19563  1.0000
  H   H1        1.0  0.24190  0.66380  0.15980  1.0000
  H   H2        1.0  0.33620  0.57810  0.49313  1.0000
  H   H3        1.0  0.42190  0.75810  0.82647  1.0000
  H   H4        1.0  0.66380  0.24190  0.84020  1.0000
  H   H5        1.0  0.57810  0.33620  0.50687  1.0000
  H   H6        1.0  0.75810  0.42190  0.17353  1.0000
  Fe  Fe1       1.0  0.46699  0.46699  0.00000  1.0000
  Fe  Fe2       1.0  0.53301  0.00000  0.33333  1.0000
  Fe  Fe3       1.0  0.00000  0.53301  0.66667  1.0000
  Fe  Fe4       1.0  0.50048  0.78314  0.11677  1.0000
  Fe  Fe5       1.0  0.21686  0.71734  0.45010  1.0000
  Fe  Fe6       1.0  0.28266  0.49952  0.78344  1.0000
  Fe  Fe7       1.0  0.78314  0.50048  0.88323  1.0000
  Fe  Fe8       1.0  0.71734  0.21686  0.54990  1.0000
  Fe  Fe9       1.0  0.49952  0.28266  0.21656  1.0000
  Cl  Cl1       1.0  0.94523  0.11878  0.26345  1.0000
  Cl  Cl2       1.0  0.88122  0.82645  0.59678  1.0000
  Cl  Cl3       1.0  0.17355  0.05477  0.93012  1.0000
  Cl  Cl4       1.0  0.11878  0.94523  0.73655  1.0000
  Cl  Cl5       1.0  0.82645  0.88122  0.40322  1.0000
  Cl  Cl6       1.0  0.05477  0.17355  0.06988  1.0000
  Cl  Cl7       1.0  0.12710  0.88100  0.06778  1.0000
  Cl  Cl8       1.0  0.11900  0.24610  0.40111  1.0000
  Cl  Cl9       1.0  0.75390  0.87290  0.73445  1.0000
  Cl  Cl10      1.0  0.88100  0.12710  0.93222  1.0000
  Cl  Cl11      1.0  0.24610  0.11900  0.59889  1.0000
  Cl  Cl12      1.0  0.87290  0.75390  0.26555  1.0000
  N   N1        1.0  0.36860  0.68940  0.14618  1.0000
  N   N2        1.0  0.31060  0.67920  0.47951  1.0000
  N   N3        1.0  0.32080  0.63140  0.81285  1.0000
  N   N4        1.0  0.68940  0.36860  0.85382  1.0000
  N   N5        1.0  0.67920  0.31060  0.52049  1.0000
  N   N6        1.0  0.63140  0.32080  0.18715  1.0000
  N   N7        1.0  0.55750  0.74820  0.19539  1.0000
  N   N8        1.0  0.25180  0.80930  0.52872  1.0000
  N   N9        1.0  0.19070  0.44250  0.86206  1.0000
  N   N10       1.0  0.74820  0.55750  0.80461  1.0000
  N   N11       1.0  0.80930  0.25180  0.47128  1.0000
  N   N12       1.0  0.44250  0.19070  0.13794  1.0000
  N   N13       1.0  0.50510  0.66210  0.05384  1.0000
  N   N14       1.0  0.33790  0.84300  0.38717  1.0000
  N   N15       1.0  0.15700  0.49490  0.72051  1.0000
  N   N16       1.0  0.66210  0.50510  0.94616  1.0000
  N   N17       1.0  0.84300  0.33790  0.61283  1.0000
  N   N18       1.0  0.49490  0.15700  0.27949  1.0000
  N   N19       1.0  0.26480  0.40490  0.04550  1.0000
  N   N20       1.0  0.59510  0.85990  0.37883  1.0000
  N   N21       1.0  0.14010  0.73520  0.71217  1.0000
  N   N22       1.0  0.40490  0.26480  0.95450  1.0000
  N   N23       1.0  0.85990  0.59510  0.62117  1.0000
  N   N24       1.0  0.73520  0.14010  0.28783  1.0000
  N   N25       1.0  0.50730  0.40170  0.13924  1.0000
  N   N26       1.0  0.59830  0.10560  0.47257  1.0000
  N   N27       1.0  0.89440  0.49270  0.80591  1.0000
  N   N28       1.0  0.40170  0.50730  0.86076  1.0000
  N   N29       1.0  0.10560  0.59830  0.52743  1.0000
  N   N30       1.0  0.49270  0.89440  0.19409  1.0000
  O   O1        1.0  0.44920  0.82090  0.04437  1.0000
  O   O2        1.0  0.17910  0.62830  0.37770  1.0000
  O   O3        1.0  0.37170  0.55080  0.71104  1.0000
  O   O4        1.0  0.82090  0.44920  0.95563  1.0000
  O   O5        1.0  0.62830  0.17910  0.62230  1.0000
  O   O6        1.0  0.55080  0.37170  0.28896  1.0000
  O   O7        1.0  0.62040  0.87930  0.09031  1.0000
  O   O8        1.0  0.12070  0.74110  0.42364  1.0000
  O   O9        1.0  0.25890  0.37960  0.75698  1.0000
  O   O10       1.0  0.87930  0.62040  0.90969  1.0000
  O   O11       1.0  0.74110  0.12070  0.57636  1.0000
  O   O12       1.0  0.37960  0.25890  0.24302  1.0000
  C   C7        1.0  0.30210  0.78030  0.09836  1.0000
  C   C8        1.0  0.21970  0.52180  0.43169  1.0000
  C   C9        1.0  0.47820  0.69790  0.76503  1.0000
  C   C10       1.0  0.78030  0.30210  0.90164  1.0000
  C   C11       1.0  0.52180  0.21970  0.56831  1.0000
  C   C12       1.0  0.69790  0.47820  0.23497  1.0000
  C   C13       1.0  0.22560  0.79520  0.10170  1.0000
  C   C14       1.0  0.20480  0.43040  0.43503  1.0000
  C   C15       1.0  0.56960  0.77440  0.76837  1.0000
  C   C16       1.0  0.79520  0.22560  0.89830  1.0000
  C   C17       1.0  0.43040  0.20480  0.56497  1.0000
  C   C18       1.0  0.77440  0.56960  0.23163  1.0000
  H   H7        1.0  0.17560  0.75970  0.13300  1.0000
  H   H8        1.0  0.24030  0.41590  0.46633  1.0000
  H   H9        1.0  0.58410  0.82440  0.79967  1.0000
  H   H10       1.0  0.75970  0.17560  0.86700  1.0000
  H   H11       1.0  0.41590  0.24030  0.53367  1.0000
  H   H12       1.0  0.82440  0.58410  0.20033  1.0000
  C   C19       1.0  0.22200  0.86080  0.06020  1.0000
  C   C20       1.0  0.13920  0.36120  0.39353  1.0000
  C   C21       1.0  0.63880  0.77800  0.72687  1.0000
  C   C22       1.0  0.86080  0.22200  0.93980  1.0000
  C   C23       1.0  0.36120  0.13920  0.60647  1.0000
  C   C24       1.0  0.77800  0.63880  0.27313  1.0000
  C   C25       1.0  0.29190  0.91180  0.01380  1.0000
  C   C26       1.0  0.08820  0.38010  0.34713  1.0000
  C   C27       1.0  0.61990  0.70810  0.68047  1.0000
  C   C28       1.0  0.91180  0.29190  0.98620  1.0000
  C   C29       1.0  0.38010  0.08820  0.65287  1.0000
  C   C30       1.0  0.70810  0.61990  0.31953  1.0000
  H   H13       1.0  0.28840  0.95720  0.98530  1.0000
  H   H14       1.0  0.04280  0.33120  0.31863  1.0000
  H   H15       1.0  0.66880  0.71160  0.65197  1.0000
  H   H16       1.0  0.95720  0.28840  0.01470  1.0000
  H   H17       1.0  0.33120  0.04280  0.68137  1.0000
  H   H18       1.0  0.71160  0.66880  0.34803  1.0000
  C   C31       1.0  0.36680  0.89690  0.00870  1.0000
  C   C32       1.0  0.10310  0.46990  0.34203  1.0000
  C   C33       1.0  0.53010  0.63320  0.67537  1.0000
  C   C34       1.0  0.89690  0.36680  0.99130  1.0000
  C   C35       1.0  0.46990  0.10310  0.65797  1.0000
  C   C36       1.0  0.63320  0.53010  0.32463  1.0000
  H   H19       1.0  0.41440  0.93120  0.97550  1.0000
  H   H20       1.0  0.06880  0.48320  0.30883  1.0000
  H   H21       1.0  0.51680  0.58560  0.64217  1.0000
  H   H22       1.0  0.93120  0.41440  0.02450  1.0000
  H   H23       1.0  0.48320  0.06880  0.69117  1.0000
  H   H24       1.0  0.58560  0.51680  0.35783  1.0000
  C   C37       1.0  0.37550  0.83280  0.05101  1.0000
  C   C38       1.0  0.16720  0.54270  0.38434  1.0000
  C   C39       1.0  0.45730  0.62450  0.71768  1.0000
  C   C40       1.0  0.83280  0.37550  0.94899  1.0000
  C   C41       1.0  0.54270  0.16720  0.61566  1.0000
  C   C42       1.0  0.62450  0.45730  0.28232  1.0000
  C   C43       1.0  0.34740  0.59970  0.17950  1.0000
  C   C44       1.0  0.40030  0.74770  0.51283  1.0000
  C   C45       1.0  0.25230  0.65260  0.84617  1.0000
  C   C46       1.0  0.59970  0.34740  0.82050  1.0000
  C   C47       1.0  0.74770  0.40030  0.48717  1.0000
  C   C48       1.0  0.65260  0.25230  0.15383  1.0000
  H   H25       1.0  0.35840  0.56050  0.14620  1.0000
  H   H26       1.0  0.43950  0.79790  0.47953  1.0000
  H   H27       1.0  0.20210  0.64160  0.81287  1.0000
  H   H28       1.0  0.56050  0.35840  0.85380  1.0000
  H   H29       1.0  0.79790  0.43950  0.52047  1.0000
  H   H30       1.0  0.64160  0.20210  0.18713  1.0000
  H   H31       1.0  0.27980  0.56480  0.19240  1.0000
  H   H32       1.0  0.43520  0.71500  0.52573  1.0000
  H   H33       1.0  0.28500  0.72020  0.85907  1.0000
  H   H34       1.0  0.56480  0.27980  0.80760  1.0000
  H   H35       1.0  0.71500  0.43520  0.47427  1.0000
  H   H36       1.0  0.72020  0.28500  0.14093  1.0000
  C   C49       1.0  0.40690  0.61370  0.24330  1.0000
  C   C50       1.0  0.38630  0.79320  0.57663  1.0000
  C   C51       1.0  0.20680  0.59310  0.90997  1.0000
  C   C52       1.0  0.61370  0.40690  0.75670  1.0000
  C   C53       1.0  0.79320  0.38630  0.42337  1.0000
  C   C54       1.0  0.59310  0.20680  0.09003  1.0000
  C   C55       1.0  0.39550  0.67750  0.29410  1.0000
  C   C56       1.0  0.32250  0.71800  0.62743  1.0000
  C   C57       1.0  0.28200  0.60450  0.96077  1.0000
  C   C58       1.0  0.67750  0.39550  0.70590  1.0000
  C   C59       1.0  0.71800  0.32250  0.37257  1.0000
  C   C60       1.0  0.60450  0.28200  0.03923  1.0000
  H   H37       1.0  0.32830  0.65140  0.30460  1.0000
  H   H38       1.0  0.34860  0.67690  0.63793  1.0000
  H   H39       1.0  0.32310  0.67170  0.97127  1.0000
  H   H40       1.0  0.65140  0.32830  0.69540  1.0000
  H   H41       1.0  0.67690  0.34860  0.36207  1.0000
  H   H42       1.0  0.67170  0.32310  0.02873  1.0000
  H   H43       1.0  0.42080  0.74060  0.27420  1.0000
  H   H44       1.0  0.25940  0.68020  0.60753  1.0000
  H   H45       1.0  0.31980  0.57920  0.94087  1.0000
  H   H46       1.0  0.74060  0.42080  0.72580  1.0000
  H   H47       1.0  0.68020  0.25940  0.39247  1.0000
  H   H48       1.0  0.57920  0.31980  0.05913  1.0000
  H   H49       1.0  0.42980  0.68170  0.33630  1.0000
  H   H50       1.0  0.31830  0.74810  0.66963  1.0000
  H   H51       1.0  0.25190  0.57020  0.00297  1.0000
  H   H52       1.0  0.68170  0.42980  0.66370  1.0000
  H   H53       1.0  0.74810  0.31830  0.33037  1.0000
  H   H54       1.0  0.57020  0.25190  0.99703  1.0000
  C   C61       1.0  0.37170  0.51640  0.27390  1.0000
  C   C62       1.0  0.48360  0.85530  0.60723  1.0000
  C   C63       1.0  0.14470  0.62830  0.94057  1.0000
  C   C64       1.0  0.51640  0.37170  0.72610  1.0000
  C   C65       1.0  0.85530  0.48360  0.39277  1.0000
  C   C66       1.0  0.62830  0.14470  0.05943  1.0000
  H   H55       1.0  0.41290  0.52090  0.31190  1.0000
  H   H56       1.0  0.47910  0.89200  0.64523  1.0000
  H   H57       1.0  0.10800  0.58710  0.97857  1.0000
  H   H58       1.0  0.52090  0.41290  0.68810  1.0000
  H   H59       1.0  0.89200  0.47910  0.35477  1.0000
  H   H60       1.0  0.58710  0.10800  0.02143  1.0000
  H   H61       1.0  0.37220  0.47390  0.23870  1.0000
  H   H62       1.0  0.52610  0.89830  0.57203  1.0000
  H   H63       1.0  0.10170  0.62780  0.90537  1.0000
  H   H64       1.0  0.47390  0.37220  0.76130  1.0000
  H   H65       1.0  0.89830  0.52610  0.42797  1.0000
  H   H66       1.0  0.62780  0.10170  0.09463  1.0000
  H   H67       1.0  0.30710  0.49160  0.29100  1.0000
  H   H68       1.0  0.50840  0.81550  0.62433  1.0000
  H   H69       1.0  0.18450  0.69290  0.95767  1.0000
  H   H70       1.0  0.49160  0.30710  0.70900  1.0000
  H   H71       1.0  0.81550  0.50840  0.37567  1.0000
  H   H72       1.0  0.69290  0.18450  0.04233  1.0000
  C   C67       1.0  0.51020  0.65270  0.22470  1.0000
  C   C68       1.0  0.34730  0.85750  0.55803  1.0000
  C   C69       1.0  0.14250  0.48980  0.89137  1.0000
  C   C70       1.0  0.65270  0.51020  0.77530  1.0000
  C   C71       1.0  0.85750  0.34730  0.44197  1.0000
  C   C72       1.0  0.48980  0.14250  0.10863  1.0000
  H   H73       1.0  0.54480  0.65300  0.26640  1.0000
  H   H74       1.0  0.34700  0.89180  0.59973  1.0000
  H   H75       1.0  0.10820  0.45520  0.93307  1.0000
  H   H76       1.0  0.65300  0.54480  0.73360  1.0000
  H   H77       1.0  0.89180  0.34700  0.40027  1.0000
  H   H78       1.0  0.45520  0.10820  0.06693  1.0000
  H   H79       1.0  0.51440  0.60930  0.19130  1.0000
  H   H80       1.0  0.39070  0.90510  0.52463  1.0000
  H   H81       1.0  0.09490  0.48560  0.85797  1.0000
  H   H82       1.0  0.60930  0.51440  0.80870  1.0000
  H   H83       1.0  0.90510  0.39070  0.47537  1.0000
  H   H84       1.0  0.48560  0.09490  0.14203  1.0000
  C   C73       1.0  0.63780  0.81000  0.22167  1.0000
  C   C74       1.0  0.19000  0.82780  0.55500  1.0000
  C   C75       1.0  0.17220  0.36220  0.88834  1.0000
  C   C76       1.0  0.81000  0.63780  0.77833  1.0000
  C   C77       1.0  0.82780  0.19000  0.44500  1.0000
  C   C78       1.0  0.36220  0.17220  0.11166  1.0000
  H   H85       1.0  0.65660  0.79130  0.26200  1.0000
  H   H86       1.0  0.20870  0.86530  0.59533  1.0000
  H   H87       1.0  0.13470  0.34340  0.92867  1.0000
  H   H88       1.0  0.79130  0.65660  0.73800  1.0000
  H   H89       1.0  0.86530  0.20870  0.40467  1.0000
  H   H90       1.0  0.34340  0.13470  0.07133  1.0000
  C   C79       1.0  0.70020  0.90160  0.19720  1.0000
  C   C80       1.0  0.09840  0.79860  0.53053  1.0000
  C   C81       1.0  0.20140  0.29980  0.86387  1.0000
  C   C82       1.0  0.90160  0.70020  0.80280  1.0000
  C   C83       1.0  0.79860  0.09840  0.46947  1.0000
  C   C84       1.0  0.29980  0.20140  0.13613  1.0000
  C   C85       1.0  0.78180  0.96130  0.23730  1.0000
  C   C86       1.0  0.03870  0.82050  0.57063  1.0000
  C   C87       1.0  0.17950  0.21820  0.90397  1.0000
  C   C88       1.0  0.96130  0.78180  0.76270  1.0000
  C   C89       1.0  0.82050  0.03870  0.42937  1.0000
  C   C90       1.0  0.21820  0.17950  0.09603  1.0000
  H   H91       1.0  0.79060  0.93990  0.28050  1.0000
  H   H92       1.0  0.06010  0.85070  0.61383  1.0000
  H   H93       1.0  0.14930  0.20940  0.94717  1.0000
  H   H94       1.0  0.93990  0.79060  0.71950  1.0000
  H   H95       1.0  0.85070  0.06010  0.38617  1.0000
  H   H96       1.0  0.20940  0.14930  0.05283  1.0000
  C   C91       1.0  0.84620  0.04710  0.21450  1.0000
  C   C92       1.0  0.95290  0.79910  0.54783  1.0000
  C   C93       1.0  0.20090  0.15380  0.88117  1.0000
  C   C94       1.0  0.04710  0.84620  0.78550  1.0000
  C   C95       1.0  0.79910  0.95290  0.45217  1.0000
  C   C96       1.0  0.15380  0.20090  0.11883  1.0000
  C   C97       1.0  0.83380  0.08090  0.15240  1.0000
  C   C98       1.0  0.91910  0.75290  0.48573  1.0000
  C   C99       1.0  0.24710  0.16620  0.81907  1.0000
  C   C100      1.0  0.08090  0.83380  0.84760  1.0000
  C   C101      1.0  0.75290  0.91910  0.51427  1.0000
  C   C102      1.0  0.16620  0.24710  0.18093  1.0000
  H   H97       1.0  0.87880  0.14280  0.13770  1.0000
  H   H98       1.0  0.85720  0.73600  0.47103  1.0000
  H   H99       1.0  0.26400  0.12120  0.80437  1.0000
  H   H100      1.0  0.14280  0.87880  0.86230  1.0000
  H   H101      1.0  0.73600  0.85720  0.52897  1.0000
  H   H102      1.0  0.12120  0.26400  0.19563  1.0000
  C   C103      1.0  0.75650  0.02500  0.11200  1.0000
  C   C104      1.0  0.97500  0.73150  0.44533  1.0000
  C   C105      1.0  0.26850  0.24350  0.77867  1.0000
  C   C106      1.0  0.02500  0.75650  0.88800  1.0000
  C   C107      1.0  0.73150  0.97500  0.55467  1.0000
  C   C108      1.0  0.24350  0.26850  0.22133  1.0000
  H   H103      1.0  0.74880  0.04850  0.06930  1.0000
  H   H104      1.0  0.95150  0.70030  0.40263  1.0000
  H   H105      1.0  0.29970  0.25120  0.73597  1.0000
  H   H106      1.0  0.04850  0.74880  0.93070  1.0000
  H   H107      1.0  0.70030  0.95150  0.59737  1.0000
  H   H108      1.0  0.25120  0.29970  0.26403  1.0000
  C   C109      1.0  0.68920  0.93390  0.13317  1.0000
  C   C110      1.0  0.06610  0.75530  0.46650  1.0000
  C   C111      1.0  0.24470  0.31080  0.79984  1.0000
  C   C112      1.0  0.93390  0.68920  0.86683  1.0000
  C   C113      1.0  0.75530  0.06610  0.53350  1.0000
  C   C114      1.0  0.31080  0.24470  0.20016  1.0000
  C   C115      1.0  0.49630  0.59280  0.03392  1.0000
  C   C116      1.0  0.40720  0.90350  0.36725  1.0000
  C   C117      1.0  0.09650  0.50370  0.70059  1.0000
  C   C118      1.0  0.59280  0.49630  0.96608  1.0000
  C   C119      1.0  0.90350  0.40720  0.63275  1.0000
  C   C120      1.0  0.50370  0.09650  0.29941  1.0000
  C   C121      1.0  0.49510  0.43080  0.08901  1.0000
  C   C122      1.0  0.56920  0.06430  0.42234  1.0000
  C   C123      1.0  0.93570  0.50490  0.75568  1.0000
  C   C124      1.0  0.43080  0.49510  0.91099  1.0000
  C   C125      1.0  0.06430  0.56920  0.57766  1.0000
  C   C126      1.0  0.50490  0.93570  0.24432  1.0000
  C   C127      1.0  0.33940  0.42650  0.03000  1.0000
  C   C128      1.0  0.57350  0.91290  0.36333  1.0000
  C   C129      1.0  0.08710  0.66060  0.69667  1.0000
  C   C130      1.0  0.42650  0.33940  0.97000  1.0000
  C   C131      1.0  0.91290  0.57350  0.63667  1.0000
  C   C132      1.0  0.66060  0.08710  0.30333  1.0000
