data_image0
_chemical_formula_structural       U4O32C6H2C2H2C2H2C2H2C2H4C4H4C8H2C2H2C2H2C2H2C2H4C4H4C8H2C2H2C2H2C2H2C2H4C4H4C2
_chemical_formula_sum              "U4 O32 C60 H48"
_cell_length_a       7.6382
_cell_length_b       13.6662
_cell_length_c       19.0828
_cell_angle_alpha    97.104
_cell_angle_beta     90.847
_cell_angle_gamma    102.018

_space_group_name_H-M_alt    "P 1"
_space_group_IT_number       1

loop_
  _space_group_symop_operation_xyz
  'x, y, z'

loop_
  _atom_site_type_symbol
  _atom_site_label
  _atom_site_symmetry_multiplicity
  _atom_site_fract_x
  _atom_site_fract_y
  _atom_site_fract_z
  _atom_site_occupancy
  U   U1        1.0  0.88959  0.22732  0.13263  1.0000
  U   U2        1.0  0.11041  0.77268  0.86737  1.0000
  U   U3        1.0  0.69800  0.66890  0.39028  1.0000
  U   U4        1.0  0.30200  0.33110  0.60972  1.0000
  O   O1        1.0  0.99410  0.18400  0.05648  1.0000
  O   O2        1.0  0.00590  0.81600  0.94352  1.0000
  O   O3        1.0  0.78470  0.26860  0.20915  1.0000
  O   O4        1.0  0.21530  0.73140  0.79085  1.0000
  O   O5        1.0  0.61800  0.76329  0.35287  1.0000
  O   O6        1.0  0.38200  0.23671  0.64713  1.0000
  O   O7        1.0  0.77490  0.57200  0.42701  1.0000
  O   O8        1.0  0.22510  0.42800  0.57299  1.0000
  O   O9        1.0  0.07040  0.40183  0.15046  1.0000
  O   O10       1.0  0.92960  0.59817  0.84954  1.0000
  O   O11       1.0  0.83660  0.36890  0.07756  1.0000
  O   O12       1.0  0.16340  0.63110  0.92244  1.0000
  O   O13       1.0  0.78010  0.60780  0.26886  1.0000
  O   O14       1.0  0.21990  0.39220  0.73114  1.0000
  O   O15       1.0  0.51610  0.53850  0.30197  1.0000
  O   O16       1.0  0.48390  0.46150  0.69803  1.0000
  O   O17       1.0  0.58960  0.18520  0.06973  1.0000
  O   O18       1.0  0.41040  0.81480  0.93027  1.0000
  O   O19       1.0  0.66530  0.06855  0.12559  1.0000
  O   O20       1.0  0.33470  0.93145  0.87441  1.0000
  O   O21       1.0  0.99830  0.09470  0.18883  1.0000
  O   O22       1.0  0.00170  0.90530  0.81117  1.0000
  O   O23       1.0  0.17170  0.24560  0.20298  1.0000
  O   O24       1.0  0.82830  0.75440  0.79702  1.0000
  O   O25       1.0  0.38960  0.60555  0.42693  1.0000
  O   O26       1.0  0.61040  0.39445  0.57307  1.0000
  O   O27       1.0  0.56350  0.72200  0.50019  1.0000
  O   O28       1.0  0.43650  0.27800  0.49981  1.0000
  O   O29       1.0  0.91290  0.79370  0.46894  1.0000
  O   O30       1.0  0.08710  0.20630  0.53106  1.0000
  O   O31       1.0  0.00730  0.74210  0.36589  1.0000
  O   O32       1.0  0.99270  0.25790  0.63411  1.0000
  C   C1        1.0  0.78830  0.56970  0.09224  1.0000
  C   C2        1.0  0.21170  0.43030  0.90776  1.0000
  C   C3        1.0  0.62320  0.54070  0.12252  1.0000
  C   C4        1.0  0.37680  0.45930  0.87748  1.0000
  C   C5        1.0  0.47260  0.56760  0.09464  1.0000
  C   C6        1.0  0.52740  0.43240  0.90536  1.0000
  H   H1        1.0  0.35960  0.54770  0.11470  1.0000
  H   H2        1.0  0.64040  0.45230  0.88530  1.0000
  C   C7        1.0  0.48590  0.62340  0.03782  1.0000
  C   C8        1.0  0.51410  0.37660  0.96218  1.0000
  H   H3        1.0  0.38300  0.64260  0.01990  1.0000
  H   H4        1.0  0.61700  0.35740  0.98010  1.0000
  C   C9        1.0  0.64790  0.65040  0.00785  1.0000
  C   C10       1.0  0.35210  0.34960  0.99215  1.0000
  H   H5        1.0  0.65690  0.68710  0.96840  1.0000
  H   H6        1.0  0.34310  0.31290  0.03160  1.0000
  C   C11       1.0  0.79780  0.62440  0.03479  1.0000
  C   C12       1.0  0.20220  0.37560  0.96521  1.0000
  H   H7        1.0  0.90970  0.64410  0.01390  1.0000
  H   H8        1.0  0.09030  0.35590  0.98610  1.0000
  C   C13       1.0  0.95790  0.54330  0.11956  1.0000
  C   C14       1.0  0.04210  0.45670  0.88044  1.0000
  H   H9        1.0  0.05940  0.57520  0.09270  1.0000
  H   H10       1.0  0.94060  0.42480  0.90730  1.0000
  H   H11       1.0  0.98060  0.57330  0.16960  1.0000
  H   H12       1.0  0.01940  0.42670  0.83040  1.0000
  C   C15       1.0  0.95540  0.43290  0.11478  1.0000
  C   C16       1.0  0.04460  0.56710  0.88522  1.0000
  C   C17       1.0  0.59470  0.48010  0.18469  1.0000
  C   C18       1.0  0.40530  0.51990  0.81531  1.0000
  H   H13       1.0  0.46890  0.44220  0.18260  1.0000
  H   H14       1.0  0.53110  0.55780  0.81740  1.0000
  H   H15       1.0  0.67300  0.43060  0.18070  1.0000
  H   H16       1.0  0.32700  0.56940  0.81930  1.0000
  C   C19       1.0  0.63460  0.54590  0.25536  1.0000
  C   C20       1.0  0.36540  0.45410  0.74464  1.0000
  C   C21       1.0  0.31760  0.96580  0.13832  1.0000
  C   C22       1.0  0.68240  0.03420  0.86168  1.0000
  C   C23       1.0  0.28940  0.99930  0.20954  1.0000
  C   C24       1.0  0.71060  0.00070  0.79046  1.0000
  C   C25       1.0  0.25570  0.92880  0.25697  1.0000
  C   C26       1.0  0.74430  0.07120  0.74303  1.0000
  H   H17       1.0  0.23170  0.95020  0.30450  1.0000
  H   H18       1.0  0.76830  0.04980  0.69550  1.0000
  C   C27       1.0  0.25630  0.82770  0.23647  1.0000
  C   C28       1.0  0.74370  0.17230  0.76353  1.0000
  H   H19       1.0  0.23500  0.78090  0.26980  1.0000
  H   H20       1.0  0.76500  0.21910  0.73020  1.0000
  C   C29       1.0  0.28820  0.79570  0.16685  1.0000
  C   C30       1.0  0.71180  0.20430  0.83315  1.0000
  H   H21       1.0  0.28970  0.72680  0.15250  1.0000
  H   H22       1.0  0.71030  0.27320  0.84750  1.0000
  C   C31       1.0  0.31800  0.86460  0.11822  1.0000
  C   C32       1.0  0.68200  0.13540  0.88178  1.0000
  H   H23       1.0  0.33890  0.84210  0.07060  1.0000
  H   H24       1.0  0.66110  0.15790  0.92940  1.0000
  C   C33       1.0  0.35800  0.03990  0.08494  1.0000
  C   C34       1.0  0.64200  0.96010  0.91506  1.0000
  H   H25       1.0  0.27280  0.08570  0.09000  1.0000
  H   H26       1.0  0.72720  0.91430  0.91000  1.0000
  H   H27       1.0  0.33910  0.00230  0.03670  1.0000
  H   H28       1.0  0.66090  0.99770  0.96330  1.0000
  C   C35       1.0  0.54680  0.10220  0.09336  1.0000
  C   C36       1.0  0.45320  0.89780  0.90664  1.0000
  C   C37       1.0  0.29960  0.10980  0.23529  1.0000
  C   C38       1.0  0.70040  0.89020  0.76471  1.0000
  H   H29       1.0  0.30090  0.11890  0.28760  1.0000
  H   H30       1.0  0.69910  0.88110  0.71240  1.0000
  H   H31       1.0  0.41430  0.14930  0.22100  1.0000
  H   H32       1.0  0.58570  0.85070  0.77900  1.0000
  C   C39       1.0  0.14850  0.15250  0.20810  1.0000
  C   C40       1.0  0.85150  0.84750  0.79190  1.0000
  C   C41       1.0  0.26930  0.78720  0.56466  1.0000
  C   C42       1.0  0.73070  0.21280  0.43534  1.0000
  C   C43       1.0  0.26120  0.86930  0.52760  1.0000
  C   C44       1.0  0.73880  0.13070  0.47240  1.0000
  C   C45       1.0  0.28040  0.96430  0.56418  1.0000
  C   C46       1.0  0.71960  0.03570  0.43582  1.0000
  H   H33       1.0  0.27540  0.01940  0.53880  1.0000
  H   H34       1.0  0.72460  0.98060  0.46120  1.0000
  C   C47       1.0  0.30710  0.98230  0.63777  1.0000
  C   C48       1.0  0.69290  0.01770  0.36223  1.0000
  H   H35       1.0  0.32130  0.04860  0.66210  1.0000
  H   H36       1.0  0.67870  0.95140  0.33790  1.0000
  C   C49       1.0  0.31230  0.90180  0.67424  1.0000
  C   C50       1.0  0.68770  0.09820  0.32576  1.0000
  H   H37       1.0  0.32740  0.91230  0.72430  1.0000
  H   H38       1.0  0.67260  0.08770  0.27570  1.0000
  C   C51       1.0  0.29550  0.80570  0.63791  1.0000
  C   C52       1.0  0.70450  0.19430  0.36209  1.0000
  H   H39       1.0  0.30200  0.75120  0.66360  1.0000
  H   H40       1.0  0.69800  0.24880  0.33640  1.0000
  C   C53       1.0  0.25250  0.68160  0.52686  1.0000
  C   C54       1.0  0.74750  0.31840  0.47314  1.0000
  H   H41       1.0  0.23960  0.63380  0.56240  1.0000
  H   H42       1.0  0.76040  0.36620  0.43760  1.0000
  H   H43       1.0  0.14210  0.66400  0.49600  1.0000
  H   H44       1.0  0.85790  0.33600  0.50400  1.0000
  C   C55       1.0  0.41070  0.66850  0.48228  1.0000
  C   C56       1.0  0.58930  0.33150  0.51772  1.0000
  C   C57       1.0  0.22400  0.85260  0.44823  1.0000
  C   C58       1.0  0.77600  0.14740  0.55177  1.0000
  H   H45       1.0  0.23990  0.91900  0.43070  1.0000
  H   H46       1.0  0.76010  0.08100  0.56930  1.0000
  H   H47       1.0  0.31310  0.81700  0.42560  1.0000
  H   H48       1.0  0.68690  0.18300  0.57440  1.0000
  C   C59       1.0  0.03940  0.79260  0.42624  1.0000
  C   C60       1.0  0.96060  0.20740  0.57376  1.0000
