data_image0
_chemical_formula_structural       U8O64C12H4C4H4C4H4C4H4C4H8C8H8C16H4C4H4C4H4C4H4C4H8C8H8C16H4C4H4C4H4C4H4C4H8C8H8C4U8O64C12H4C4H4C4H4C4H4C4H8C8H8C16H4C4H4C4H4C4H4C4H8C8H8C16H4C4H4C4H4C4H4C4H8C8H8C4
_chemical_formula_sum              "U16 O128 C240 H192"
_cell_length_a       26.7267
_cell_length_b       15.2891
_cell_length_c       20.499
_cell_angle_alpha    90
_cell_angle_beta     97.072
_cell_angle_gamma    90

_space_group_name_H-M_alt    "P 1"
_space_group_IT_number       1

loop_
  _space_group_symop_operation_xyz
  'x, y, z'

loop_
  _atom_site_type_symbol
  _atom_site_label
  _atom_site_symmetry_multiplicity
  _atom_site_fract_x
  _atom_site_fract_y
  _atom_site_fract_z
  _atom_site_occupancy
  U   U1        1.0  0.38468  0.20114  0.62065  1.0000
  U   U2        1.0  0.38468  0.79886  0.12065  1.0000
  U   U3        1.0  0.88468  0.70114  0.62065  1.0000
  U   U4        1.0  0.88468  0.29886  0.12065  1.0000
  U   U5        1.0  0.72342  0.18231  0.64169  1.0000
  U   U6        1.0  0.72342  0.81769  0.14169  1.0000
  U   U7        1.0  0.22342  0.68231  0.64169  1.0000
  U   U8        1.0  0.22342  0.31769  0.14169  1.0000
  O   O1        1.0  0.36570  0.18240  0.70090  1.0000
  O   O2        1.0  0.36570  0.81760  0.20090  1.0000
  O   O3        1.0  0.86570  0.68240  0.70090  1.0000
  O   O4        1.0  0.86570  0.31760  0.20090  1.0000
  O   O5        1.0  0.40360  0.22090  0.54270  1.0000
  O   O6        1.0  0.40360  0.77910  0.04270  1.0000
  O   O7        1.0  0.90360  0.72090  0.54270  1.0000
  O   O8        1.0  0.90360  0.27910  0.04270  1.0000
  O   O9        1.0  0.70850  0.20070  0.72380  1.0000
  O   O10       1.0  0.70850  0.79930  0.22380  1.0000
  O   O11       1.0  0.20850  0.70070  0.72380  1.0000
  O   O12       1.0  0.20850  0.29930  0.22380  1.0000
  O   O13       1.0  0.73760  0.16120  0.56270  1.0000
  O   O14       1.0  0.73760  0.83880  0.06270  1.0000
  O   O15       1.0  0.23760  0.66120  0.56270  1.0000
  O   O16       1.0  0.23760  0.33880  0.06270  1.0000
  O   O17       1.0  0.43940  0.32110  0.66320  1.0000
  O   O18       1.0  0.43940  0.67890  0.16320  1.0000
  O   O19       1.0  0.93940  0.82110  0.66320  1.0000
  O   O20       1.0  0.93940  0.17890  0.16320  1.0000
  O   O21       1.0  0.47460  0.19090  0.66680  1.0000
  O   O22       1.0  0.47460  0.80910  0.16680  1.0000
  O   O23       1.0  0.97460  0.69090  0.66680  1.0000
  O   O24       1.0  0.97460  0.30910  0.16680  1.0000
  O   O25       1.0  0.63430  0.17240  0.60270  1.0000
  O   O26       1.0  0.63430  0.82760  0.10270  1.0000
  O   O27       1.0  0.13430  0.67240  0.60270  1.0000
  O   O28       1.0  0.13430  0.32760  0.10270  1.0000
  O   O29       1.0  0.66570  0.30560  0.61100  1.0000
  O   O30       1.0  0.66570  0.69440  0.11100  1.0000
  O   O31       1.0  0.16570  0.80560  0.61100  1.0000
  O   O32       1.0  0.16570  0.19440  0.11100  1.0000
  O   O33       1.0  0.41600  0.04970  0.62110  1.0000
  O   O34       1.0  0.41600  0.95030  0.12110  1.0000
  O   O35       1.0  0.91600  0.54970  0.62110  1.0000
  O   O36       1.0  0.91600  0.45030  0.12110  1.0000
  O   O37       1.0  0.34000  0.06790  0.57330  1.0000
  O   O38       1.0  0.34000  0.93210  0.07330  1.0000
  O   O39       1.0  0.84000  0.56790  0.57330  1.0000
  O   O40       1.0  0.84000  0.43210  0.07330  1.0000
  O   O41       1.0  0.26800  0.82260  0.63690  1.0000
  O   O42       1.0  0.26800  0.17740  0.13690  1.0000
  O   O43       1.0  0.76800  0.32260  0.63690  1.0000
  O   O44       1.0  0.76800  0.67740  0.13690  1.0000
  O   O45       1.0  0.31310  0.71460  0.68600  1.0000
  O   O46       1.0  0.31310  0.28540  0.18600  1.0000
  O   O47       1.0  0.81310  0.21460  0.68600  1.0000
  O   O48       1.0  0.81310  0.78540  0.18600  1.0000
  O   O49       1.0  0.77060  0.05240  0.68520  1.0000
  O   O50       1.0  0.77060  0.94760  0.18520  1.0000
  O   O51       1.0  0.27060  0.55240  0.68520  1.0000
  O   O52       1.0  0.27060  0.44760  0.18520  1.0000
  O   O53       1.0  0.69020  0.03280  0.64720  1.0000
  O   O54       1.0  0.69020  0.96720  0.14720  1.0000
  O   O55       1.0  0.19020  0.53280  0.64720  1.0000
  O   O56       1.0  0.19020  0.46720  0.14720  1.0000
  O   O57       1.0  0.79590  0.72500  0.57840  1.0000
  O   O58       1.0  0.79590  0.27500  0.07840  1.0000
  O   O59       1.0  0.29590  0.22500  0.57840  1.0000
  O   O60       1.0  0.29590  0.77500  0.07840  1.0000
  O   O61       1.0  0.83990  0.84420  0.60630  1.0000
  O   O62       1.0  0.83990  0.15580  0.10630  1.0000
  O   O63       1.0  0.33990  0.34420  0.60630  1.0000
  O   O64       1.0  0.33990  0.65580  0.10630  1.0000
  C   C1        1.0  0.53920  0.38890  0.65370  1.0000
  C   C2        1.0  0.53920  0.61110  0.15370  1.0000
  C   C3        1.0  0.03920  0.88890  0.65370  1.0000
  C   C4        1.0  0.03920  0.11110  0.15370  1.0000
  C   C5        1.0  0.56110  0.37950  0.59640  1.0000
  C   C6        1.0  0.56110  0.62050  0.09640  1.0000
  C   C7        1.0  0.06110  0.87950  0.59640  1.0000
  C   C8        1.0  0.06110  0.12050  0.09640  1.0000
  C   C9        1.0  0.56900  0.45350  0.55850  1.0000
  C   C10       1.0  0.56900  0.54650  0.05850  1.0000
  C   C11       1.0  0.06900  0.95350  0.55850  1.0000
  C   C12       1.0  0.06900  0.04650  0.05850  1.0000
  H   H1        1.0  0.58610  0.44700  0.52080  1.0000
  H   H2        1.0  0.58610  0.55300  0.02080  1.0000
  H   H3        1.0  0.08610  0.94700  0.52080  1.0000
  H   H4        1.0  0.08610  0.05300  0.02080  1.0000
  C   C13       1.0  0.55280  0.53400  0.57400  1.0000
  C   C14       1.0  0.55280  0.46600  0.07400  1.0000
  C   C15       1.0  0.05280  0.03400  0.57400  1.0000
  C   C16       1.0  0.05280  0.96600  0.07400  1.0000
  H   H5        1.0  0.55710  0.58230  0.54610  1.0000
  H   H6        1.0  0.55710  0.41770  0.04610  1.0000
  H   H7        1.0  0.05710  0.08230  0.54610  1.0000
  H   H8        1.0  0.05710  0.91770  0.04610  1.0000
  C   C17       1.0  0.52950  0.54650  0.63180  1.0000
  C   C18       1.0  0.52950  0.45350  0.13180  1.0000
  C   C19       1.0  0.02950  0.04650  0.63180  1.0000
  C   C20       1.0  0.02950  0.95350  0.13180  1.0000
  H   H9        1.0  0.51740  0.60200  0.64360  1.0000
  H   H10       1.0  0.51740  0.39800  0.14360  1.0000
  H   H11       1.0  0.01740  0.10200  0.64360  1.0000
  H   H12       1.0  0.01740  0.89800  0.14360  1.0000
  C   C21       1.0  0.52510  0.46720  0.67290  1.0000
  C   C22       1.0  0.52510  0.53280  0.17290  1.0000
  C   C23       1.0  0.02510  0.96720  0.67290  1.0000
  C   C24       1.0  0.02510  0.03280  0.17290  1.0000
  H   H13       1.0  0.51200  0.47270  0.71380  1.0000
  H   H14       1.0  0.51200  0.52730  0.21380  1.0000
  H   H15       1.0  0.01200  0.97270  0.71380  1.0000
  H   H16       1.0  0.01200  0.02730  0.21380  1.0000
  C   C25       1.0  0.52900  0.31120  0.69680  1.0000
  C   C26       1.0  0.52900  0.68880  0.19680  1.0000
  C   C27       1.0  0.02900  0.81120  0.69680  1.0000
  C   C28       1.0  0.02900  0.18880  0.19680  1.0000
  H   H17       1.0  0.55540  0.26610  0.69460  1.0000
  H   H18       1.0  0.55540  0.73390  0.19460  1.0000
  H   H19       1.0  0.05540  0.76610  0.69460  1.0000
  H   H20       1.0  0.05540  0.23390  0.19460  1.0000
  H   H21       1.0  0.53000  0.33040  0.74300  1.0000
  H   H22       1.0  0.53000  0.66960  0.24300  1.0000
  H   H23       1.0  0.03000  0.83040  0.74300  1.0000
  H   H24       1.0  0.03000  0.16960  0.24300  1.0000
  C   C29       1.0  0.47770  0.27320  0.67300  1.0000
  C   C30       1.0  0.47770  0.72680  0.17300  1.0000
  C   C31       1.0  0.97770  0.77320  0.67300  1.0000
  C   C32       1.0  0.97770  0.22680  0.17300  1.0000
  C   C33       1.0  0.57680  0.29090  0.57300  1.0000
  C   C34       1.0  0.57680  0.70910  0.07300  1.0000
  C   C35       1.0  0.07680  0.79090  0.57300  1.0000
  C   C36       1.0  0.07680  0.20910  0.07300  1.0000
  H   H25       1.0  0.57440  0.29370  0.52450  1.0000
  H   H26       1.0  0.57440  0.70630  0.02450  1.0000
  H   H27       1.0  0.07440  0.79370  0.52450  1.0000
  H   H28       1.0  0.07440  0.20630  0.02450  1.0000
  H   H29       1.0  0.55120  0.24820  0.58370  1.0000
  H   H30       1.0  0.55120  0.75180  0.08370  1.0000
  H   H31       1.0  0.05120  0.74820  0.58370  1.0000
  H   H32       1.0  0.05120  0.25180  0.08370  1.0000
  C   C37       1.0  0.62800  0.25260  0.59740  1.0000
  C   C38       1.0  0.62800  0.74740  0.09740  1.0000
  C   C39       1.0  0.12800  0.75260  0.59740  1.0000
  C   C40       1.0  0.12800  0.24740  0.09740  1.0000
  C   C41       1.0  0.41030  0.86390  0.60340  1.0000
  C   C42       1.0  0.41030  0.13610  0.10340  1.0000
  C   C43       1.0  0.91030  0.36390  0.60340  1.0000
  C   C44       1.0  0.91030  0.63610  0.10340  1.0000
  C   C45       1.0  0.40130  0.83360  0.66610  1.0000
  C   C46       1.0  0.40130  0.16640  0.16610  1.0000
  C   C47       1.0  0.90130  0.33360  0.66610  1.0000
  C   C48       1.0  0.90130  0.66640  0.16610  1.0000
  C   C49       1.0  0.43740  0.78370  0.70510  1.0000
  C   C50       1.0  0.43740  0.21630  0.20510  1.0000
  C   C51       1.0  0.93740  0.28370  0.70510  1.0000
  C   C52       1.0  0.93740  0.71630  0.20510  1.0000
  H   H33       1.0  0.43120  0.76460  0.74750  1.0000
  H   H34       1.0  0.43120  0.23540  0.24750  1.0000
  H   H35       1.0  0.93120  0.26460  0.74750  1.0000
  H   H36       1.0  0.93120  0.73540  0.24750  1.0000
  C   C53       1.0  0.48320  0.76220  0.68090  1.0000
  C   C54       1.0  0.48320  0.23780  0.18090  1.0000
  C   C55       1.0  0.98320  0.26220  0.68090  1.0000
  C   C56       1.0  0.98320  0.73780  0.18090  1.0000
  H   H37       1.0  0.50800  0.72780  0.70640  1.0000
  H   H38       1.0  0.50800  0.27220  0.20640  1.0000
  H   H39       1.0  0.00800  0.22780  0.70640  1.0000
  H   H40       1.0  0.00800  0.77220  0.20640  1.0000
  C   C57       1.0  0.49120  0.79220  0.61930  1.0000
  C   C58       1.0  0.49120  0.20780  0.11930  1.0000
  C   C59       1.0  0.99120  0.29220  0.61930  1.0000
  C   C60       1.0  0.99120  0.70780  0.11930  1.0000
  H   H41       1.0  0.52180  0.77720  0.60290  1.0000
  H   H42       1.0  0.52180  0.22280  0.10290  1.0000
  H   H43       1.0  0.02180  0.27720  0.60290  1.0000
  H   H44       1.0  0.02180  0.72280  0.10290  1.0000
  C   C61       1.0  0.45770  0.84120  0.58220  1.0000
  C   C62       1.0  0.45770  0.15880  0.08220  1.0000
  C   C63       1.0  0.95770  0.34120  0.58220  1.0000
  C   C64       1.0  0.95770  0.65880  0.08220  1.0000
  H   H45       1.0  0.46550  0.86140  0.54070  1.0000
  H   H46       1.0  0.46550  0.13860  0.04070  1.0000
  H   H47       1.0  0.96550  0.36140  0.54070  1.0000
  H   H48       1.0  0.96550  0.63860  0.04070  1.0000
  C   C65       1.0  0.37500  0.92410  0.56510  1.0000
  C   C66       1.0  0.37500  0.07590  0.06510  1.0000
  C   C67       1.0  0.87500  0.42410  0.56510  1.0000
  C   C68       1.0  0.87500  0.57590  0.06510  1.0000
  H   H49       1.0  0.34030  0.90180  0.56570  1.0000
  H   H50       1.0  0.34030  0.09820  0.06570  1.0000
  H   H51       1.0  0.84030  0.40180  0.56570  1.0000
  H   H52       1.0  0.84030  0.59820  0.06570  1.0000
  H   H53       1.0  0.38210  0.92360  0.51880  1.0000
  H   H54       1.0  0.38210  0.07640  0.01880  1.0000
  H   H55       1.0  0.88210  0.42360  0.51880  1.0000
  H   H56       1.0  0.88210  0.57640  0.01880  1.0000
  C   C69       1.0  0.37700  0.01810  0.58920  1.0000
  C   C70       1.0  0.37700  0.98190  0.08920  1.0000
  C   C71       1.0  0.87700  0.51810  0.58920  1.0000
  C   C72       1.0  0.87700  0.48190  0.08920  1.0000
  C   C73       1.0  0.35140  0.85710  0.69210  1.0000
  C   C74       1.0  0.35140  0.14290  0.19210  1.0000
  C   C75       1.0  0.85140  0.35710  0.69210  1.0000
  C   C76       1.0  0.85140  0.64290  0.19210  1.0000
  H   H57       1.0  0.35670  0.85720  0.74080  1.0000
  H   H58       1.0  0.35670  0.14280  0.24080  1.0000
  H   H59       1.0  0.85670  0.35720  0.74080  1.0000
  H   H60       1.0  0.85670  0.64280  0.24080  1.0000
  H   H61       1.0  0.34120  0.91690  0.67740  1.0000
  H   H62       1.0  0.34120  0.08310  0.17740  1.0000
  H   H63       1.0  0.84120  0.41690  0.67740  1.0000
  H   H64       1.0  0.84120  0.58310  0.17740  1.0000
  C   C77       1.0  0.30940  0.79440  0.66910  1.0000
  C   C78       1.0  0.30940  0.20560  0.16910  1.0000
  C   C79       1.0  0.80940  0.29440  0.66910  1.0000
  C   C80       1.0  0.80940  0.70560  0.16910  1.0000
  C   C81       1.0  0.70150  0.84790  0.65380  1.0000
  C   C82       1.0  0.70150  0.15210  0.15380  1.0000
  C   C83       1.0  0.20150  0.34790  0.65380  1.0000
  C   C84       1.0  0.20150  0.65210  0.15380  1.0000
  C   C85       1.0  0.70810  0.82840  0.58860  1.0000
  C   C86       1.0  0.70810  0.17160  0.08860  1.0000
  C   C87       1.0  0.20810  0.32840  0.58860  1.0000
  C   C88       1.0  0.20810  0.67160  0.08860  1.0000
  C   C89       1.0  0.67370  0.77290  0.55220  1.0000
  C   C90       1.0  0.67370  0.22710  0.05220  1.0000
  C   C91       1.0  0.17370  0.27290  0.55220  1.0000
  C   C92       1.0  0.17370  0.72710  0.05220  1.0000
  H   H65       1.0  0.67760  0.76050  0.50760  1.0000
  H   H66       1.0  0.67760  0.23950  0.00760  1.0000
  H   H67       1.0  0.17760  0.26050  0.50760  1.0000
  H   H68       1.0  0.17760  0.73950  0.00760  1.0000
  C   C93       1.0  0.63480  0.73630  0.57940  1.0000
  C   C94       1.0  0.63480  0.26370  0.07940  1.0000
  C   C95       1.0  0.13480  0.23630  0.57940  1.0000
  C   C96       1.0  0.13480  0.76370  0.07940  1.0000
  H   H69       1.0  0.61180  0.69910  0.55370  1.0000
  H   H70       1.0  0.61180  0.30090  0.05370  1.0000
  H   H71       1.0  0.11180  0.19910  0.55370  1.0000
  H   H72       1.0  0.11180  0.80090  0.05370  1.0000
  C   C97       1.0  0.62850  0.75300  0.64490  1.0000
  C   C98       1.0  0.62850  0.24700  0.14490  1.0000
  C   C99       1.0  0.12850  0.25300  0.64490  1.0000
  C   C100      1.0  0.12850  0.74700  0.14490  1.0000
  H   H73       1.0  0.60190  0.72590  0.66420  1.0000
  H   H74       1.0  0.60190  0.27410  0.16420  1.0000
  H   H75       1.0  0.10190  0.22590  0.66420  1.0000
  H   H76       1.0  0.10190  0.77410  0.16420  1.0000
  C   C101      1.0  0.66150  0.80960  0.68120  1.0000
  C   C102      1.0  0.66150  0.19040  0.18120  1.0000
  C   C103      1.0  0.16150  0.30960  0.68120  1.0000
  C   C104      1.0  0.16150  0.69040  0.18120  1.0000
  H   H77       1.0  0.65680  0.82250  0.72540  1.0000
  H   H78       1.0  0.65680  0.17750  0.22540  1.0000
  H   H79       1.0  0.15680  0.32250  0.72540  1.0000
  H   H80       1.0  0.15680  0.67750  0.22540  1.0000
  C   C105      1.0  0.73740  0.90820  0.69430  1.0000
  C   C106      1.0  0.73740  0.09180  0.19430  1.0000
  C   C107      1.0  0.23740  0.40820  0.69430  1.0000
  C   C108      1.0  0.23740  0.59180  0.19430  1.0000
  H   H81       1.0  0.73180  0.90260  0.74100  1.0000
  H   H82       1.0  0.73180  0.09740  0.24100  1.0000
  H   H83       1.0  0.23180  0.40260  0.74100  1.0000
  H   H84       1.0  0.23180  0.59740  0.24100  1.0000
  H   H85       1.0  0.77230  0.88890  0.69070  1.0000
  H   H86       1.0  0.77230  0.11110  0.19070  1.0000
  H   H87       1.0  0.27230  0.38890  0.69070  1.0000
  H   H88       1.0  0.27230  0.61110  0.19070  1.0000
  C   C109      1.0  0.73270  0.00230  0.67530  1.0000
  C   C110      1.0  0.73270  0.99770  0.17530  1.0000
  C   C111      1.0  0.23270  0.50230  0.67530  1.0000
  C   C112      1.0  0.23270  0.49770  0.17530  1.0000
  C   C113      1.0  0.75270  0.86270  0.55780  1.0000
  C   C114      1.0  0.75270  0.13730  0.05780  1.0000
  C   C115      1.0  0.25270  0.36270  0.55780  1.0000
  C   C116      1.0  0.25270  0.63730  0.05780  1.0000
  H   H89       1.0  0.75890  0.92480  0.56990  1.0000
  H   H90       1.0  0.75890  0.07520  0.06990  1.0000
  H   H91       1.0  0.25890  0.42480  0.56990  1.0000
  H   H92       1.0  0.25890  0.57520  0.06990  1.0000
  H   H93       1.0  0.74610  0.85860  0.50930  1.0000
  H   H94       1.0  0.74610  0.14140  0.00930  1.0000
  H   H95       1.0  0.24610  0.35860  0.50930  1.0000
  H   H96       1.0  0.24610  0.64140  0.00930  1.0000
  C   C117      1.0  0.79850  0.80780  0.58290  1.0000
  C   C118      1.0  0.79850  0.19220  0.08290  1.0000
  C   C119      1.0  0.29850  0.30780  0.58290  1.0000
  C   C120      1.0  0.29850  0.69220  0.08290  1.0000
  U   U9        1.0  0.45892  0.07166  0.40402  1.0000
  U   U10       1.0  0.45892  0.92834  0.90402  1.0000
  U   U11       1.0  0.95892  0.57166  0.40402  1.0000
  U   U12       1.0  0.95892  0.42834  0.90402  1.0000
  U   U13       1.0  0.61919  0.58444  0.37384  1.0000
  U   U14       1.0  0.61919  0.41556  0.87384  1.0000
  U   U15       1.0  0.11919  0.08444  0.37384  1.0000
  U   U16       1.0  0.11919  0.91556  0.87384  1.0000
  O   O65       1.0  0.43600  0.05850  0.48180  1.0000
  O   O66       1.0  0.43600  0.94150  0.98180  1.0000
  O   O67       1.0  0.93600  0.55850  0.48180  1.0000
  O   O68       1.0  0.93600  0.44150  0.98180  1.0000
  O   O69       1.0  0.48230  0.08300  0.32820  1.0000
  O   O70       1.0  0.48230  0.91700  0.82820  1.0000
  O   O71       1.0  0.98230  0.58300  0.32820  1.0000
  O   O72       1.0  0.98230  0.41700  0.82820  1.0000
  O   O73       1.0  0.60910  0.58640  0.45850  1.0000
  O   O74       1.0  0.60910  0.41360  0.95850  1.0000
  O   O75       1.0  0.10910  0.08640  0.45850  1.0000
  O   O76       1.0  0.10910  0.91360  0.95850  1.0000
  O   O77       1.0  0.62990  0.58200  0.29100  1.0000
  O   O78       1.0  0.62990  0.41800  0.79100  1.0000
  O   O79       1.0  0.12990  0.08200  0.29100  1.0000
  O   O80       1.0  0.12990  0.91800  0.79100  1.0000
  O   O81       1.0  0.54520  0.05030  0.45790  1.0000
  O   O82       1.0  0.54520  0.94970  0.95790  1.0000
  O   O83       1.0  0.04520  0.55030  0.45790  1.0000
  O   O84       1.0  0.04520  0.44970  0.95790  1.0000
  O   O85       1.0  0.50370  0.93260  0.42260  1.0000
  O   O86       1.0  0.50370  0.06740  0.92260  1.0000
  O   O87       1.0  0.00370  0.43260  0.42260  1.0000
  O   O88       1.0  0.00370  0.56740  0.92260  1.0000
  O   O89       1.0  0.56530  0.71640  0.34940  1.0000
  O   O90       1.0  0.56530  0.28360  0.84940  1.0000
  O   O91       1.0  0.06530  0.21640  0.34940  1.0000
  O   O92       1.0  0.06530  0.78360  0.84940  1.0000
  O   O93       1.0  0.64670  0.73850  0.37780  1.0000
  O   O94       1.0  0.64670  0.26150  0.87780  1.0000
  O   O95       1.0  0.14670  0.23850  0.37780  1.0000
  O   O96       1.0  0.14670  0.76150  0.87780  1.0000
  O   O97       1.0  0.40350  0.94440  0.36210  1.0000
  O   O98       1.0  0.40350  0.05560  0.86210  1.0000
  O   O99       1.0  0.90350  0.44440  0.36210  1.0000
  O   O100      1.0  0.90350  0.55560  0.86210  1.0000
  O   O101      1.0  0.37310  0.07660  0.34760  1.0000
  O   O102      1.0  0.37310  0.92340  0.84760  1.0000
  O   O103      1.0  0.87310  0.57660  0.34760  1.0000
  O   O104      1.0  0.87310  0.42340  0.84760  1.0000
  O   O105      1.0  0.21090  0.10500  0.41590  1.0000
  O   O106      1.0  0.21090  0.89500  0.91590  1.0000
  O   O107      1.0  0.71090  0.60500  0.41590  1.0000
  O   O108      1.0  0.71090  0.39500  0.91590  1.0000
  O   O109      1.0  0.18460  0.96970  0.39730  1.0000
  O   O110      1.0  0.18460  0.03030  0.89730  1.0000
  O   O111      1.0  0.68460  0.46970  0.39730  1.0000
  O   O112      1.0  0.68460  0.53030  0.89730  1.0000
  O   O113      1.0  0.58050  0.43580  0.35740  1.0000
  O   O114      1.0  0.58050  0.56420  0.85740  1.0000
  O   O115      1.0  0.08050  0.93580  0.35740  1.0000
  O   O116      1.0  0.08050  0.06420  0.85740  1.0000
  O   O117      1.0  0.52920  0.54770  0.34760  1.0000
  O   O118      1.0  0.52920  0.45230  0.84760  1.0000
  O   O119      1.0  0.02920  0.04770  0.34760  1.0000
  O   O120      1.0  0.02920  0.95230  0.84760  1.0000
  O   O121      1.0  0.42610  0.22660  0.39520  1.0000
  O   O122      1.0  0.42610  0.77340  0.89520  1.0000
  O   O123      1.0  0.92610  0.72660  0.39520  1.0000
  O   O124      1.0  0.92610  0.27340  0.89520  1.0000
  O   O125      1.0  0.50250  0.20500  0.44780  1.0000
  O   O126      1.0  0.50250  0.79500  0.94780  1.0000
  O   O127      1.0  0.00250  0.70500  0.44780  1.0000
  O   O128      1.0  0.00250  0.29500  0.94780  1.0000
  C   C121      1.0  0.63430  0.94300  0.43550  1.0000
  C   C122      1.0  0.63430  0.05700  0.93550  1.0000
  C   C123      1.0  0.13430  0.44300  0.43550  1.0000
  C   C124      1.0  0.13430  0.55700  0.93550  1.0000
  C   C125      1.0  0.63540  0.91860  0.36870  1.0000
  C   C126      1.0  0.63540  0.08140  0.86870  1.0000
  C   C127      1.0  0.13540  0.41860  0.36870  1.0000
  C   C128      1.0  0.13540  0.58140  0.86870  1.0000
  C   C129      1.0  0.67870  0.94470  0.34010  1.0000
  C   C130      1.0  0.67870  0.05530  0.84010  1.0000
  C   C131      1.0  0.17870  0.44470  0.34010  1.0000
  C   C132      1.0  0.17870  0.55530  0.84010  1.0000
  H   H97       1.0  0.68250  0.92540  0.29690  1.0000
  H   H98       1.0  0.68250  0.07460  0.79690  1.0000
  H   H99       1.0  0.18250  0.42540  0.29690  1.0000
  H   H100      1.0  0.18250  0.57460  0.79690  1.0000
  C   C133      1.0  0.71570  0.99790  0.37310  1.0000
  C   C134      1.0  0.71570  0.00210  0.87310  1.0000
  C   C135      1.0  0.21570  0.49790  0.37310  1.0000
  C   C136      1.0  0.21570  0.50210  0.87310  1.0000
  H   H101      1.0  0.74280  0.01810  0.35120  1.0000
  H   H102      1.0  0.74280  0.98190  0.85120  1.0000
  H   H103      1.0  0.24280  0.51810  0.35120  1.0000
  H   H104      1.0  0.24280  0.48190  0.85120  1.0000
  C   C137      1.0  0.71330  0.02080  0.43650  1.0000
  C   C138      1.0  0.71330  0.97920  0.93650  1.0000
  C   C139      1.0  0.21330  0.52080  0.43650  1.0000
  C   C140      1.0  0.21330  0.47920  0.93650  1.0000
  H   H105      1.0  0.73970  0.05450  0.45940  1.0000
  H   H106      1.0  0.73970  0.94550  0.95940  1.0000
  H   H107      1.0  0.23970  0.55450  0.45940  1.0000
  H   H108      1.0  0.23970  0.44550  0.95940  1.0000
  C   C141      1.0  0.67210  0.99540  0.46880  1.0000
  C   C142      1.0  0.67210  0.00460  0.96880  1.0000
  C   C143      1.0  0.17210  0.49540  0.46880  1.0000
  C   C144      1.0  0.17210  0.50460  0.96880  1.0000
  H   H109      1.0  0.67000  0.01360  0.51270  1.0000
  H   H110      1.0  0.67000  0.98640  0.01270  1.0000
  H   H111      1.0  0.17000  0.51360  0.51270  1.0000
  H   H112      1.0  0.17000  0.48640  0.01270  1.0000
  C   C145      1.0  0.58930  0.91510  0.47020  1.0000
  C   C146      1.0  0.58930  0.08490  0.97020  1.0000
  C   C147      1.0  0.08930  0.41510  0.47020  1.0000
  C   C148      1.0  0.08930  0.58490  0.97020  1.0000
  H   H113      1.0  0.58130  0.85300  0.45990  1.0000
  H   H114      1.0  0.58130  0.14700  0.95990  1.0000
  H   H115      1.0  0.08130  0.35300  0.45990  1.0000
  H   H116      1.0  0.08130  0.64700  0.95990  1.0000
  H   H117      1.0  0.59850  0.92020  0.51840  1.0000
  H   H118      1.0  0.59850  0.07980  0.01840  1.0000
  H   H119      1.0  0.09850  0.42020  0.51840  1.0000
  H   H120      1.0  0.09850  0.57980  0.01840  1.0000
  C   C149      1.0  0.54400  0.96980  0.44970  1.0000
  C   C150      1.0  0.54400  0.03020  0.94970  1.0000
  C   C151      1.0  0.04400  0.46980  0.44970  1.0000
  C   C152      1.0  0.04400  0.53020  0.94970  1.0000
  C   C153      1.0  0.59750  0.86220  0.33460  1.0000
  C   C154      1.0  0.59750  0.13780  0.83460  1.0000
  C   C155      1.0  0.09750  0.36220  0.33460  1.0000
  C   C156      1.0  0.09750  0.63780  0.83460  1.0000
  H   H121      1.0  0.59960  0.86620  0.28680  1.0000
  H   H122      1.0  0.59960  0.13380  0.78680  1.0000
  H   H123      1.0  0.09960  0.36620  0.28680  1.0000
  H   H124      1.0  0.09960  0.63380  0.78680  1.0000
  H   H125      1.0  0.56380  0.88370  0.34240  1.0000
  H   H126      1.0  0.56380  0.11630  0.84240  1.0000
  H   H127      1.0  0.06380  0.38370  0.34240  1.0000
  H   H128      1.0  0.06380  0.61630  0.84240  1.0000
  C   C157      1.0  0.60230  0.76730  0.35510  1.0000
  C   C158      1.0  0.60230  0.23270  0.85510  1.0000
  C   C159      1.0  0.10230  0.26730  0.35510  1.0000
  C   C160      1.0  0.10230  0.73270  0.85510  1.0000
  C   C161      1.0  0.29840  0.88290  0.34590  1.0000
  C   C162      1.0  0.29840  0.11710  0.84590  1.0000
  C   C163      1.0  0.79840  0.38290  0.34590  1.0000
  C   C164      1.0  0.79840  0.61710  0.84590  1.0000
  C   C165      1.0  0.28030  0.89870  0.40880  1.0000
  C   C166      1.0  0.28030  0.10130  0.90880  1.0000
  C   C167      1.0  0.78030  0.39870  0.40880  1.0000
  C   C168      1.0  0.78030  0.60130  0.90880  1.0000
  C   C169      1.0  0.26550  0.83080  0.44330  1.0000
  C   C170      1.0  0.26550  0.16920  0.94330  1.0000
  C   C171      1.0  0.76550  0.33080  0.44330  1.0000
  C   C172      1.0  0.76550  0.66920  0.94330  1.0000
  H   H129      1.0  0.25370  0.84100  0.48460  1.0000
  H   H130      1.0  0.25370  0.15900  0.98460  1.0000
  H   H131      1.0  0.75370  0.34100  0.48460  1.0000
  H   H132      1.0  0.75370  0.65900  0.98460  1.0000
  C   C173      1.0  0.26700  0.74720  0.42000  1.0000
  C   C174      1.0  0.26700  0.25280  0.92000  1.0000
  C   C175      1.0  0.76700  0.24720  0.42000  1.0000
  C   C176      1.0  0.76700  0.75280  0.92000  1.0000
  H   H133      1.0  0.25690  0.70020  0.44570  1.0000
  H   H134      1.0  0.25690  0.29980  0.94570  1.0000
  H   H135      1.0  0.75690  0.20020  0.44570  1.0000
  H   H136      1.0  0.75690  0.79980  0.94570  1.0000
  C   C177      1.0  0.28330  0.72970  0.35900  1.0000
  C   C178      1.0  0.28330  0.27030  0.85900  1.0000
  C   C179      1.0  0.78330  0.22970  0.35900  1.0000
  C   C180      1.0  0.78330  0.77030  0.85900  1.0000
  H   H137      1.0  0.28280  0.67180  0.34210  1.0000
  H   H138      1.0  0.28280  0.32820  0.84210  1.0000
  H   H139      1.0  0.78280  0.17180  0.34210  1.0000
  H   H140      1.0  0.78280  0.82820  0.84210  1.0000
  C   C181      1.0  0.29990  0.79730  0.32440  1.0000
  C   C182      1.0  0.29990  0.20270  0.82440  1.0000
  C   C183      1.0  0.79990  0.29730  0.32440  1.0000
  C   C184      1.0  0.79990  0.70270  0.82440  1.0000
  H   H141      1.0  0.31280  0.78550  0.28420  1.0000
  H   H142      1.0  0.31280  0.21450  0.78420  1.0000
  H   H143      1.0  0.81280  0.28550  0.28420  1.0000
  H   H144      1.0  0.81280  0.71450  0.78420  1.0000
  C   C185      1.0  0.31800  0.95840  0.30700  1.0000
  C   C186      1.0  0.31800  0.04160  0.80700  1.0000
  C   C187      1.0  0.81800  0.45840  0.30700  1.0000
  C   C188      1.0  0.81800  0.54160  0.80700  1.0000
  H   H145      1.0  0.32300  0.93740  0.26260  1.0000
  H   H146      1.0  0.32300  0.06260  0.76260  1.0000
  H   H147      1.0  0.82300  0.43740  0.26260  1.0000
  H   H148      1.0  0.82300  0.56260  0.76260  1.0000
  H   H149      1.0  0.29220  0.00530  0.30170  1.0000
  H   H150      1.0  0.29220  0.99470  0.80170  1.0000
  H   H151      1.0  0.79220  0.50530  0.30170  1.0000
  H   H152      1.0  0.79220  0.49470  0.80170  1.0000
  C   C189      1.0  0.36760  0.99650  0.34060  1.0000
  C   C190      1.0  0.36760  0.00350  0.84060  1.0000
  C   C191      1.0  0.86760  0.49650  0.34060  1.0000
  C   C192      1.0  0.86760  0.50350  0.84060  1.0000
  C   C193      1.0  0.27360  0.99280  0.43050  1.0000
  C   C194      1.0  0.27360  0.00720  0.93050  1.0000
  C   C195      1.0  0.77360  0.49280  0.43050  1.0000
  C   C196      1.0  0.77360  0.50720  0.93050  1.0000
  H   H153      1.0  0.28350  0.99740  0.47850  1.0000
  H   H154      1.0  0.28350  0.00260  0.97850  1.0000
  H   H155      1.0  0.78350  0.49740  0.47850  1.0000
  H   H156      1.0  0.78350  0.50260  0.97850  1.0000
  H   H157      1.0  0.29610  0.03140  0.40840  1.0000
  H   H158      1.0  0.29610  0.96860  0.90840  1.0000
  H   H159      1.0  0.79610  0.53140  0.40840  1.0000
  H   H160      1.0  0.79610  0.46860  0.90840  1.0000
  C   C197      1.0  0.22030  0.02250  0.41420  1.0000
  C   C198      1.0  0.22030  0.97750  0.91420  1.0000
  C   C199      1.0  0.72030  0.52250  0.41420  1.0000
  C   C200      1.0  0.72030  0.47750  0.91420  1.0000
  C   C201      1.0  0.44440  0.43680  0.34990  1.0000
  C   C202      1.0  0.44440  0.56320  0.84990  1.0000
  C   C203      1.0  0.94440  0.93680  0.34990  1.0000
  C   C204      1.0  0.94440  0.06320  0.84990  1.0000
  C   C205      1.0  0.43220  0.41150  0.41230  1.0000
  C   C206      1.0  0.43220  0.58850  0.91230  1.0000
  C   C207      1.0  0.93220  0.91150  0.41230  1.0000
  C   C208      1.0  0.93220  0.08850  0.91230  1.0000
  C   C209      1.0  0.38910  0.44570  0.43750  1.0000
  C   C210      1.0  0.38910  0.55430  0.93750  1.0000
  C   C211      1.0  0.88910  0.94570  0.43750  1.0000
  C   C212      1.0  0.88910  0.05430  0.93750  1.0000
  H   H161      1.0  0.38090  0.42900  0.47950  1.0000
  H   H162      1.0  0.38090  0.57100  0.97950  1.0000
  H   H163      1.0  0.88090  0.92900  0.47950  1.0000
  H   H164      1.0  0.88090  0.07100  0.97950  1.0000
  C   C213      1.0  0.35900  0.50520  0.39800  1.0000
  C   C214      1.0  0.35900  0.49480  0.89800  1.0000
  C   C215      1.0  0.85900  0.00520  0.39800  1.0000
  C   C216      1.0  0.85900  0.99480  0.89800  1.0000
  H   H165      1.0  0.33060  0.53130  0.41390  1.0000
  H   H166      1.0  0.33060  0.46870  0.91390  1.0000
  H   H167      1.0  0.83060  0.03130  0.41390  1.0000
  H   H168      1.0  0.83060  0.96870  0.91390  1.0000
  C   C217      1.0  0.37020  0.52530  0.33790  1.0000
  C   C218      1.0  0.37020  0.47470  0.83790  1.0000
  C   C219      1.0  0.87020  0.02530  0.33790  1.0000
  C   C220      1.0  0.87020  0.97470  0.83790  1.0000
  H   H169      1.0  0.34840  0.56330  0.31090  1.0000
  H   H170      1.0  0.34840  0.43670  0.81090  1.0000
  H   H171      1.0  0.84840  0.06330  0.31090  1.0000
  H   H172      1.0  0.84840  0.93670  0.81090  1.0000
  C   C221      1.0  0.41120  0.49360  0.31470  1.0000
  C   C222      1.0  0.41120  0.50640  0.81470  1.0000
  C   C223      1.0  0.91120  0.99360  0.31470  1.0000
  C   C224      1.0  0.91120  0.00640  0.81470  1.0000
  H   H173      1.0  0.41770  0.51100  0.27210  1.0000
  H   H174      1.0  0.41770  0.48900  0.77210  1.0000
  H   H175      1.0  0.91770  0.01100  0.27210  1.0000
  H   H176      1.0  0.91770  0.98900  0.77210  1.0000
  C   C225      1.0  0.49190  0.40400  0.32520  1.0000
  C   C226      1.0  0.49190  0.59600  0.82520  1.0000
  C   C227      1.0  0.99190  0.90400  0.32520  1.0000
  C   C228      1.0  0.99190  0.09600  0.82520  1.0000
  H   H177      1.0  0.48630  0.39860  0.27680  1.0000
  H   H178      1.0  0.48630  0.60140  0.77680  1.0000
  H   H179      1.0  0.98630  0.89860  0.27680  1.0000
  H   H180      1.0  0.98630  0.10140  0.77680  1.0000
  H   H181      1.0  0.50040  0.34530  0.34380  1.0000
  H   H182      1.0  0.50040  0.65470  0.84380  1.0000
  H   H183      1.0  0.00040  0.84530  0.34380  1.0000
  H   H184      1.0  0.00040  0.15470  0.84380  1.0000
  C   C229      1.0  0.53640  0.46720  0.34510  1.0000
  C   C230      1.0  0.53640  0.53280  0.84510  1.0000
  C   C231      1.0  0.03640  0.96720  0.34510  1.0000
  C   C232      1.0  0.03640  0.03280  0.84510  1.0000
  C   C233      1.0  0.46780  0.34920  0.45580  1.0000
  C   C234      1.0  0.46780  0.65080  0.95580  1.0000
  C   C235      1.0  0.96780  0.84920  0.45580  1.0000
  C   C236      1.0  0.96780  0.15080  0.95580  1.0000
  H   H185      1.0  0.50300  0.36990  0.45640  1.0000
  H   H186      1.0  0.50300  0.63010  0.95640  1.0000
  H   H187      1.0  0.00300  0.86990  0.45640  1.0000
  H   H188      1.0  0.00300  0.13010  0.95640  1.0000
  H   H189      1.0  0.45920  0.35130  0.50140  1.0000
  H   H190      1.0  0.45920  0.64870  0.00140  1.0000
  H   H191      1.0  0.95920  0.85130  0.50140  1.0000
  H   H192      1.0  0.95920  0.14870  0.00140  1.0000
  C   C237      1.0  0.46430  0.25610  0.43170  1.0000
  C   C238      1.0  0.46430  0.74390  0.93170  1.0000
  C   C239      1.0  0.96430  0.75610  0.43170  1.0000
  C   C240      1.0  0.96430  0.24390  0.93170  1.0000
