data_image0
_chemical_formula_structural       U4O32C4H2C2H2C4H2C2H2C2H4C4H4C6H2C2H2C4H2C2H2C2H4C4H4C6H2C2H2C2H4C6H2C2H2C2H4C2
_chemical_formula_sum              "U4 O32 C60 H48"
_cell_length_a       10.3991
_cell_length_b       12.9692
_cell_length_c       20.1775
_cell_angle_alpha    76.166
_cell_angle_beta     89.632
_cell_angle_gamma    84.832

_space_group_name_H-M_alt    "P 1"
_space_group_IT_number       1

loop_
  _space_group_symop_operation_xyz
  'x, y, z'

loop_
  _atom_site_type_symbol
  _atom_site_label
  _atom_site_symmetry_multiplicity
  _atom_site_fract_x
  _atom_site_fract_y
  _atom_site_fract_z
  _atom_site_occupancy
  U   U1        1.0  0.47364  0.28083  0.90578  1.0000
  U   U2        1.0  0.52636  0.71917  0.09422  1.0000
  U   U3        1.0  0.04304  0.72391  0.58599  1.0000
  U   U4        1.0  0.95696  0.27609  0.41401  1.0000
  O   O1        1.0  0.34900  0.38710  0.88474  1.0000
  O   O2        1.0  0.65100  0.61290  0.11526  1.0000
  O   O3        1.0  0.60190  0.17720  0.92581  1.0000
  O   O4        1.0  0.39810  0.82280  0.07419  1.0000
  O   O5        1.0  0.94190  0.84030  0.58992  1.0000
  O   O6        1.0  0.05810  0.15970  0.41008  1.0000
  O   O7        1.0  0.14370  0.60860  0.58182  1.0000
  O   O8        1.0  0.85630  0.39140  0.41818  1.0000
  O   O9        1.0  0.42640  0.20460  0.80983  1.0000
  O   O10       1.0  0.57360  0.79540  0.19017  1.0000
  O   O11       1.0  0.54060  0.34210  0.78207  1.0000
  O   O12       1.0  0.45940  0.65790  0.21793  1.0000
  O   O13       1.0  0.90270  0.69940  0.49628  1.0000
  O   O14       1.0  0.09730  0.30060  0.50372  1.0000
  O   O15       1.0  0.85310  0.61460  0.59928  1.0000
  O   O16       1.0  0.14690  0.38540  0.40072  1.0000
  O   O17       1.0  0.63960  0.40830  0.89367  1.0000
  O   O18       1.0  0.36040  0.59170  0.10633  1.0000
  O   O19       1.0  0.55030  0.36420  0.99325  1.0000
  O   O20       1.0  0.44970  0.63580  0.00675  1.0000
  O   O21       1.0  0.99590  0.65040  0.70784  1.0000
  O   O22       1.0  0.00410  0.34960  0.29216  1.0000
  O   O23       1.0  0.16650  0.74030  0.68691  1.0000
  O   O24       1.0  0.83350  0.25970  0.31309  1.0000
  O   O25       1.0  0.37960  0.21180  0.01567  1.0000
  O   O26       1.0  0.62040  0.78820  0.98433  1.0000
  O   O27       1.0  0.30090  0.15720  0.93086  1.0000
  O   O28       1.0  0.69910  0.84280  0.06914  1.0000
  O   O29       1.0  0.22460  0.83570  0.55561  1.0000
  O   O30       1.0  0.77540  0.16430  0.44439  1.0000
  O   O31       1.0  0.11000  0.81430  0.46979  1.0000
  O   O32       1.0  0.89000  0.18570  0.53021  1.0000
  C   C1        1.0  0.52730  0.35660  0.64120  1.0000
  C   C2        1.0  0.47270  0.64340  0.35880  1.0000
  C   C3        1.0  0.64760  0.33380  0.61720  1.0000
  C   C4        1.0  0.35240  0.66620  0.38280  1.0000
  H   H1        1.0  0.68870  0.26350  0.63170  1.0000
  H   H2        1.0  0.31130  0.73650  0.36830  1.0000
  C   C5        1.0  0.71020  0.40980  0.57270  1.0000
  C   C6        1.0  0.28980  0.59020  0.42730  1.0000
  H   H3        1.0  0.79220  0.39140  0.55570  1.0000
  H   H4        1.0  0.20780  0.60860  0.44430  1.0000
  C   C7        1.0  0.65290  0.51460  0.55260  1.0000
  C   C8        1.0  0.34710  0.48540  0.44740  1.0000
  C   C9        1.0  0.53160  0.53820  0.57750  1.0000
  C   C10       1.0  0.46840  0.46180  0.42250  1.0000
  H   H5        1.0  0.49140  0.60890  0.56410  1.0000
  H   H6        1.0  0.50860  0.39110  0.43590  1.0000
  C   C11       1.0  0.46860  0.46080  0.62110  1.0000
  C   C12       1.0  0.53140  0.53920  0.37890  1.0000
  H   H7        1.0  0.38560  0.47820  0.63760  1.0000
  H   H8        1.0  0.61440  0.52180  0.36240  1.0000
  C   C13       1.0  0.46060  0.27310  0.69020  1.0000
  C   C14       1.0  0.53940  0.72690  0.30980  1.0000
  H   H9        1.0  0.49380  0.20220  0.68380  1.0000
  H   H10       1.0  0.50620  0.79780  0.31620  1.0000
  H   H11       1.0  0.36720  0.28340  0.67860  1.0000
  H   H12       1.0  0.63280  0.71660  0.32140  1.0000
  C   C15       1.0  0.47700  0.27300  0.76560  1.0000
  C   C16       1.0  0.52300  0.72700  0.23440  1.0000
  C   C17       1.0  0.72110  0.59810  0.50450  1.0000
  C   C18       1.0  0.27890  0.40190  0.49550  1.0000
  H   H13       1.0  0.65720  0.65890  0.48490  1.0000
  H   H14       1.0  0.34280  0.34110  0.51510  1.0000
  H   H15       1.0  0.75510  0.56810  0.46650  1.0000
  H   H16       1.0  0.24490  0.43190  0.53350  1.0000
  C   C19       1.0  0.83160  0.64000  0.53580  1.0000
  C   C20       1.0  0.16840  0.36000  0.46420  1.0000
  C   C21       1.0  0.82820  0.52220  0.93850  1.0000
  C   C22       1.0  0.17180  0.47780  0.06150  1.0000
  C   C23       1.0  0.81660  0.62950  0.90430  1.0000
  C   C24       1.0  0.18340  0.37050  0.09570  1.0000
  H   H17       1.0  0.74130  0.67330  0.91020  1.0000
  H   H18       1.0  0.25870  0.32670  0.08980  1.0000
  C   C25       1.0  0.91210  0.67330  0.86200  1.0000
  C   C26       1.0  0.08790  0.32670  0.13800  1.0000
  H   H19       1.0  0.90100  0.74670  0.83940  1.0000
  H   H20       1.0  0.09900  0.25330  0.16060  1.0000
  C   C27       1.0  0.02300  0.61370  0.85170  1.0000
  C   C28       1.0  0.97700  0.38630  0.14830  1.0000
  C   C29       1.0  0.03770  0.50660  0.88690  1.0000
  C   C30       1.0  0.96230  0.49340  0.11310  1.0000
  H   H21       1.0  0.11420  0.46340  0.88180  1.0000
  H   H22       1.0  0.88580  0.53660  0.11820  1.0000
  C   C31       1.0  0.94120  0.46320  0.92900  1.0000
  C   C32       1.0  0.05880  0.53680  0.07100  1.0000
  H   H23       1.0  0.95300  0.39010  0.95240  1.0000
  H   H24       1.0  0.04700  0.60990  0.04760  1.0000
  C   C33       1.0  0.72500  0.47570  0.98560  1.0000
  C   C34       1.0  0.27500  0.52430  0.01440  1.0000
  H   H25       1.0  0.67340  0.53450  0.99980  1.0000
  H   H26       1.0  0.32660  0.46550  0.00020  1.0000
  H   H27       1.0  0.76700  0.42840  0.02720  1.0000
  H   H28       1.0  0.23300  0.57160  0.97280  1.0000
  C   C35       1.0  0.63330  0.41230  0.95590  1.0000
  C   C36       1.0  0.36670  0.58770  0.04410  1.0000
  C   C37       1.0  0.12700  0.66060  0.80490  1.0000
  C   C38       1.0  0.87300  0.33940  0.19510  1.0000
  H   H29       1.0  0.20570  0.61000  0.81340  1.0000
  H   H30       1.0  0.79430  0.39000  0.18660  1.0000
  H   H31       1.0  0.14800  0.72710  0.81650  1.0000
  H   H32       1.0  0.85200  0.27290  0.18350  1.0000
  C   C39       1.0  0.09230  0.68550  0.72930  1.0000
  C   C40       1.0  0.90770  0.31450  0.27070  1.0000
  C   C41       1.0  0.11290  0.03830  0.01980  1.0000
  C   C42       1.0  0.88710  0.96170  0.98020  1.0000
  C   C43       1.0  0.09080  0.93130  0.04250  1.0000
  C   C44       1.0  0.90920  0.06870  0.95750  1.0000
  H   H33       1.0  0.15250  0.88330  0.07160  1.0000
  H   H34       1.0  0.84750  0.11670  0.92840  1.0000
  C   C45       1.0  0.97960  0.89440  0.02280  1.0000
  C   C46       1.0  0.02040  0.10560  0.97720  1.0000
  H   H35       1.0  0.96630  0.82110  0.03890  1.0000
  H   H36       1.0  0.03370  0.17890  0.96110  1.0000
  C   C47       1.0  0.22870  0.07960  0.04540  1.0000
  C   C48       1.0  0.77130  0.92040  0.95460  1.0000
  H   H37       1.0  0.28790  0.01740  0.06850  1.0000
  H   H38       1.0  0.71210  0.98260  0.93150  1.0000
  H   H39       1.0  0.19920  0.11790  0.08050  1.0000
  H   H40       1.0  0.80080  0.88210  0.91950  1.0000
  C   C49       1.0  0.30660  0.15370  0.99320  1.0000
  C   C50       1.0  0.69340  0.84630  0.00680  1.0000
  C   C51       1.0  0.39050  0.96940  0.47170  1.0000
  C   C52       1.0  0.60950  0.03060  0.52830  1.0000
  C   C53       1.0  0.38400  0.06280  0.49580  1.0000
  C   C54       1.0  0.61600  0.93720  0.50420  1.0000
  H   H41       1.0  0.30510  0.10670  0.49290  1.0000
  H   H42       1.0  0.69490  0.89330  0.50710  1.0000
  C   C55       1.0  0.49230  0.09050  0.52370  1.0000
  C   C56       1.0  0.50770  0.90950  0.47630  1.0000
  H   H43       1.0  0.48600  0.15330  0.54030  1.0000
  H   H44       1.0  0.51400  0.84670  0.45970  1.0000
  C   C57       1.0  0.27180  0.93750  0.44200  1.0000
  C   C58       1.0  0.72820  0.06250  0.55800  1.0000
  H   H45       1.0  0.29780  0.90680  0.40300  1.0000
  H   H46       1.0  0.70220  0.09320  0.59700  1.0000
  H   H47       1.0  0.21260  0.00230  0.42420  1.0000
  H   H48       1.0  0.78740  0.99770  0.57580  1.0000
  C   C59       1.0  0.19830  0.85690  0.49240  1.0000
  C   C60       1.0  0.80170  0.14310  0.50760  1.0000
