data_image0
_chemical_formula_structural       U8O64C4H2C2H2C4H2C2H2C2H4C4H4C6H2C2H2C4H2C2H2C2H4C4H4C8H2C2H2C2H2C2H2C2H4C4H4C8H2C2H2C2H2C2H2C2H4C4H4C6H2C2H2C4H2C2H2C2H4C4H4C6H2C2H2C4H2C2H2C2H4C4H4C2
_chemical_formula_sum              "U8 O64 C120 H96"
_cell_length_a       10.9871
_cell_length_b       18.7607
_cell_length_c       25.6024
_cell_angle_alpha    88.907
_cell_angle_beta     85.983
_cell_angle_gamma    74.655

_space_group_name_H-M_alt    "P 1"
_space_group_IT_number       1

loop_
  _space_group_symop_operation_xyz
  'x, y, z'

loop_
  _atom_site_type_symbol
  _atom_site_label
  _atom_site_symmetry_multiplicity
  _atom_site_fract_x
  _atom_site_fract_y
  _atom_site_fract_z
  _atom_site_occupancy
  U   U1        1.0  0.83604  0.00092  0.59864  1.0000
  U   U2        1.0  0.16396  0.99908  0.40136  1.0000
  U   U3        1.0  0.83512  0.44755  0.38110  1.0000
  U   U4        1.0  0.16488  0.55245  0.61890  1.0000
  U   U5        1.0  0.68480  0.07436  0.89612  1.0000
  U   U6        1.0  0.31520  0.92564  0.10388  1.0000
  U   U7        1.0  0.70613  0.49871  0.11120  1.0000
  U   U8        1.0  0.29387  0.50129  0.88880  1.0000
  O   O1        1.0  0.91470  0.95140  0.54230  1.0000
  O   O2        1.0  0.08530  0.04860  0.45770  1.0000
  O   O3        1.0  0.75990  0.05190  0.65440  1.0000
  O   O4        1.0  0.24010  0.94810  0.34560  1.0000
  O   O5        1.0  0.92650  0.37610  0.33950  1.0000
  O   O6        1.0  0.07350  0.62390  0.66050  1.0000
  O   O7        1.0  0.74290  0.51920  0.42350  1.0000
  O   O8        1.0  0.25710  0.48080  0.57650  1.0000
  O   O9        1.0  0.77590  0.99280  0.92580  1.0000
  O   O10       1.0  0.22410  0.00720  0.07420  1.0000
  O   O11       1.0  0.59120  0.15590  0.86720  1.0000
  O   O12       1.0  0.40880  0.84410  0.13280  1.0000
  O   O13       1.0  0.74450  0.44860  0.16970  1.0000
  O   O14       1.0  0.25550  0.55140  0.83030  1.0000
  O   O15       1.0  0.66970  0.54730  0.05280  1.0000
  O   O16       1.0  0.33030  0.45270  0.94720  1.0000
  O   O17       1.0  0.04340  0.00500  0.62340  1.0000
  O   O18       1.0  0.95660  0.99500  0.37660  1.0000
  O   O19       1.0  0.94740  0.09840  0.57560  1.0000
  O   O20       1.0  0.05260  0.90160  0.42440  1.0000
  O   O21       1.0  0.02170  0.45380  0.42540  1.0000
  O   O22       1.0  0.97830  0.54620  0.57460  1.0000
  O   O23       1.0  0.93110  0.36900  0.45440  1.0000
  O   O24       1.0  0.06890  0.63100  0.54560  1.0000
  O   O25       1.0  0.71100  0.10040  0.54240  1.0000
  O   O26       1.0  0.28900  0.89960  0.45760  1.0000
  O   O27       1.0  0.62900  0.00810  0.56370  1.0000
  O   O28       1.0  0.37100  0.99190  0.43630  1.0000
  O   O29       1.0  0.69720  0.36770  0.41830  1.0000
  O   O30       1.0  0.30280  0.63230  0.58170  1.0000
  O   O31       1.0  0.63890  0.43040  0.34700  1.0000
  O   O32       1.0  0.36110  0.56960  0.65300  1.0000
  O   O33       1.0  0.74610  0.89720  0.62430  1.0000
  O   O34       1.0  0.25390  0.10280  0.37570  1.0000
  O   O35       1.0  0.92460  0.89540  0.65890  1.0000
  O   O36       1.0  0.07540  0.10460  0.34110  1.0000
  O   O37       1.0  0.74010  0.02040  0.80960  1.0000
  O   O38       1.0  0.25990  0.97960  0.19040  1.0000
  O   O39       1.0  0.58110  0.98970  0.85200  1.0000
  O   O40       1.0  0.41890  0.01030  0.14800  1.0000
  O   O41       1.0  0.75900  0.52840  0.30820  1.0000
  O   O42       1.0  0.24100  0.47160  0.69180  1.0000
  O   O43       1.0  0.93400  0.54080  0.34040  1.0000
  O   O44       1.0  0.06600  0.45920  0.65960  1.0000
  O   O45       1.0  0.80230  0.59330  0.14220  1.0000
  O   O46       1.0  0.19770  0.40670  0.85780  1.0000
  O   O47       1.0  0.59960  0.61290  0.15930  1.0000
  O   O48       1.0  0.40040  0.38710  0.84070  1.0000
  O   O49       1.0  0.49790  0.06270  0.94990  1.0000
  O   O50       1.0  0.50210  0.93730  0.05010  1.0000
  O   O51       1.0  0.60860  0.13070  0.98180  1.0000
  O   O52       1.0  0.39140  0.86930  0.01820  1.0000
  O   O53       1.0  0.47870  0.50880  0.13180  1.0000
  O   O54       1.0  0.52130  0.49120  0.86820  1.0000
  O   O55       1.0  0.58870  0.40700  0.09100  1.0000
  O   O56       1.0  0.41130  0.59300  0.90900  1.0000
  O   O57       1.0  0.82780  0.15020  0.92900  1.0000
  O   O58       1.0  0.17220  0.84980  0.07100  1.0000
  O   O59       1.0  0.88310  0.09020  0.85470  1.0000
  O   O60       1.0  0.11690  0.90980  0.14530  1.0000
  O   O61       1.0  0.84140  0.39230  0.05740  1.0000
  O   O62       1.0  0.15860  0.60770  0.94260  1.0000
  O   O63       1.0  0.93010  0.47480  0.08480  1.0000
  O   O64       1.0  0.06990  0.52520  0.91520  1.0000
  C   C1        1.0  0.15240  0.16490  0.56740  1.0000
  C   C2        1.0  0.84760  0.83510  0.43260  1.0000
  C   C3        1.0  0.11420  0.22680  0.59810  1.0000
  C   C4        1.0  0.88580  0.77320  0.40190  1.0000
  H   H1        1.0  0.09710  0.22200  0.63470  1.0000
  H   H2        1.0  0.90290  0.77800  0.36530  1.0000
  C   C5        1.0  0.09980  0.29830  0.57560  1.0000
  C   C6        1.0  0.90020  0.70170  0.42440  1.0000
  H   H3        1.0  0.07330  0.34120  0.59700  1.0000
  H   H4        1.0  0.92670  0.65880  0.40300  1.0000
  C   C7        1.0  0.12490  0.30470  0.52200  1.0000
  C   C8        1.0  0.87510  0.69530  0.47800  1.0000
  C   C9        1.0  0.16670  0.24090  0.49200  1.0000
  C   C10       1.0  0.83330  0.75910  0.50800  1.0000
  H   H5        1.0  0.18800  0.24430  0.45560  1.0000
  H   H6        1.0  0.81200  0.75570  0.54440  1.0000
  C   C11       1.0  0.17720  0.17300  0.51470  1.0000
  C   C12       1.0  0.82280  0.82700  0.48530  1.0000
  H   H7        1.0  0.20250  0.13020  0.49320  1.0000
  H   H8        1.0  0.79750  0.86980  0.50680  1.0000
  C   C13       1.0  0.16660  0.08760  0.59140  1.0000
  C   C14       1.0  0.83340  0.91240  0.40860  1.0000
  H   H9        1.0  0.23020  0.05140  0.56930  1.0000
  H   H10       1.0  0.76980  0.94860  0.43070  1.0000
  H   H11       1.0  0.20010  0.08710  0.62640  1.0000
  H   H12       1.0  0.79990  0.91290  0.37360  1.0000
  C   C15       1.0  0.04640  0.06250  0.59740  1.0000
  C   C16       1.0  0.95360  0.93750  0.40260  1.0000
  C   C17       1.0  0.11650  0.37860  0.49710  1.0000
  C   C18       1.0  0.88350  0.62140  0.50290  1.0000
  H   H13       1.0  0.20030  0.37810  0.47990  1.0000
  H   H14       1.0  0.79970  0.62190  0.52010  1.0000
  H   H15       1.0  0.09730  0.41660  0.52490  1.0000
  H   H16       1.0  0.90270  0.58340  0.47510  1.0000
  C   C19       1.0  0.01610  0.40180  0.45600  1.0000
  C   C20       1.0  0.98390  0.59820  0.54400  1.0000
  C   C21       1.0  0.49920  0.17460  0.48400  1.0000
  C   C22       1.0  0.50080  0.82540  0.51600  1.0000
  C   C23       1.0  0.52640  0.16530  0.43070  1.0000
  C   C24       1.0  0.47360  0.83470  0.56930  1.0000
  H   H17       1.0  0.54430  0.11730  0.41590  1.0000
  H   H18       1.0  0.45570  0.88270  0.58410  1.0000
  C   C25       1.0  0.52760  0.22440  0.39920  1.0000
  C   C26       1.0  0.47240  0.77560  0.60080  1.0000
  H   H19       1.0  0.54870  0.21670  0.36270  1.0000
  H   H20       1.0  0.45130  0.78330  0.63730  1.0000
  C   C27       1.0  0.49940  0.29480  0.41860  1.0000
  C   C28       1.0  0.50060  0.70520  0.58140  1.0000
  C   C29       1.0  0.47030  0.30290  0.47220  1.0000
  C   C30       1.0  0.52970  0.69710  0.52780  1.0000
  H   H21       1.0  0.44990  0.35100  0.48710  1.0000
  H   H22       1.0  0.55010  0.64900  0.51290  1.0000
  C   C31       1.0  0.47000  0.24360  0.50430  1.0000
  C   C32       1.0  0.53000  0.75640  0.49570  1.0000
  H   H23       1.0  0.44930  0.25100  0.54080  1.0000
  H   H24       1.0  0.55070  0.74900  0.45920  1.0000
  C   C33       1.0  0.49940  0.10570  0.51810  1.0000
  C   C34       1.0  0.50060  0.89430  0.48190  1.0000
  H   H25       1.0  0.43150  0.11990  0.54650  1.0000
  H   H26       1.0  0.56850  0.88010  0.45350  1.0000
  H   H27       1.0  0.47830  0.06830  0.49620  1.0000
  H   H28       1.0  0.52170  0.93170  0.50380  1.0000
  C   C35       1.0  0.62180  0.07030  0.54260  1.0000
  C   C36       1.0  0.37820  0.92970  0.45740  1.0000
  C   C37       1.0  0.49960  0.36250  0.38440  1.0000
  C   C38       1.0  0.50040  0.63750  0.61560  1.0000
  H   H29       1.0  0.48600  0.35070  0.34810  1.0000
  H   H30       1.0  0.51400  0.64930  0.65190  1.0000
  H   H31       1.0  0.42650  0.40340  0.39670  1.0000
  H   H32       1.0  0.57350  0.59660  0.60330  1.0000
  C   C39       1.0  0.61610  0.39000  0.38310  1.0000
  C   C40       1.0  0.38390  0.61000  0.61690  1.0000
  C   C41       1.0  0.85890  0.80390  0.74630  1.0000
  C   C42       1.0  0.14110  0.19610  0.25370  1.0000
  C   C43       1.0  0.79920  0.85480  0.78610  1.0000
  C   C44       1.0  0.20080  0.14520  0.21390  1.0000
  C   C45       1.0  0.83980  0.84620  0.83580  1.0000
  C   C46       1.0  0.16020  0.15380  0.16420  1.0000
  H   H33       1.0  0.79560  0.87860  0.86300  1.0000
  H   H34       1.0  0.20440  0.12140  0.13700  1.0000
  C   C47       1.0  0.94550  0.79000  0.84630  1.0000
  C   C48       1.0  0.05450  0.21000  0.15370  1.0000
  H   H35       1.0  0.97620  0.78600  0.88030  1.0000
  H   H36       1.0  0.02380  0.21400  0.11970  1.0000
  C   C49       1.0  0.00850  0.73880  0.80750  1.0000
  C   C50       1.0  0.99150  0.26120  0.19250  1.0000
  H   H37       1.0  0.08000  0.69970  0.81500  1.0000
  H   H38       1.0  0.92000  0.30030  0.18500  1.0000
  C   C51       1.0  0.96300  0.74700  0.75810  1.0000
  C   C52       1.0  0.03700  0.25300  0.24190  1.0000
  H   H39       1.0  0.00420  0.71270  0.73140  1.0000
  H   H40       1.0  0.99580  0.28730  0.26860  1.0000
  C   C53       1.0  0.80890  0.80830  0.69170  1.0000
  C   C54       1.0  0.19110  0.19170  0.30830  1.0000
  H   H41       1.0  0.85180  0.76190  0.67280  1.0000
  H   H42       1.0  0.14820  0.23810  0.32720  1.0000
  H   H43       1.0  0.71750  0.81090  0.69570  1.0000
  H   H44       1.0  0.28250  0.18910  0.30430  1.0000
  C   C55       1.0  0.82560  0.87260  0.65800  1.0000
  C   C56       1.0  0.17440  0.12740  0.34200  1.0000
  C   C57       1.0  0.68230  0.91660  0.77560  1.0000
  C   C58       1.0  0.31770  0.08340  0.22440  1.0000
  H   H45       1.0  0.60620  0.89760  0.77930  1.0000
  H   H46       1.0  0.39380  0.10240  0.22070  1.0000
  H   H47       1.0  0.69020  0.93500  0.73930  1.0000
  H   H48       1.0  0.30980  0.06500  0.26070  1.0000
  C   C59       1.0  0.66810  0.98010  0.81450  1.0000
  C   C60       1.0  0.33190  0.01990  0.18550  1.0000
  C   C61       1.0  0.69940  0.68430  0.28210  1.0000
  C   C62       1.0  0.30060  0.31570  0.71790  1.0000
  C   C63       1.0  0.63610  0.72030  0.24000  1.0000
  C   C64       1.0  0.36390  0.27970  0.76000  1.0000
  C   C65       1.0  0.51810  0.76890  0.24840  1.0000
  C   C66       1.0  0.48190  0.23110  0.75160  1.0000
  H   H49       1.0  0.47730  0.79390  0.21920  1.0000
  H   H50       1.0  0.52270  0.20610  0.78080  1.0000
  C   C67       1.0  0.45710  0.78280  0.29750  1.0000
  C   C68       1.0  0.54290  0.21720  0.70250  1.0000
  H   H51       1.0  0.37550  0.81640  0.30200  1.0000
  H   H52       1.0  0.62450  0.18360  0.69800  1.0000
  C   C69       1.0  0.51640  0.74700  0.33990  1.0000
  C   C70       1.0  0.48360  0.25300  0.66010  1.0000
  H   H53       1.0  0.47540  0.75500  0.37400  1.0000
  H   H54       1.0  0.52460  0.24500  0.62600  1.0000
  C   C71       1.0  0.63660  0.69930  0.33260  1.0000
  C   C72       1.0  0.36340  0.30070  0.66740  1.0000
  H   H55       1.0  0.67780  0.67590  0.36220  1.0000
  H   H56       1.0  0.32220  0.32410  0.63780  1.0000
  C   C73       1.0  0.83020  0.63350  0.27680  1.0000
  C   C74       1.0  0.16980  0.36650  0.72320  1.0000
  H   H57       1.0  0.89140  0.66010  0.28720  1.0000
  H   H58       1.0  0.10860  0.33990  0.71280  1.0000
  H   H59       1.0  0.85170  0.61880  0.23970  1.0000
  H   H60       1.0  0.14830  0.38120  0.76030  1.0000
  C   C75       1.0  0.84260  0.56350  0.31090  1.0000
  C   C76       1.0  0.15740  0.43650  0.68910  1.0000
  C   C77       1.0  0.69550  0.70780  0.18420  1.0000
  C   C78       1.0  0.30450  0.29220  0.81580  1.0000
  H   H61       1.0  0.64790  0.74740  0.16160  1.0000
  H   H62       1.0  0.35210  0.25260  0.83840  1.0000
  H   H63       1.0  0.78330  0.71240  0.18370  1.0000
  H   H64       1.0  0.21670  0.28760  0.81630  1.0000
  C   C79       1.0  0.69820  0.63410  0.16110  1.0000
  C   C80       1.0  0.30180  0.36590  0.83890  1.0000
  C   C81       1.0  0.40900  0.20070  0.05420  1.0000
  C   C82       1.0  0.59100  0.79930  0.94580  1.0000
  C   C83       1.0  0.38880  0.26420  0.02380  1.0000
  C   C84       1.0  0.61120  0.73580  0.97620  1.0000
  H   H65       1.0  0.38090  0.26070  0.98730  1.0000
  H   H66       1.0  0.61910  0.73930  0.01270  1.0000
  C   C85       1.0  0.38000  0.33230  0.04530  1.0000
  C   C86       1.0  0.62000  0.66770  0.95470  1.0000
  H   H67       1.0  0.37070  0.37430  0.02310  1.0000
  H   H68       1.0  0.62930  0.62570  0.97690  1.0000
  C   C87       1.0  0.38440  0.34030  0.09800  1.0000
  C   C88       1.0  0.61560  0.65970  0.90200  1.0000
  C   C89       1.0  0.40050  0.27720  0.12990  1.0000
  C   C90       1.0  0.59950  0.72280  0.87010  1.0000
  H   H69       1.0  0.40130  0.28170  0.16670  1.0000
  H   H70       1.0  0.59870  0.71830  0.83330  1.0000
  C   C91       1.0  0.41530  0.20820  0.10760  1.0000
  C   C92       1.0  0.58470  0.79180  0.89240  1.0000
  H   H71       1.0  0.42990  0.16560  0.12930  1.0000
  H   H72       1.0  0.57010  0.83440  0.87070  1.0000
  C   C93       1.0  0.41450  0.12620  0.03000  1.0000
  C   C94       1.0  0.58550  0.87380  0.97000  1.0000
  H   H73       1.0  0.43380  0.08740  0.05720  1.0000
  H   H74       1.0  0.56620  0.91260  0.94280  1.0000
  H   H75       1.0  0.33050  0.12750  0.01770  1.0000
  H   H76       1.0  0.66950  0.87250  0.98230  1.0000
  C   C95       1.0  0.51270  0.10620  0.98480  1.0000
  C   C96       1.0  0.48730  0.89380  0.01520  1.0000
  C   C97       1.0  0.37260  0.41450  0.12170  1.0000
  C   C98       1.0  0.62740  0.58550  0.87830  1.0000
  H   H77       1.0  0.29580  0.44910  0.10890  1.0000
  H   H78       1.0  0.70420  0.55090  0.89110  1.0000
  H   H79       1.0  0.35740  0.40990  0.16000  1.0000
  H   H80       1.0  0.64260  0.59010  0.84000  1.0000
  C   C99       1.0  0.47890  0.44970  0.11240  1.0000
  C   C100      1.0  0.52110  0.55030  0.88760  1.0000
  C   C101      1.0  0.03550  0.21530  0.91930  1.0000
  C   C102      1.0  0.96450  0.78470  0.08070  1.0000
  C   C103      1.0  0.08030  0.19450  0.96930  1.0000
  C   C104      1.0  0.91970  0.80550  0.03070  1.0000
  H   H81       1.0  0.10290  0.14390  0.97940  1.0000
  H   H82       1.0  0.89710  0.85610  0.02060  1.0000
  C   C105      1.0  0.09070  0.24900  0.00360  1.0000
  C   C106      1.0  0.90930  0.75100  0.99640  1.0000
  H   H83       1.0  0.12190  0.23470  0.03690  1.0000
  H   H84       1.0  0.87810  0.76530  0.96310  1.0000
  C   C107      1.0  0.05760  0.32220  0.99090  1.0000
  C   C108      1.0  0.94240  0.67780  0.00910  1.0000
  C   C109      1.0  0.01260  0.34360  0.94180  1.0000
  C   C110      1.0  0.98740  0.65640  0.05820  1.0000
  H   H85       1.0  0.98790  0.39440  0.93250  1.0000
  H   H86       1.0  0.01210  0.60560  0.06750  1.0000
  C   C111      1.0  0.00420  0.28940  0.90640  1.0000
  C   C112      1.0  0.99580  0.71060  0.09360  1.0000
  H   H87       1.0  0.97620  0.30400  0.87260  1.0000
  H   H88       1.0  0.02380  0.69600  0.12740  1.0000
  C   C113      1.0  0.02340  0.15790  0.88200  1.0000
  C   C114      1.0  0.97660  0.84210  0.11800  1.0000
  H   H89       1.0  0.09860  0.11520  0.88390  1.0000
  H   H90       1.0  0.90140  0.88480  0.11610  1.0000
  H   H91       1.0  0.02530  0.17830  0.84620  1.0000
  H   H92       1.0  0.97470  0.82170  0.15380  1.0000
  C   C115      1.0  0.90720  0.12990  0.89030  1.0000
  C   C116      1.0  0.09280  0.87010  0.10970  1.0000
  C   C117      1.0  0.06560  0.38100  0.03000  1.0000
  C   C118      1.0  0.93440  0.61900  0.97000  1.0000
  H   H93       1.0  0.12670  0.35790  0.05600  1.0000
  H   H94       1.0  0.87330  0.64210  0.94400  1.0000
  H   H95       1.0  0.09870  0.41930  0.01110  1.0000
  H   H96       1.0  0.90130  0.58070  0.98890  1.0000
  C   C119      1.0  0.94050  0.41780  0.05850  1.0000
  C   C120      1.0  0.05950  0.58220  0.94150  1.0000
