data_image0
_chemical_formula_structural       U4O32C8H4C4H4C8H4C4H4C4H8C8H8C12H4C4H4C4H8C4
_chemical_formula_sum              "U4 O32 C60 H48"
_cell_length_a       11.2905
_cell_length_b       22.4381
_cell_length_c       13.5908
_cell_angle_alpha    90
_cell_angle_beta     104.129
_cell_angle_gamma    90

_space_group_name_H-M_alt    "P 1"
_space_group_IT_number       1

loop_
  _space_group_symop_operation_xyz
  'x, y, z'

loop_
  _atom_site_type_symbol
  _atom_site_label
  _atom_site_symmetry_multiplicity
  _atom_site_fract_x
  _atom_site_fract_y
  _atom_site_fract_z
  _atom_site_occupancy
  U   U1        1.0  0.66468  0.30837  0.24660  1.0000
  U   U2        1.0  0.83532  0.80837  0.25340  1.0000
  U   U3        1.0  0.33532  0.69163  0.75340  1.0000
  U   U4        1.0  0.16468  0.19163  0.74660  1.0000
  O   O1        1.0  0.70330  0.33732  0.13766  1.0000
  O   O2        1.0  0.79670  0.83732  0.36234  1.0000
  O   O3        1.0  0.29670  0.66268  0.86234  1.0000
  O   O4        1.0  0.20330  0.16268  0.63766  1.0000
  O   O5        1.0  0.62240  0.28043  0.35457  1.0000
  O   O6        1.0  0.87760  0.78043  0.14543  1.0000
  O   O7        1.0  0.37760  0.71957  0.64543  1.0000
  O   O8        1.0  0.12240  0.21957  0.85457  1.0000
  O   O9        1.0  0.44970  0.31843  0.15350  1.0000
  O   O10       1.0  0.05030  0.81843  0.34650  1.0000
  O   O11       1.0  0.55030  0.68157  0.84650  1.0000
  O   O12       1.0  0.94970  0.18157  0.65350  1.0000
  O   O13       1.0  0.53290  0.23117  0.14542  1.0000
  O   O14       1.0  0.96710  0.73117  0.35458  1.0000
  O   O15       1.0  0.46710  0.76883  0.85458  1.0000
  O   O16       1.0  0.03290  0.26883  0.64542  1.0000
  O   O17       1.0  0.77900  0.21443  0.23826  1.0000
  O   O18       1.0  0.72100  0.71443  0.26174  1.0000
  O   O19       1.0  0.22100  0.78557  0.76174  1.0000
  O   O20       1.0  0.27900  0.28557  0.73826  1.0000
  O   O21       1.0  0.88070  0.28582  0.33017  1.0000
  O   O22       1.0  0.61930  0.78582  0.16983  1.0000
  O   O23       1.0  0.11930  0.71418  0.66983  1.0000
  O   O24       1.0  0.38070  0.21418  0.83017  1.0000
  O   O25       1.0  0.77610  0.39124  0.34840  1.0000
  O   O26       1.0  0.72390  0.89124  0.15160  1.0000
  O   O27       1.0  0.22390  0.60876  0.65160  1.0000
  O   O28       1.0  0.27610  0.10876  0.84840  1.0000
  O   O29       1.0  0.58080  0.40497  0.28450  1.0000
  O   O30       1.0  0.91920  0.90497  0.21550  1.0000
  O   O31       1.0  0.41920  0.59503  0.71550  1.0000
  O   O32       1.0  0.08080  0.09503  0.78450  1.0000
  C   C1        1.0  0.23610  0.22600  0.14340  1.0000
  C   C2        1.0  0.26390  0.72600  0.35660  1.0000
  C   C3        1.0  0.76390  0.77400  0.85660  1.0000
  C   C4        1.0  0.73610  0.27400  0.64340  1.0000
  C   C5        1.0  0.24340  0.25820  0.23190  1.0000
  C   C6        1.0  0.25660  0.75820  0.26810  1.0000
  C   C7        1.0  0.75660  0.74180  0.76810  1.0000
  C   C8        1.0  0.74340  0.24180  0.73190  1.0000
  H   H1        1.0  0.30280  0.28880  0.25040  1.0000
  H   H2        1.0  0.19720  0.78880  0.24960  1.0000
  H   H3        1.0  0.69720  0.71120  0.74960  1.0000
  H   H4        1.0  0.80280  0.21120  0.75040  1.0000
  C   C9        1.0  0.16520  0.24630  0.29350  1.0000
  C   C10       1.0  0.33480  0.74630  0.20650  1.0000
  C   C11       1.0  0.83480  0.75370  0.70650  1.0000
  C   C12       1.0  0.66520  0.25370  0.79350  1.0000
  H   H5        1.0  0.17260  0.26840  0.35430  1.0000
  H   H6        1.0  0.32740  0.76840  0.14570  1.0000
  H   H7        1.0  0.82740  0.73160  0.64570  1.0000
  H   H8        1.0  0.67260  0.23160  0.85430  1.0000
  C   C13       1.0  0.07610  0.20260  0.26820  1.0000
  C   C14       1.0  0.42390  0.70260  0.23180  1.0000
  C   C15       1.0  0.92390  0.79740  0.73180  1.0000
  C   C16       1.0  0.57610  0.29740  0.76820  1.0000
  C   C17       1.0  0.07080  0.16980  0.18070  1.0000
  C   C18       1.0  0.42920  0.66980  0.31930  1.0000
  C   C19       1.0  0.92920  0.83020  0.81930  1.0000
  C   C20       1.0  0.57080  0.33020  0.68070  1.0000
  H   H9        1.0  0.01270  0.13860  0.16320  1.0000
  H   H10       1.0  0.48730  0.63860  0.33680  1.0000
  H   H11       1.0  0.98730  0.86140  0.83680  1.0000
  H   H12       1.0  0.51270  0.36140  0.66320  1.0000
  C   C21       1.0  0.14840  0.18176  0.11850  1.0000
  C   C22       1.0  0.35160  0.68176  0.38150  1.0000
  C   C23       1.0  0.85160  0.81824  0.88150  1.0000
  C   C24       1.0  0.64840  0.31824  0.61850  1.0000
  H   H13       1.0  0.14140  0.15930  0.05810  1.0000
  H   H14       1.0  0.35860  0.65930  0.44190  1.0000
  H   H15       1.0  0.85860  0.84070  0.94190  1.0000
  H   H16       1.0  0.64140  0.34070  0.55810  1.0000
  C   C25       1.0  0.31660  0.24030  0.07090  1.0000
  C   C26       1.0  0.18340  0.74030  0.42910  1.0000
  C   C27       1.0  0.68340  0.75970  0.92910  1.0000
  C   C28       1.0  0.81660  0.25970  0.57090  1.0000
  H   H17       1.0  0.32830  0.20370  0.03380  1.0000
  H   H18       1.0  0.17170  0.70370  0.46620  1.0000
  H   H19       1.0  0.67170  0.79630  0.96620  1.0000
  H   H20       1.0  0.82830  0.29630  0.53380  1.0000
  H   H21       1.0  0.27460  0.27000  0.02050  1.0000
  H   H22       1.0  0.22540  0.77000  0.47950  1.0000
  H   H23       1.0  0.72540  0.73000  0.97950  1.0000
  H   H24       1.0  0.77460  0.23000  0.52050  1.0000
  C   C29       1.0  0.44050  0.26460  0.12610  1.0000
  C   C30       1.0  0.05950  0.76460  0.37390  1.0000
  C   C31       1.0  0.55950  0.73540  0.87390  1.0000
  C   C32       1.0  0.94050  0.23540  0.62610  1.0000
  C   C33       1.0  0.98520  0.19241  0.33280  1.0000
  C   C34       1.0  0.51480  0.69241  0.16720  1.0000
  C   C35       1.0  0.01480  0.80759  0.66720  1.0000
  C   C36       1.0  0.48520  0.30759  0.83280  1.0000
  H   H25       1.0  0.95790  0.15030  0.32670  1.0000
  H   H26       1.0  0.54210  0.65030  0.17330  1.0000
  H   H27       1.0  0.04210  0.84970  0.67330  1.0000
  H   H28       1.0  0.45790  0.34970  0.82670  1.0000
  H   H29       1.0  0.02520  0.20030  0.40490  1.0000
  H   H30       1.0  0.47480  0.70030  0.09510  1.0000
  H   H31       1.0  0.97480  0.79970  0.59510  1.0000
  H   H32       1.0  0.52520  0.29970  0.90490  1.0000
  C   C37       1.0  0.87540  0.23330  0.29850  1.0000
  C   C38       1.0  0.62460  0.73330  0.20150  1.0000
  C   C39       1.0  0.12460  0.76670  0.70150  1.0000
  C   C40       1.0  0.37540  0.26670  0.79850  1.0000
  C   C41       1.0  0.59150  0.49140  0.44790  1.0000
  C   C42       1.0  0.90850  0.99140  0.05210  1.0000
  C   C43       1.0  0.40850  0.50860  0.55210  1.0000
  C   C44       1.0  0.09150  0.00860  0.94790  1.0000
  C   C45       1.0  0.60800  0.47370  0.54750  1.0000
  C   C46       1.0  0.89200  0.97370  0.95250  1.0000
  C   C47       1.0  0.39200  0.52630  0.45250  1.0000
  C   C48       1.0  0.10800  0.02630  0.04750  1.0000
  H   H33       1.0  0.68290  0.45540  0.58110  1.0000
  H   H34       1.0  0.81710  0.95540  0.91890  1.0000
  H   H35       1.0  0.31710  0.54460  0.41890  1.0000
  H   H36       1.0  0.18290  0.04460  0.08110  1.0000
  C   C49       1.0  0.51820  0.48190  0.59960  1.0000
  C   C50       1.0  0.98180  0.98190  0.90040  1.0000
  C   C51       1.0  0.48180  0.51810  0.40040  1.0000
  C   C52       1.0  0.01820  0.01810  0.09960  1.0000
  H   H37       1.0  0.53180  0.46920  0.66810  1.0000
  H   H38       1.0  0.96820  0.96920  0.83190  1.0000
  H   H39       1.0  0.46820  0.53080  0.33190  1.0000
  H   H40       1.0  0.03180  0.03080  0.16810  1.0000
  C   C53       1.0  0.69030  0.48180  0.39180  1.0000
  C   C54       1.0  0.80970  0.98180  0.10820  1.0000
  C   C55       1.0  0.30970  0.51820  0.60820  1.0000
  C   C56       1.0  0.19030  0.01820  0.89180  1.0000
  H   H41       1.0  0.68540  0.51400  0.34120  1.0000
  H   H42       1.0  0.81460  0.01400  0.15880  1.0000
  H   H43       1.0  0.31460  0.48600  0.65880  1.0000
  H   H44       1.0  0.18540  0.98600  0.84120  1.0000
  H   H45       1.0  0.77090  0.48470  0.44070  1.0000
  H   H46       1.0  0.72910  0.98470  0.05930  1.0000
  H   H47       1.0  0.22910  0.51530  0.55930  1.0000
  H   H48       1.0  0.27090  0.01530  0.94070  1.0000
  C   C57       1.0  0.68170  0.42260  0.33840  1.0000
  C   C58       1.0  0.81830  0.92260  0.16160  1.0000
  C   C59       1.0  0.31830  0.57740  0.66160  1.0000
  C   C60       1.0  0.18170  0.07740  0.83840  1.0000
