data_image0
_chemical_formula_structural       Zn8Na8C24H8C8H8C8H8C40H8C16H8C16H8C24H8C8H24C8H24O80N8
_chemical_formula_sum              "Zn8 Na8 C152 H104 O80 N8"
_cell_length_a       15.1153
_cell_length_b       14.8786
_cell_length_c       21.8613
_cell_angle_alpha    90
_cell_angle_beta     90.895
_cell_angle_gamma    90

_space_group_name_H-M_alt    "P 1"
_space_group_IT_number       1

loop_
  _space_group_symop_operation_xyz
  'x, y, z'

loop_
  _atom_site_type_symbol
  _atom_site_label
  _atom_site_symmetry_multiplicity
  _atom_site_fract_x
  _atom_site_fract_y
  _atom_site_fract_z
  _atom_site_occupancy
  Zn  Zn1       1.0  0.27393  0.31487  0.37613  1.0000
  Zn  Zn2       1.0  0.72607  0.31487  0.12387  1.0000
  Zn  Zn3       1.0  0.77393  0.81487  0.37613  1.0000
  Zn  Zn4       1.0  0.22607  0.81487  0.12387  1.0000
  Zn  Zn5       1.0  0.72607  0.68513  0.62387  1.0000
  Zn  Zn6       1.0  0.27393  0.68513  0.87613  1.0000
  Zn  Zn7       1.0  0.22607  0.18513  0.62387  1.0000
  Zn  Zn8       1.0  0.77393  0.18513  0.87613  1.0000
  Na  Na1       1.0  0.25283  0.37308  0.51787  1.0000
  Na  Na2       1.0  0.74717  0.37308  0.98213  1.0000
  Na  Na3       1.0  0.75283  0.87308  0.51787  1.0000
  Na  Na4       1.0  0.24717  0.87308  0.98213  1.0000
  Na  Na5       1.0  0.74717  0.62692  0.48213  1.0000
  Na  Na6       1.0  0.25283  0.62692  0.01787  1.0000
  Na  Na7       1.0  0.24717  0.12692  0.48213  1.0000
  Na  Na8       1.0  0.75283  0.12692  0.01787  1.0000
  C   C1        1.0  0.48110  0.26550  0.50509  1.0000
  C   C2        1.0  0.51890  0.26550  0.99491  1.0000
  C   C3        1.0  0.98110  0.76550  0.50509  1.0000
  C   C4        1.0  0.01890  0.76550  0.99491  1.0000
  C   C5        1.0  0.51890  0.73450  0.49491  1.0000
  C   C6        1.0  0.48110  0.73450  0.00509  1.0000
  C   C7        1.0  0.01890  0.23450  0.49491  1.0000
  C   C8        1.0  0.98110  0.23450  0.00509  1.0000
  C   C9        1.0  0.47490  0.26000  0.56897  1.0000
  C   C10       1.0  0.52510  0.26000  0.93103  1.0000
  C   C11       1.0  0.97490  0.76000  0.56897  1.0000
  C   C12       1.0  0.02510  0.76000  0.93103  1.0000
  C   C13       1.0  0.52510  0.74000  0.43103  1.0000
  C   C14       1.0  0.47490  0.74000  0.06897  1.0000
  C   C15       1.0  0.02510  0.24000  0.43103  1.0000
  C   C16       1.0  0.97490  0.24000  0.06897  1.0000
  C   C17       1.0  0.54950  0.27530  0.60501  1.0000
  C   C18       1.0  0.45050  0.27530  0.89499  1.0000
  C   C19       1.0  0.04950  0.77530  0.60501  1.0000
  C   C20       1.0  0.95050  0.77530  0.89499  1.0000
  C   C21       1.0  0.45050  0.72470  0.39499  1.0000
  C   C22       1.0  0.54950  0.72470  0.10501  1.0000
  C   C23       1.0  0.95050  0.22470  0.39499  1.0000
  C   C24       1.0  0.04950  0.22470  0.10501  1.0000
  H   H1        1.0  0.54560  0.27090  0.64730  1.0000
  H   H2        1.0  0.45440  0.27090  0.85270  1.0000
  H   H3        1.0  0.04560  0.77090  0.64730  1.0000
  H   H4        1.0  0.95440  0.77090  0.85270  1.0000
  H   H5        1.0  0.45440  0.72910  0.35270  1.0000
  H   H6        1.0  0.54560  0.72910  0.14730  1.0000
  H   H7        1.0  0.95440  0.22910  0.35270  1.0000
  H   H8        1.0  0.04560  0.22910  0.14730  1.0000
  C   C25       1.0  0.62880  0.29700  0.57940  1.0000
  C   C26       1.0  0.37120  0.29700  0.92060  1.0000
  C   C27       1.0  0.12880  0.79700  0.57940  1.0000
  C   C28       1.0  0.87120  0.79700  0.92060  1.0000
  C   C29       1.0  0.37120  0.70300  0.42060  1.0000
  C   C30       1.0  0.62880  0.70300  0.07940  1.0000
  C   C31       1.0  0.87120  0.20300  0.42060  1.0000
  C   C32       1.0  0.12880  0.20300  0.07940  1.0000
  H   H9        1.0  0.67780  0.30840  0.60440  1.0000
  H   H10       1.0  0.32220  0.30840  0.89560  1.0000
  H   H11       1.0  0.17780  0.80840  0.60440  1.0000
  H   H12       1.0  0.82220  0.80840  0.89560  1.0000
  H   H13       1.0  0.32220  0.69160  0.39560  1.0000
  H   H14       1.0  0.67780  0.69160  0.10440  1.0000
  H   H15       1.0  0.82220  0.19160  0.39560  1.0000
  H   H16       1.0  0.17780  0.19160  0.10440  1.0000
  C   C33       1.0  0.63620  0.30200  0.51690  1.0000
  C   C34       1.0  0.36380  0.30200  0.98310  1.0000
  C   C35       1.0  0.13620  0.80200  0.51690  1.0000
  C   C36       1.0  0.86380  0.80200  0.98310  1.0000
  C   C37       1.0  0.36380  0.69800  0.48310  1.0000
  C   C38       1.0  0.63620  0.69800  0.01690  1.0000
  C   C39       1.0  0.86380  0.19800  0.48310  1.0000
  C   C40       1.0  0.13620  0.19800  0.01690  1.0000
  H   H17       1.0  0.68990  0.31660  0.49930  1.0000
  H   H18       1.0  0.31010  0.31660  0.00070  1.0000
  H   H19       1.0  0.18990  0.81660  0.49930  1.0000
  H   H20       1.0  0.81010  0.81660  0.00070  1.0000
  H   H21       1.0  0.31010  0.68340  0.50070  1.0000
  H   H22       1.0  0.68990  0.68340  0.99930  1.0000
  H   H23       1.0  0.81010  0.18340  0.50070  1.0000
  H   H24       1.0  0.18990  0.18340  0.99930  1.0000
  C   C41       1.0  0.56260  0.28490  0.48057  1.0000
  C   C42       1.0  0.43740  0.28490  0.01943  1.0000
  C   C43       1.0  0.06260  0.78490  0.48057  1.0000
  C   C44       1.0  0.93740  0.78490  0.01943  1.0000
  C   C45       1.0  0.43740  0.71510  0.51943  1.0000
  C   C46       1.0  0.56260  0.71510  0.98057  1.0000
  C   C47       1.0  0.93740  0.21510  0.51943  1.0000
  C   C48       1.0  0.06260  0.21510  0.98057  1.0000
  C   C49       1.0  0.40440  0.24980  0.46126  1.0000
  C   C50       1.0  0.59560  0.24980  0.03874  1.0000
  C   C51       1.0  0.90440  0.74980  0.46126  1.0000
  C   C52       1.0  0.09560  0.74980  0.03874  1.0000
  C   C53       1.0  0.59560  0.75020  0.53874  1.0000
  C   C54       1.0  0.40440  0.75020  0.96126  1.0000
  C   C55       1.0  0.09560  0.25020  0.53874  1.0000
  C   C56       1.0  0.90440  0.25020  0.96126  1.0000
  C   C57       1.0  0.38980  0.23560  0.59998  1.0000
  C   C58       1.0  0.61020  0.23560  0.90002  1.0000
  C   C59       1.0  0.88980  0.73560  0.59998  1.0000
  C   C60       1.0  0.11020  0.73560  0.90002  1.0000
  C   C61       1.0  0.61020  0.76440  0.40002  1.0000
  C   C62       1.0  0.38980  0.76440  0.09998  1.0000
  C   C63       1.0  0.11020  0.26440  0.40002  1.0000
  C   C64       1.0  0.88980  0.26440  0.09998  1.0000
  C   C65       1.0  0.61070  0.22750  0.38422  1.0000
  C   C66       1.0  0.38930  0.22750  0.11578  1.0000
  C   C67       1.0  0.11070  0.72750  0.38422  1.0000
  C   C68       1.0  0.88930  0.72750  0.11578  1.0000
  C   C69       1.0  0.38930  0.77250  0.61578  1.0000
  C   C70       1.0  0.61070  0.77250  0.88422  1.0000
  C   C71       1.0  0.88930  0.27250  0.61578  1.0000
  C   C72       1.0  0.11070  0.27250  0.88422  1.0000
  C   C73       1.0  0.63620  0.14550  0.40848  1.0000
  C   C74       1.0  0.36380  0.14550  0.09152  1.0000
  C   C75       1.0  0.13620  0.64550  0.40848  1.0000
  C   C76       1.0  0.86380  0.64550  0.09152  1.0000
  C   C77       1.0  0.36380  0.85450  0.59152  1.0000
  C   C78       1.0  0.63620  0.85450  0.90848  1.0000
  C   C79       1.0  0.86380  0.35450  0.59152  1.0000
  C   C80       1.0  0.13620  0.35450  0.90848  1.0000
  H   H25       1.0  0.62530  0.13210  0.44920  1.0000
  H   H26       1.0  0.37470  0.13210  0.05080  1.0000
  H   H27       1.0  0.12530  0.63210  0.44920  1.0000
  H   H28       1.0  0.87470  0.63210  0.05080  1.0000
  H   H29       1.0  0.37470  0.86790  0.55080  1.0000
  H   H30       1.0  0.62530  0.86790  0.94920  1.0000
  H   H31       1.0  0.87470  0.36790  0.55080  1.0000
  H   H32       1.0  0.12530  0.36790  0.94920  1.0000
  C   C81       1.0  0.67850  0.08290  0.37134  1.0000
  C   C82       1.0  0.32150  0.08290  0.12866  1.0000
  C   C83       1.0  0.17850  0.58290  0.37134  1.0000
  C   C84       1.0  0.82150  0.58290  0.12866  1.0000
  C   C85       1.0  0.32150  0.91710  0.62866  1.0000
  C   C86       1.0  0.67850  0.91710  0.87134  1.0000
  C   C87       1.0  0.82150  0.41710  0.62866  1.0000
  C   C88       1.0  0.17850  0.41710  0.87134  1.0000
  C   C89       1.0  0.69420  0.10400  0.31076  1.0000
  C   C90       1.0  0.30580  0.10400  0.18924  1.0000
  C   C91       1.0  0.19420  0.60400  0.31076  1.0000
  C   C92       1.0  0.80580  0.60400  0.18924  1.0000
  C   C93       1.0  0.30580  0.89600  0.68924  1.0000
  C   C94       1.0  0.69420  0.89600  0.81076  1.0000
  C   C95       1.0  0.80580  0.39600  0.68924  1.0000
  C   C96       1.0  0.19420  0.39600  0.81076  1.0000
  H   H33       1.0  0.72260  0.06240  0.28600  1.0000
  H   H34       1.0  0.27740  0.06240  0.21400  1.0000
  H   H35       1.0  0.22260  0.56240  0.28600  1.0000
  H   H36       1.0  0.77740  0.56240  0.21400  1.0000
  H   H37       1.0  0.27740  0.93760  0.71400  1.0000
  H   H38       1.0  0.72260  0.93760  0.78600  1.0000
  H   H39       1.0  0.77740  0.43760  0.71400  1.0000
  H   H40       1.0  0.22260  0.43760  0.78600  1.0000
  C   C97       1.0  0.66830  0.18620  0.28642  1.0000
  C   C98       1.0  0.33170  0.18620  0.21358  1.0000
  C   C99       1.0  0.16830  0.68620  0.28642  1.0000
  C   C100      1.0  0.83170  0.68620  0.21358  1.0000
  C   C101      1.0  0.33170  0.81380  0.71358  1.0000
  C   C102      1.0  0.66830  0.81380  0.78642  1.0000
  C   C103      1.0  0.83170  0.31380  0.71358  1.0000
  C   C104      1.0  0.16830  0.31380  0.78642  1.0000
  C   C105      1.0  0.62690  0.24860  0.32379  1.0000
  C   C106      1.0  0.37310  0.24860  0.17621  1.0000
  C   C107      1.0  0.12690  0.74860  0.32379  1.0000
  C   C108      1.0  0.87310  0.74860  0.17621  1.0000
  C   C109      1.0  0.37310  0.75140  0.67621  1.0000
  C   C110      1.0  0.62690  0.75140  0.82379  1.0000
  C   C111      1.0  0.87310  0.25140  0.67621  1.0000
  C   C112      1.0  0.12690  0.25140  0.82379  1.0000
  H   H41       1.0  0.61030  0.30440  0.30820  1.0000
  H   H42       1.0  0.38970  0.30440  0.19180  1.0000
  H   H43       1.0  0.11030  0.80440  0.30820  1.0000
  H   H44       1.0  0.88970  0.80440  0.19180  1.0000
  H   H45       1.0  0.38970  0.69560  0.69180  1.0000
  H   H46       1.0  0.61030  0.69560  0.80820  1.0000
  H   H47       1.0  0.88970  0.19560  0.69180  1.0000
  H   H48       1.0  0.11030  0.19560  0.80820  1.0000
  C   C113      1.0  0.70800  0.99370  0.39727  1.0000
  C   C114      1.0  0.29200  0.99370  0.10273  1.0000
  C   C115      1.0  0.20800  0.49370  0.39727  1.0000
  C   C116      1.0  0.79200  0.49370  0.10273  1.0000
  C   C117      1.0  0.29200  0.00630  0.60273  1.0000
  C   C118      1.0  0.70800  0.00630  0.89727  1.0000
  C   C119      1.0  0.79200  0.50630  0.60273  1.0000
  C   C120      1.0  0.20800  0.50630  0.89727  1.0000
  C   C121      1.0  0.68870  0.20840  0.22065  1.0000
  C   C122      1.0  0.31130  0.20840  0.27935  1.0000
  C   C123      1.0  0.18870  0.70840  0.22065  1.0000
  C   C124      1.0  0.81130  0.70840  0.27935  1.0000
  C   C125      1.0  0.31130  0.79160  0.77935  1.0000
  C   C126      1.0  0.68870  0.79160  0.72065  1.0000
  C   C127      1.0  0.81130  0.29160  0.77935  1.0000
  C   C128      1.0  0.18870  0.29160  0.72065  1.0000
  C   C129      1.0  0.40890  0.49350  0.58380  1.0000
  C   C130      1.0  0.59110  0.49350  0.91620  1.0000
  C   C131      1.0  0.90890  0.99350  0.58380  1.0000
  C   C132      1.0  0.09110  0.99350  0.91620  1.0000
  C   C133      1.0  0.59110  0.50650  0.41620  1.0000
  C   C134      1.0  0.40890  0.50650  0.08380  1.0000
  C   C135      1.0  0.09110  0.00650  0.41620  1.0000
  C   C136      1.0  0.90890  0.00650  0.08380  1.0000
  H   H49       1.0  0.44040  0.51000  0.54930  1.0000
  H   H50       1.0  0.55960  0.51000  0.95070  1.0000
  H   H51       1.0  0.94040  0.01000  0.54930  1.0000
  H   H52       1.0  0.05960  0.01000  0.95070  1.0000
  H   H53       1.0  0.55960  0.49000  0.45070  1.0000
  H   H54       1.0  0.44040  0.49000  0.04930  1.0000
  H   H55       1.0  0.05960  0.99000  0.45070  1.0000
  H   H56       1.0  0.94040  0.99000  0.04930  1.0000
  C   C137      1.0  0.40150  0.46130  0.69060  1.0000
  C   C138      1.0  0.59850  0.46130  0.80940  1.0000
  C   C139      1.0  0.90150  0.96130  0.69060  1.0000
  C   C140      1.0  0.09850  0.96130  0.80940  1.0000
  C   C141      1.0  0.59850  0.53870  0.30940  1.0000
  C   C142      1.0  0.40150  0.53870  0.19060  1.0000
  C   C143      1.0  0.09850  0.03870  0.30940  1.0000
  C   C144      1.0  0.90150  0.03870  0.19060  1.0000
  H   H57       1.0  0.34290  0.44080  0.68030  1.0000
  H   H58       1.0  0.65710  0.44080  0.81970  1.0000
  H   H59       1.0  0.84290  0.94080  0.68030  1.0000
  H   H60       1.0  0.15710  0.94080  0.81970  1.0000
  H   H61       1.0  0.65710  0.55920  0.31970  1.0000
  H   H62       1.0  0.34290  0.55920  0.18030  1.0000
  H   H63       1.0  0.15710  0.05920  0.31970  1.0000
  H   H64       1.0  0.84290  0.05920  0.18030  1.0000
  H   H65       1.0  0.39800  0.51030  0.71900  1.0000
  H   H66       1.0  0.60200  0.51030  0.78100  1.0000
  H   H67       1.0  0.89800  0.01030  0.71900  1.0000
  H   H68       1.0  0.10200  0.01030  0.78100  1.0000
  H   H69       1.0  0.60200  0.48970  0.28100  1.0000
  H   H70       1.0  0.39800  0.48970  0.21900  1.0000
  H   H71       1.0  0.10200  0.98970  0.28100  1.0000
  H   H72       1.0  0.89800  0.98970  0.21900  1.0000
  H   H73       1.0  0.43460  0.41290  0.70890  1.0000
  H   H74       1.0  0.56540  0.41290  0.79110  1.0000
  H   H75       1.0  0.93460  0.91290  0.70890  1.0000
  H   H76       1.0  0.06540  0.91290  0.79110  1.0000
  H   H77       1.0  0.56540  0.58710  0.29110  1.0000
  H   H78       1.0  0.43460  0.58710  0.20890  1.0000
  H   H79       1.0  0.06540  0.08710  0.29110  1.0000
  H   H80       1.0  0.93460  0.08710  0.20890  1.0000
  C   C145      1.0  0.53570  0.52200  0.64690  1.0000
  C   C146      1.0  0.46430  0.52200  0.85310  1.0000
  C   C147      1.0  0.03570  0.02200  0.64690  1.0000
  C   C148      1.0  0.96430  0.02200  0.85310  1.0000
  C   C149      1.0  0.46430  0.47800  0.35310  1.0000
  C   C150      1.0  0.53570  0.47800  0.14690  1.0000
  C   C151      1.0  0.96430  0.97800  0.35310  1.0000
  C   C152      1.0  0.03570  0.97800  0.14690  1.0000
  H   H81       1.0  0.56340  0.54160  0.61000  1.0000
  H   H82       1.0  0.43660  0.54160  0.89000  1.0000
  H   H83       1.0  0.06340  0.04160  0.61000  1.0000
  H   H84       1.0  0.93660  0.04160  0.89000  1.0000
  H   H85       1.0  0.43660  0.45840  0.39000  1.0000
  H   H86       1.0  0.56340  0.45840  0.11000  1.0000
  H   H87       1.0  0.93660  0.95840  0.39000  1.0000
  H   H88       1.0  0.06340  0.95840  0.11000  1.0000
  H   H89       1.0  0.56880  0.47310  0.66440  1.0000
  H   H90       1.0  0.43120  0.47310  0.83560  1.0000
  H   H91       1.0  0.06880  0.97310  0.66440  1.0000
  H   H92       1.0  0.93120  0.97310  0.83560  1.0000
  H   H93       1.0  0.43120  0.52690  0.33560  1.0000
  H   H94       1.0  0.56880  0.52690  0.16440  1.0000
  H   H95       1.0  0.93120  0.02690  0.33560  1.0000
  H   H96       1.0  0.06880  0.02690  0.16440  1.0000
  H   H97       1.0  0.53390  0.57080  0.67550  1.0000
  H   H98       1.0  0.46610  0.57080  0.82450  1.0000
  H   H99       1.0  0.03390  0.07080  0.67550  1.0000
  H   H100      1.0  0.96610  0.07080  0.82450  1.0000
  H   H101      1.0  0.46610  0.42920  0.32450  1.0000
  H   H102      1.0  0.53390  0.42920  0.17550  1.0000
  H   H103      1.0  0.96610  0.92920  0.32450  1.0000
  H   H104      1.0  0.03390  0.92920  0.17550  1.0000
  O   O1        1.0  0.38610  0.17284  0.44485  1.0000
  O   O2        1.0  0.61390  0.17284  0.05515  1.0000
  O   O3        1.0  0.88610  0.67284  0.44485  1.0000
  O   O4        1.0  0.11390  0.67284  0.05515  1.0000
  O   O5        1.0  0.61390  0.82716  0.55515  1.0000
  O   O6        1.0  0.38610  0.82716  0.94485  1.0000
  O   O7        1.0  0.11390  0.32716  0.55515  1.0000
  O   O8        1.0  0.88610  0.32716  0.94485  1.0000
  O   O9        1.0  0.36543  0.32183  0.44342  1.0000
  O   O10       1.0  0.63457  0.32183  0.05658  1.0000
  O   O11       1.0  0.86543  0.82183  0.44342  1.0000
  O   O12       1.0  0.13457  0.82183  0.05658  1.0000
  O   O13       1.0  0.63457  0.67817  0.55658  1.0000
  O   O14       1.0  0.36543  0.67817  0.94342  1.0000
  O   O15       1.0  0.13457  0.17817  0.55658  1.0000
  O   O16       1.0  0.86543  0.17817  0.94342  1.0000
  O   O17       1.0  0.31769  0.24174  0.56981  1.0000
  O   O18       1.0  0.68231  0.24174  0.93019  1.0000
  O   O19       1.0  0.81769  0.74174  0.56981  1.0000
  O   O20       1.0  0.18231  0.74174  0.93019  1.0000
  O   O21       1.0  0.68231  0.75826  0.43019  1.0000
  O   O22       1.0  0.31769  0.75826  0.06981  1.0000
  O   O23       1.0  0.18231  0.25826  0.43019  1.0000
  O   O24       1.0  0.81769  0.25826  0.06981  1.0000
  O   O25       1.0  0.39250  0.20950  0.65381  1.0000
  O   O26       1.0  0.60750  0.20950  0.84619  1.0000
  O   O27       1.0  0.89250  0.70950  0.65381  1.0000
  O   O28       1.0  0.10750  0.70950  0.84619  1.0000
  O   O29       1.0  0.60750  0.79050  0.34619  1.0000
  O   O30       1.0  0.39250  0.79050  0.15381  1.0000
  O   O31       1.0  0.10750  0.29050  0.34619  1.0000
  O   O32       1.0  0.89250  0.29050  0.15381  1.0000
  O   O33       1.0  0.56704  0.29337  0.41714  1.0000
  O   O34       1.0  0.43296  0.29337  0.08286  1.0000
  O   O35       1.0  0.06704  0.79337  0.41714  1.0000
  O   O36       1.0  0.93296  0.79337  0.08286  1.0000
  O   O37       1.0  0.43296  0.70663  0.58286  1.0000
  O   O38       1.0  0.56704  0.70663  0.91714  1.0000
  O   O39       1.0  0.93296  0.20663  0.58286  1.0000
  O   O40       1.0  0.06704  0.20663  0.91714  1.0000
  O   O41       1.0  0.74778  0.94266  0.36082  1.0000
  O   O42       1.0  0.25222  0.94266  0.13918  1.0000
  O   O43       1.0  0.24778  0.44266  0.36082  1.0000
  O   O44       1.0  0.75222  0.44266  0.13918  1.0000
  O   O45       1.0  0.25222  0.05734  0.63918  1.0000
  O   O46       1.0  0.74778  0.05734  0.86082  1.0000
  O   O47       1.0  0.75222  0.55734  0.63918  1.0000
  O   O48       1.0  0.24778  0.55734  0.86082  1.0000
  O   O49       1.0  0.69250  0.97630  0.45103  1.0000
  O   O50       1.0  0.30750  0.97630  0.04897  1.0000
  O   O51       1.0  0.19250  0.47630  0.45103  1.0000
  O   O52       1.0  0.80750  0.47630  0.04897  1.0000
  O   O53       1.0  0.30750  0.02370  0.54897  1.0000
  O   O54       1.0  0.69250  0.02370  0.95103  1.0000
  O   O55       1.0  0.80750  0.52370  0.54897  1.0000
  O   O56       1.0  0.19250  0.52370  0.95103  1.0000
  O   O57       1.0  0.71250  0.14840  0.18594  1.0000
  O   O58       1.0  0.28750  0.14840  0.31406  1.0000
  O   O59       1.0  0.21250  0.64840  0.18594  1.0000
  O   O60       1.0  0.78750  0.64840  0.31406  1.0000
  O   O61       1.0  0.28750  0.85160  0.81406  1.0000
  O   O62       1.0  0.71250  0.85160  0.68594  1.0000
  O   O63       1.0  0.78750  0.35160  0.81406  1.0000
  O   O64       1.0  0.21250  0.35160  0.68594  1.0000
  O   O65       1.0  0.68000  0.29021  0.20503  1.0000
  O   O66       1.0  0.32000  0.29021  0.29497  1.0000
  O   O67       1.0  0.18000  0.79021  0.20503  1.0000
  O   O68       1.0  0.82000  0.79021  0.29497  1.0000
  O   O69       1.0  0.32000  0.70979  0.79497  1.0000
  O   O70       1.0  0.68000  0.70979  0.70503  1.0000
  O   O71       1.0  0.82000  0.20979  0.79497  1.0000
  O   O72       1.0  0.18000  0.20979  0.70503  1.0000
  O   O73       1.0  0.32520  0.47230  0.57690  1.0000
  O   O74       1.0  0.67480  0.47230  0.92310  1.0000
  O   O75       1.0  0.82520  0.97230  0.57690  1.0000
  O   O76       1.0  0.17480  0.97230  0.92310  1.0000
  O   O77       1.0  0.67480  0.52770  0.42310  1.0000
  O   O78       1.0  0.32520  0.52770  0.07690  1.0000
  O   O79       1.0  0.17480  0.02770  0.42310  1.0000
  O   O80       1.0  0.82520  0.02770  0.07690  1.0000
  N   N1        1.0  0.44730  0.49260  0.63300  1.0000
  N   N2        1.0  0.55270  0.49260  0.86700  1.0000
  N   N3        1.0  0.94730  0.99260  0.63300  1.0000
  N   N4        1.0  0.05270  0.99260  0.86700  1.0000
  N   N5        1.0  0.55270  0.50740  0.36700  1.0000
  N   N6        1.0  0.44730  0.50740  0.13300  1.0000
  N   N7        1.0  0.05270  0.00740  0.36700  1.0000
  N   N8        1.0  0.94730  0.00740  0.13300  1.0000
