data_image0
_chemical_formula_structural       Zn4C4H4O4C4O8C12O4C4H4C4H4O4C4O4C4
_chemical_formula_sum              "Zn4 C36 H12 O24"
_cell_length_a       9.2987
_cell_length_b       16.67
_cell_length_c       11.4189
_cell_angle_alpha    90
_cell_angle_beta     108.481
_cell_angle_gamma    90

_space_group_name_H-M_alt    "P 1"
_space_group_IT_number       1

loop_
  _space_group_symop_operation_xyz
  'x, y, z'

loop_
  _atom_site_type_symbol
  _atom_site_label
  _atom_site_symmetry_multiplicity
  _atom_site_fract_x
  _atom_site_fract_y
  _atom_site_fract_z
  _atom_site_occupancy
  Zn  Zn1       1.0  0.62127  0.09336  0.95985  1.0000
  Zn  Zn2       1.0  0.87873  0.59336  0.54015  1.0000
  Zn  Zn3       1.0  0.37873  0.90664  0.04015  1.0000
  Zn  Zn4       1.0  0.12127  0.40664  0.45985  1.0000
  C   C1        1.0  0.96330  0.90540  0.18360  1.0000
  C   C2        1.0  0.53670  0.40540  0.31640  1.0000
  C   C3        1.0  0.03670  0.09460  0.81640  1.0000
  C   C4        1.0  0.46330  0.59460  0.68360  1.0000
  H   H1        1.0  0.97770  0.94620  0.13300  1.0000
  H   H2        1.0  0.52230  0.44620  0.36700  1.0000
  H   H3        1.0  0.02230  0.05380  0.86700  1.0000
  H   H4        1.0  0.47770  0.55380  0.63300  1.0000
  O   O1        1.0  0.23150  0.90850  0.12840  1.0000
  O   O2        1.0  0.26850  0.40850  0.37160  1.0000
  O   O3        1.0  0.76850  0.09150  0.87160  1.0000
  O   O4        1.0  0.73150  0.59150  0.62840  1.0000
  C   C5        1.0  0.82230  0.89710  0.20040  1.0000
  C   C6        1.0  0.67770  0.39710  0.29960  1.0000
  C   C7        1.0  0.17770  0.10290  0.79960  1.0000
  C   C8        1.0  0.32230  0.60290  0.70040  1.0000
  O   O5        1.0  0.72680  0.00500  0.06840  1.0000
  O   O6        1.0  0.77320  0.50500  0.43160  1.0000
  O   O7        1.0  0.27320  0.99500  0.93160  1.0000
  O   O8        1.0  0.22680  0.49500  0.56840  1.0000
  O   O9        1.0  0.57210  0.94680  0.15690  1.0000
  O   O10       1.0  0.92790  0.44680  0.34310  1.0000
  O   O11       1.0  0.42790  0.05320  0.84310  1.0000
  O   O12       1.0  0.07210  0.55320  0.65690  1.0000
  C   C9        1.0  0.69660  0.95400  0.13690  1.0000
  C   C10       1.0  0.80340  0.45400  0.36310  1.0000
  C   C11       1.0  0.30340  0.04600  0.86310  1.0000
  C   C12       1.0  0.19660  0.54600  0.63690  1.0000
  C   C13       1.0  0.91810  0.78330  0.33170  1.0000
  C   C14       1.0  0.58190  0.28330  0.16830  1.0000
  C   C15       1.0  0.08190  0.21670  0.66830  1.0000
  C   C16       1.0  0.41810  0.71670  0.83170  1.0000
  C   C17       1.0  0.23360  0.86450  0.21890  1.0000
  C   C18       1.0  0.26640  0.36450  0.28110  1.0000
  C   C19       1.0  0.76640  0.13550  0.78110  1.0000
  C   C20       1.0  0.73360  0.63550  0.71890  1.0000
  O   O13       1.0  0.99200  0.66440  0.44750  1.0000
  O   O14       1.0  0.50800  0.16440  0.05250  1.0000
  O   O15       1.0  0.00800  0.33560  0.55250  1.0000
  O   O16       1.0  0.49200  0.83560  0.94750  1.0000
  C   C21       1.0  0.80080  0.83550  0.27450  1.0000
  C   C22       1.0  0.69920  0.33550  0.22550  1.0000
  C   C23       1.0  0.19920  0.16450  0.72550  1.0000
  C   C24       1.0  0.30080  0.66450  0.77450  1.0000
  H   H5        1.0  0.70690  0.82910  0.28610  1.0000
  H   H6        1.0  0.79310  0.32910  0.21390  1.0000
  H   H7        1.0  0.29310  0.17090  0.71390  1.0000
  H   H8        1.0  0.20690  0.67090  0.78610  1.0000
  C   C25       1.0  0.05750  0.79310  0.31620  1.0000
  C   C26       1.0  0.44250  0.29310  0.18380  1.0000
  C   C27       1.0  0.94250  0.20690  0.68380  1.0000
  C   C28       1.0  0.55750  0.70690  0.81620  1.0000
  H   H9        1.0  0.13660  0.75880  0.35620  1.0000
  H   H10       1.0  0.36340  0.25880  0.14380  1.0000
  H   H11       1.0  0.86340  0.24120  0.64380  1.0000
  H   H12       1.0  0.63660  0.74120  0.85620  1.0000
  O   O17       1.0  0.77350  0.71100  0.43520  1.0000
  O   O18       1.0  0.72650  0.21100  0.06480  1.0000
  O   O19       1.0  0.22650  0.28900  0.56480  1.0000
  O   O20       1.0  0.27350  0.78900  0.93520  1.0000
  C   C29       1.0  0.08180  0.85500  0.23990  1.0000
  C   C30       1.0  0.41820  0.35500  0.26010  1.0000
  C   C31       1.0  0.91820  0.14500  0.76010  1.0000
  C   C32       1.0  0.58180  0.64500  0.73990  1.0000
  O   O21       1.0  0.34500  0.82840  0.28470  1.0000
  O   O22       1.0  0.15500  0.32840  0.21530  1.0000
  O   O23       1.0  0.65500  0.17160  0.71530  1.0000
  O   O24       1.0  0.84500  0.67160  0.78470  1.0000
  C   C33       1.0  0.89230  0.71450  0.41070  1.0000
  C   C34       1.0  0.60770  0.21450  0.08930  1.0000
  C   C35       1.0  0.10770  0.28550  0.58930  1.0000
  C   C36       1.0  0.39230  0.78550  0.91070  1.0000
