data_image0
_chemical_formula_structural       Zn4O20C4O4C4H4C8H4C12H4C8
_chemical_formula_sum              "Zn4 O24 C36 H12"
_cell_length_a       9.488
_cell_length_b       12.562
_cell_length_c       15.477
_cell_angle_alpha    90
_cell_angle_beta     106.099
_cell_angle_gamma    90

_space_group_name_H-M_alt    "P 1"
_space_group_IT_number       1

loop_
  _space_group_symop_operation_xyz
  'x, y, z'

loop_
  _atom_site_type_symbol
  _atom_site_label
  _atom_site_symmetry_multiplicity
  _atom_site_fract_x
  _atom_site_fract_y
  _atom_site_fract_z
  _atom_site_occupancy
  Zn  Zn1       1.0  0.68389  0.05301  0.08518  1.0000
  Zn  Zn2       1.0  0.31611  0.55301  0.41482  1.0000
  Zn  Zn3       1.0  0.31611  0.94699  0.91482  1.0000
  Zn  Zn4       1.0  0.68389  0.44699  0.58518  1.0000
  O   O1        1.0  0.67000  0.94820  0.98860  1.0000
  O   O2        1.0  0.33000  0.44820  0.51140  1.0000
  O   O3        1.0  0.33000  0.05180  0.01140  1.0000
  O   O4        1.0  0.67000  0.55180  0.48860  1.0000
  O   O5        1.0  0.74110  0.53130  0.69360  1.0000
  O   O6        1.0  0.25890  0.03130  0.80640  1.0000
  O   O7        1.0  0.25890  0.46870  0.30640  1.0000
  O   O8        1.0  0.74110  0.96870  0.19360  1.0000
  O   O9        1.0  0.51880  0.55720  0.71400  1.0000
  O   O10       1.0  0.48120  0.05720  0.78600  1.0000
  O   O11       1.0  0.48120  0.44280  0.28600  1.0000
  O   O12       1.0  0.51880  0.94280  0.21400  1.0000
  O   O13       1.0  0.47400  0.84470  0.92980  1.0000
  O   O14       1.0  0.52600  0.34470  0.57020  1.0000
  O   O15       1.0  0.52600  0.15530  0.07020  1.0000
  O   O16       1.0  0.47400  0.65530  0.42980  1.0000
  O   O17       1.0  0.13360  0.88540  0.92770  1.0000
  O   O18       1.0  0.86640  0.38540  0.57230  1.0000
  O   O19       1.0  0.86640  0.11460  0.07230  1.0000
  O   O20       1.0  0.13360  0.61460  0.42770  1.0000
  C   C1        1.0  0.60820  0.86950  0.94590  1.0000
  C   C2        1.0  0.39180  0.36950  0.55410  1.0000
  C   C3        1.0  0.39180  0.13050  0.05410  1.0000
  C   C4        1.0  0.60820  0.63050  0.44590  1.0000
  O   O21       1.0  0.15450  0.76030  0.83080  1.0000
  O   O22       1.0  0.84550  0.26030  0.66920  1.0000
  O   O23       1.0  0.84550  0.23970  0.16920  1.0000
  O   O24       1.0  0.15450  0.73970  0.33080  1.0000
  C   C5        1.0  0.63880  0.71680  0.84670  1.0000
  C   C6        1.0  0.36120  0.21680  0.65330  1.0000
  C   C7        1.0  0.36120  0.28320  0.15330  1.0000
  C   C8        1.0  0.63880  0.78320  0.34670  1.0000
  H   H1        1.0  0.54070  0.69950  0.83880  1.0000
  H   H2        1.0  0.45930  0.19950  0.66120  1.0000
  H   H3        1.0  0.45930  0.30050  0.16120  1.0000
  H   H4        1.0  0.54070  0.80050  0.33880  1.0000
  C   C9        1.0  0.70150  0.79820  0.90470  1.0000
  C   C10       1.0  0.29850  0.29820  0.59530  1.0000
  C   C11       1.0  0.29850  0.20180  0.09530  1.0000
  C   C12       1.0  0.70150  0.70180  0.40470  1.0000
  C   C13       1.0  0.84860  0.82330  0.91850  1.0000
  C   C14       1.0  0.15140  0.32330  0.58150  1.0000
  C   C15       1.0  0.15140  0.17670  0.08150  1.0000
  C   C16       1.0  0.84860  0.67670  0.41850  1.0000
  H   H5        1.0  0.89150  0.87640  0.95910  1.0000
  H   H6        1.0  0.10850  0.37640  0.54090  1.0000
  H   H7        1.0  0.10850  0.12360  0.04090  1.0000
  H   H8        1.0  0.89150  0.62360  0.45910  1.0000
  C   C17       1.0  0.72050  0.66060  0.80020  1.0000
  C   C18       1.0  0.27950  0.16060  0.69980  1.0000
  C   C19       1.0  0.27950  0.33940  0.19980  1.0000
  C   C20       1.0  0.72050  0.83940  0.30020  1.0000
  C   C21       1.0  0.65160  0.57640  0.73100  1.0000
  C   C22       1.0  0.34840  0.07640  0.76900  1.0000
  C   C23       1.0  0.34840  0.42360  0.26900  1.0000
  C   C24       1.0  0.65160  0.92360  0.23100  1.0000
  C   C25       1.0  0.86670  0.68810  0.81340  1.0000
  C   C26       1.0  0.13330  0.18810  0.68660  1.0000
  C   C27       1.0  0.13330  0.31190  0.18660  1.0000
  C   C28       1.0  0.86670  0.81190  0.31340  1.0000
  H   H9        1.0  0.92230  0.65130  0.78230  1.0000
  H   H10       1.0  0.07770  0.15130  0.71770  1.0000
  H   H11       1.0  0.07770  0.34870  0.21770  1.0000
  H   H12       1.0  0.92230  0.84870  0.28230  1.0000
  C   C29       1.0  0.93180  0.76910  0.87160  1.0000
  C   C30       1.0  0.06820  0.26910  0.62840  1.0000
  C   C31       1.0  0.06820  0.23090  0.12840  1.0000
  C   C32       1.0  0.93180  0.73090  0.37160  1.0000
  C   C33       1.0  0.08590  0.80570  0.87720  1.0000
  C   C34       1.0  0.91410  0.30570  0.62280  1.0000
  C   C35       1.0  0.91410  0.19430  0.12280  1.0000
  C   C36       1.0  0.08590  0.69430  0.37720  1.0000
