data_image0
_chemical_formula_structural       N96Zn64O200C240H48
_chemical_formula_sum              "N96 Zn64 O200 C240 H48"
_cell_length_a       22.0003
_cell_length_b       22.0003
_cell_length_c       22.0003
_cell_angle_alpha    90
_cell_angle_beta     90
_cell_angle_gamma    90

_space_group_name_H-M_alt    "P 1"
_space_group_IT_number       1

loop_
  _space_group_symop_operation_xyz
  'x, y, z'

loop_
  _atom_site_type_symbol
  _atom_site_label
  _atom_site_symmetry_multiplicity
  _atom_site_fract_x
  _atom_site_fract_y
  _atom_site_fract_z
  _atom_site_occupancy
  N   N1        1.0  0.35000  0.34500  0.05080  1.0000
  N   N2        1.0  0.65000  0.65500  0.05080  1.0000
  N   N3        1.0  0.65000  0.34500  0.94920  1.0000
  N   N4        1.0  0.35000  0.65500  0.94920  1.0000
  N   N5        1.0  0.05080  0.35000  0.34500  1.0000
  N   N6        1.0  0.05080  0.65000  0.65500  1.0000
  N   N7        1.0  0.94920  0.65000  0.34500  1.0000
  N   N8        1.0  0.94920  0.35000  0.65500  1.0000
  N   N9        1.0  0.34500  0.05080  0.35000  1.0000
  N   N10       1.0  0.65500  0.05080  0.65000  1.0000
  N   N11       1.0  0.34500  0.94920  0.65000  1.0000
  N   N12       1.0  0.65500  0.94920  0.35000  1.0000
  N   N13       1.0  0.35000  0.84500  0.55080  1.0000
  N   N14       1.0  0.65000  0.15500  0.55080  1.0000
  N   N15       1.0  0.65000  0.84500  0.44920  1.0000
  N   N16       1.0  0.35000  0.15500  0.44920  1.0000
  N   N17       1.0  0.05080  0.85000  0.84500  1.0000
  N   N18       1.0  0.05080  0.15000  0.15500  1.0000
  N   N19       1.0  0.94920  0.15000  0.84500  1.0000
  N   N20       1.0  0.94920  0.85000  0.15500  1.0000
  N   N21       1.0  0.34500  0.55080  0.85000  1.0000
  N   N22       1.0  0.65500  0.55080  0.15000  1.0000
  N   N23       1.0  0.34500  0.44920  0.15000  1.0000
  N   N24       1.0  0.65500  0.44920  0.85000  1.0000
  N   N25       1.0  0.85000  0.34500  0.55080  1.0000
  N   N26       1.0  0.15000  0.65500  0.55080  1.0000
  N   N27       1.0  0.15000  0.34500  0.44920  1.0000
  N   N28       1.0  0.85000  0.65500  0.44920  1.0000
  N   N29       1.0  0.55080  0.35000  0.84500  1.0000
  N   N30       1.0  0.55080  0.65000  0.15500  1.0000
  N   N31       1.0  0.44920  0.65000  0.84500  1.0000
  N   N32       1.0  0.44920  0.35000  0.15500  1.0000
  N   N33       1.0  0.84500  0.05080  0.85000  1.0000
  N   N34       1.0  0.15500  0.05080  0.15000  1.0000
  N   N35       1.0  0.84500  0.94920  0.15000  1.0000
  N   N36       1.0  0.15500  0.94920  0.85000  1.0000
  N   N37       1.0  0.85000  0.84500  0.05080  1.0000
  N   N38       1.0  0.15000  0.15500  0.05080  1.0000
  N   N39       1.0  0.15000  0.84500  0.94920  1.0000
  N   N40       1.0  0.85000  0.15500  0.94920  1.0000
  N   N41       1.0  0.55080  0.85000  0.34500  1.0000
  N   N42       1.0  0.55080  0.15000  0.65500  1.0000
  N   N43       1.0  0.44920  0.15000  0.34500  1.0000
  N   N44       1.0  0.44920  0.85000  0.65500  1.0000
  N   N45       1.0  0.84500  0.55080  0.35000  1.0000
  N   N46       1.0  0.15500  0.55080  0.65000  1.0000
  N   N47       1.0  0.84500  0.44920  0.65000  1.0000
  N   N48       1.0  0.15500  0.44920  0.35000  1.0000
  N   N49       1.0  0.65000  0.65500  0.94920  1.0000
  N   N50       1.0  0.35000  0.34500  0.94920  1.0000
  N   N51       1.0  0.35000  0.65500  0.05080  1.0000
  N   N52       1.0  0.65000  0.34500  0.05080  1.0000
  N   N53       1.0  0.94920  0.65000  0.65500  1.0000
  N   N54       1.0  0.94920  0.35000  0.34500  1.0000
  N   N55       1.0  0.05080  0.35000  0.65500  1.0000
  N   N56       1.0  0.05080  0.65000  0.34500  1.0000
  N   N57       1.0  0.65500  0.94920  0.65000  1.0000
  N   N58       1.0  0.34500  0.94920  0.35000  1.0000
  N   N59       1.0  0.65500  0.05080  0.35000  1.0000
  N   N60       1.0  0.34500  0.05080  0.65000  1.0000
  N   N61       1.0  0.65000  0.15500  0.44920  1.0000
  N   N62       1.0  0.35000  0.84500  0.44920  1.0000
  N   N63       1.0  0.35000  0.15500  0.55080  1.0000
  N   N64       1.0  0.65000  0.84500  0.55080  1.0000
  N   N65       1.0  0.94920  0.15000  0.15500  1.0000
  N   N66       1.0  0.94920  0.85000  0.84500  1.0000
  N   N67       1.0  0.05080  0.85000  0.15500  1.0000
  N   N68       1.0  0.05080  0.15000  0.84500  1.0000
  N   N69       1.0  0.65500  0.44920  0.15000  1.0000
  N   N70       1.0  0.34500  0.44920  0.85000  1.0000
  N   N71       1.0  0.65500  0.55080  0.85000  1.0000
  N   N72       1.0  0.34500  0.55080  0.15000  1.0000
  N   N73       1.0  0.15000  0.65500  0.44920  1.0000
  N   N74       1.0  0.85000  0.34500  0.44920  1.0000
  N   N75       1.0  0.85000  0.65500  0.55080  1.0000
  N   N76       1.0  0.15000  0.34500  0.55080  1.0000
  N   N77       1.0  0.44920  0.65000  0.15500  1.0000
  N   N78       1.0  0.44920  0.35000  0.84500  1.0000
  N   N79       1.0  0.55080  0.35000  0.15500  1.0000
  N   N80       1.0  0.55080  0.65000  0.84500  1.0000
  N   N81       1.0  0.15500  0.94920  0.15000  1.0000
  N   N82       1.0  0.84500  0.94920  0.85000  1.0000
  N   N83       1.0  0.15500  0.05080  0.85000  1.0000
  N   N84       1.0  0.84500  0.05080  0.15000  1.0000
  N   N85       1.0  0.15000  0.15500  0.94920  1.0000
  N   N86       1.0  0.85000  0.84500  0.94920  1.0000
  N   N87       1.0  0.85000  0.15500  0.05080  1.0000
  N   N88       1.0  0.15000  0.84500  0.05080  1.0000
  N   N89       1.0  0.44920  0.15000  0.65500  1.0000
  N   N90       1.0  0.44920  0.85000  0.34500  1.0000
  N   N91       1.0  0.55080  0.85000  0.65500  1.0000
  N   N92       1.0  0.55080  0.15000  0.34500  1.0000
  N   N93       1.0  0.15500  0.44920  0.65000  1.0000
  N   N94       1.0  0.84500  0.44920  0.35000  1.0000
  N   N95       1.0  0.15500  0.55080  0.35000  1.0000
  N   N96       1.0  0.84500  0.55080  0.65000  1.0000
  Zn  Zn1       1.0  0.35702  0.35702  0.14298  1.0000
  Zn  Zn2       1.0  0.64298  0.64298  0.14298  1.0000
  Zn  Zn3       1.0  0.64298  0.35702  0.85702  1.0000
  Zn  Zn4       1.0  0.35702  0.64298  0.85702  1.0000
  Zn  Zn5       1.0  0.14298  0.35702  0.35702  1.0000
  Zn  Zn6       1.0  0.14298  0.64298  0.64298  1.0000
  Zn  Zn7       1.0  0.85702  0.64298  0.35702  1.0000
  Zn  Zn8       1.0  0.85702  0.35702  0.64298  1.0000
  Zn  Zn9       1.0  0.35702  0.14298  0.35702  1.0000
  Zn  Zn10      1.0  0.64298  0.14298  0.64298  1.0000
  Zn  Zn11      1.0  0.35702  0.85702  0.64298  1.0000
  Zn  Zn12      1.0  0.64298  0.85702  0.35702  1.0000
  Zn  Zn13      1.0  0.14298  0.85702  0.85702  1.0000
  Zn  Zn14      1.0  0.14298  0.14298  0.14298  1.0000
  Zn  Zn15      1.0  0.85702  0.14298  0.85702  1.0000
  Zn  Zn16      1.0  0.85702  0.85702  0.14298  1.0000
  Zn  Zn17      1.0  0.64298  0.64298  0.85702  1.0000
  Zn  Zn18      1.0  0.35702  0.35702  0.85702  1.0000
  Zn  Zn19      1.0  0.35702  0.64298  0.14298  1.0000
  Zn  Zn20      1.0  0.64298  0.35702  0.14298  1.0000
  Zn  Zn21      1.0  0.85702  0.64298  0.64298  1.0000
  Zn  Zn22      1.0  0.85702  0.35702  0.35702  1.0000
  Zn  Zn23      1.0  0.14298  0.35702  0.64298  1.0000
  Zn  Zn24      1.0  0.14298  0.64298  0.35702  1.0000
  Zn  Zn25      1.0  0.64298  0.85702  0.64298  1.0000
  Zn  Zn26      1.0  0.35702  0.85702  0.35702  1.0000
  Zn  Zn27      1.0  0.64298  0.14298  0.35702  1.0000
  Zn  Zn28      1.0  0.35702  0.14298  0.64298  1.0000
  Zn  Zn29      1.0  0.85702  0.14298  0.14298  1.0000
  Zn  Zn30      1.0  0.85702  0.85702  0.85702  1.0000
  Zn  Zn31      1.0  0.14298  0.85702  0.14298  1.0000
  Zn  Zn32      1.0  0.14298  0.14298  0.85702  1.0000
  Zn  Zn33      1.0  0.30268  0.19732  0.19732  1.0000
  Zn  Zn34      1.0  0.69732  0.80268  0.19732  1.0000
  Zn  Zn35      1.0  0.69732  0.19732  0.80268  1.0000
  Zn  Zn36      1.0  0.30268  0.80268  0.80268  1.0000
  Zn  Zn37      1.0  0.19732  0.30268  0.19732  1.0000
  Zn  Zn38      1.0  0.19732  0.69732  0.80268  1.0000
  Zn  Zn39      1.0  0.80268  0.69732  0.19732  1.0000
  Zn  Zn40      1.0  0.80268  0.30268  0.80268  1.0000
  Zn  Zn41      1.0  0.19732  0.19732  0.30268  1.0000
  Zn  Zn42      1.0  0.80268  0.19732  0.69732  1.0000
  Zn  Zn43      1.0  0.19732  0.80268  0.69732  1.0000
  Zn  Zn44      1.0  0.80268  0.80268  0.30268  1.0000
  Zn  Zn45      1.0  0.30268  0.69732  0.69732  1.0000
  Zn  Zn46      1.0  0.69732  0.30268  0.69732  1.0000
  Zn  Zn47      1.0  0.69732  0.69732  0.30268  1.0000
  Zn  Zn48      1.0  0.30268  0.30268  0.30268  1.0000
  Zn  Zn49      1.0  0.69732  0.80268  0.80268  1.0000
  Zn  Zn50      1.0  0.30268  0.19732  0.80268  1.0000
  Zn  Zn51      1.0  0.30268  0.80268  0.19732  1.0000
  Zn  Zn52      1.0  0.69732  0.19732  0.19732  1.0000
  Zn  Zn53      1.0  0.80268  0.69732  0.80268  1.0000
  Zn  Zn54      1.0  0.80268  0.30268  0.19732  1.0000
  Zn  Zn55      1.0  0.19732  0.30268  0.80268  1.0000
  Zn  Zn56      1.0  0.19732  0.69732  0.19732  1.0000
  Zn  Zn57      1.0  0.80268  0.80268  0.69732  1.0000
  Zn  Zn58      1.0  0.19732  0.80268  0.30268  1.0000
  Zn  Zn59      1.0  0.80268  0.19732  0.30268  1.0000
  Zn  Zn60      1.0  0.19732  0.19732  0.69732  1.0000
  Zn  Zn61      1.0  0.69732  0.30268  0.30268  1.0000
  Zn  Zn62      1.0  0.30268  0.69732  0.30268  1.0000
  Zn  Zn63      1.0  0.30268  0.30268  0.69732  1.0000
  Zn  Zn64      1.0  0.69732  0.69732  0.69732  1.0000
  O   O1        1.0  0.32810  0.25815  0.13368  1.0000
  O   O2        1.0  0.67190  0.74185  0.13368  1.0000
  O   O3        1.0  0.67190  0.25815  0.86632  1.0000
  O   O4        1.0  0.32810  0.74185  0.86632  1.0000
  O   O5        1.0  0.13368  0.32810  0.25815  1.0000
  O   O6        1.0  0.13368  0.67190  0.74185  1.0000
  O   O7        1.0  0.86632  0.67190  0.25815  1.0000
  O   O8        1.0  0.86632  0.32810  0.74185  1.0000
  O   O9        1.0  0.25815  0.13368  0.32810  1.0000
  O   O10       1.0  0.74185  0.13368  0.67190  1.0000
  O   O11       1.0  0.25815  0.86632  0.67190  1.0000
  O   O12       1.0  0.74185  0.86632  0.32810  1.0000
  O   O13       1.0  0.32810  0.75815  0.63368  1.0000
  O   O14       1.0  0.67190  0.24185  0.63368  1.0000
  O   O15       1.0  0.67190  0.75815  0.36632  1.0000
  O   O16       1.0  0.32810  0.24185  0.36632  1.0000
  O   O17       1.0  0.13368  0.82810  0.75815  1.0000
  O   O18       1.0  0.13368  0.17190  0.24185  1.0000
  O   O19       1.0  0.86632  0.17190  0.75815  1.0000
  O   O20       1.0  0.86632  0.82810  0.24185  1.0000
  O   O21       1.0  0.25815  0.63368  0.82810  1.0000
  O   O22       1.0  0.74185  0.63368  0.17190  1.0000
  O   O23       1.0  0.25815  0.36632  0.17190  1.0000
  O   O24       1.0  0.74185  0.36632  0.82810  1.0000
  O   O25       1.0  0.82810  0.25815  0.63368  1.0000
  O   O26       1.0  0.17190  0.74185  0.63368  1.0000
  O   O27       1.0  0.17190  0.25815  0.36632  1.0000
  O   O28       1.0  0.82810  0.74185  0.36632  1.0000
  O   O29       1.0  0.63368  0.32810  0.75815  1.0000
  O   O30       1.0  0.63368  0.67190  0.24185  1.0000
  O   O31       1.0  0.36632  0.67190  0.75815  1.0000
  O   O32       1.0  0.36632  0.32810  0.24185  1.0000
  O   O33       1.0  0.75815  0.13368  0.82810  1.0000
  O   O34       1.0  0.24185  0.13368  0.17190  1.0000
  O   O35       1.0  0.75815  0.86632  0.17190  1.0000
  O   O36       1.0  0.24185  0.86632  0.82810  1.0000
  O   O37       1.0  0.82810  0.75815  0.13368  1.0000
  O   O38       1.0  0.17190  0.24185  0.13368  1.0000
  O   O39       1.0  0.17190  0.75815  0.86632  1.0000
  O   O40       1.0  0.82810  0.24185  0.86632  1.0000
  O   O41       1.0  0.63368  0.82810  0.25815  1.0000
  O   O42       1.0  0.63368  0.17190  0.74185  1.0000
  O   O43       1.0  0.36632  0.17190  0.25815  1.0000
  O   O44       1.0  0.36632  0.82810  0.74185  1.0000
  O   O45       1.0  0.75815  0.63368  0.32810  1.0000
  O   O46       1.0  0.24185  0.63368  0.67190  1.0000
  O   O47       1.0  0.75815  0.36632  0.67190  1.0000
  O   O48       1.0  0.24185  0.36632  0.32810  1.0000
  O   O49       1.0  0.67190  0.74185  0.86632  1.0000
  O   O50       1.0  0.32810  0.25815  0.86632  1.0000
  O   O51       1.0  0.32810  0.74185  0.13368  1.0000
  O   O52       1.0  0.67190  0.25815  0.13368  1.0000
  O   O53       1.0  0.86632  0.67190  0.74185  1.0000
  O   O54       1.0  0.86632  0.32810  0.25815  1.0000
  O   O55       1.0  0.13368  0.32810  0.74185  1.0000
  O   O56       1.0  0.13368  0.67190  0.25815  1.0000
  O   O57       1.0  0.74185  0.86632  0.67190  1.0000
  O   O58       1.0  0.25815  0.86632  0.32810  1.0000
  O   O59       1.0  0.74185  0.13368  0.32810  1.0000
  O   O60       1.0  0.25815  0.13368  0.67190  1.0000
  O   O61       1.0  0.67190  0.24185  0.36632  1.0000
  O   O62       1.0  0.32810  0.75815  0.36632  1.0000
  O   O63       1.0  0.32810  0.24185  0.63368  1.0000
  O   O64       1.0  0.67190  0.75815  0.63368  1.0000
  O   O65       1.0  0.86632  0.17190  0.24185  1.0000
  O   O66       1.0  0.86632  0.82810  0.75815  1.0000
  O   O67       1.0  0.13368  0.82810  0.24185  1.0000
  O   O68       1.0  0.13368  0.17190  0.75815  1.0000
  O   O69       1.0  0.74185  0.36632  0.17190  1.0000
  O   O70       1.0  0.25815  0.36632  0.82810  1.0000
  O   O71       1.0  0.74185  0.63368  0.82810  1.0000
  O   O72       1.0  0.25815  0.63368  0.17190  1.0000
  O   O73       1.0  0.17190  0.74185  0.36632  1.0000
  O   O74       1.0  0.82810  0.25815  0.36632  1.0000
  O   O75       1.0  0.82810  0.74185  0.63368  1.0000
  O   O76       1.0  0.17190  0.25815  0.63368  1.0000
  O   O77       1.0  0.36632  0.67190  0.24185  1.0000
  O   O78       1.0  0.36632  0.32810  0.75815  1.0000
  O   O79       1.0  0.63368  0.32810  0.24185  1.0000
  O   O80       1.0  0.63368  0.67190  0.75815  1.0000
  O   O81       1.0  0.24185  0.86632  0.17190  1.0000
  O   O82       1.0  0.75815  0.86632  0.82810  1.0000
  O   O83       1.0  0.24185  0.13368  0.82810  1.0000
  O   O84       1.0  0.75815  0.13368  0.17190  1.0000
  O   O85       1.0  0.17190  0.24185  0.86632  1.0000
  O   O86       1.0  0.82810  0.75815  0.86632  1.0000
  O   O87       1.0  0.82810  0.24185  0.13368  1.0000
  O   O88       1.0  0.17190  0.75815  0.13368  1.0000
  O   O89       1.0  0.36632  0.17190  0.74185  1.0000
  O   O90       1.0  0.36632  0.82810  0.25815  1.0000
  O   O91       1.0  0.63368  0.82810  0.74185  1.0000
  O   O92       1.0  0.63368  0.17190  0.25815  1.0000
  O   O93       1.0  0.24185  0.36632  0.67190  1.0000
  O   O94       1.0  0.75815  0.36632  0.32810  1.0000
  O   O95       1.0  0.24185  0.63368  0.32810  1.0000
  O   O96       1.0  0.75815  0.63368  0.67190  1.0000
  O   O97       1.0  0.31300  0.18610  0.06260  1.0000
  O   O98       1.0  0.68700  0.81390  0.06260  1.0000
  O   O99       1.0  0.68700  0.18610  0.93740  1.0000
  O   O100      1.0  0.31300  0.81390  0.93740  1.0000
  O   O101      1.0  0.06260  0.31300  0.18610  1.0000
  O   O102      1.0  0.06260  0.68700  0.81390  1.0000
  O   O103      1.0  0.93740  0.68700  0.18610  1.0000
  O   O104      1.0  0.93740  0.31300  0.81390  1.0000
  O   O105      1.0  0.18610  0.06260  0.31300  1.0000
  O   O106      1.0  0.81390  0.06260  0.68700  1.0000
  O   O107      1.0  0.18610  0.93740  0.68700  1.0000
  O   O108      1.0  0.81390  0.93740  0.31300  1.0000
  O   O109      1.0  0.31300  0.68610  0.56260  1.0000
  O   O110      1.0  0.68700  0.31390  0.56260  1.0000
  O   O111      1.0  0.68700  0.68610  0.43740  1.0000
  O   O112      1.0  0.31300  0.31390  0.43740  1.0000
  O   O113      1.0  0.06260  0.81300  0.68610  1.0000
  O   O114      1.0  0.06260  0.18700  0.31390  1.0000
  O   O115      1.0  0.93740  0.18700  0.68610  1.0000
  O   O116      1.0  0.93740  0.81300  0.31390  1.0000
  O   O117      1.0  0.18610  0.56260  0.81300  1.0000
  O   O118      1.0  0.81390  0.56260  0.18700  1.0000
  O   O119      1.0  0.18610  0.43740  0.18700  1.0000
  O   O120      1.0  0.81390  0.43740  0.81300  1.0000
  O   O121      1.0  0.81300  0.18610  0.56260  1.0000
  O   O122      1.0  0.18700  0.81390  0.56260  1.0000
  O   O123      1.0  0.18700  0.18610  0.43740  1.0000
  O   O124      1.0  0.81300  0.81390  0.43740  1.0000
  O   O125      1.0  0.56260  0.31300  0.68610  1.0000
  O   O126      1.0  0.56260  0.68700  0.31390  1.0000
  O   O127      1.0  0.43740  0.68700  0.68610  1.0000
  O   O128      1.0  0.43740  0.31300  0.31390  1.0000
  O   O129      1.0  0.68610  0.06260  0.81300  1.0000
  O   O130      1.0  0.31390  0.06260  0.18700  1.0000
  O   O131      1.0  0.68610  0.93740  0.18700  1.0000
  O   O132      1.0  0.31390  0.93740  0.81300  1.0000
  O   O133      1.0  0.81300  0.68610  0.06260  1.0000
  O   O134      1.0  0.18700  0.31390  0.06260  1.0000
  O   O135      1.0  0.18700  0.68610  0.93740  1.0000
  O   O136      1.0  0.81300  0.31390  0.93740  1.0000
  O   O137      1.0  0.56260  0.81300  0.18610  1.0000
  O   O138      1.0  0.56260  0.18700  0.81390  1.0000
  O   O139      1.0  0.43740  0.18700  0.18610  1.0000
  O   O140      1.0  0.43740  0.81300  0.81390  1.0000
  O   O141      1.0  0.68610  0.56260  0.31300  1.0000
  O   O142      1.0  0.31390  0.56260  0.68700  1.0000
  O   O143      1.0  0.68610  0.43740  0.68700  1.0000
  O   O144      1.0  0.31390  0.43740  0.31300  1.0000
  O   O145      1.0  0.68700  0.81390  0.93740  1.0000
  O   O146      1.0  0.31300  0.18610  0.93740  1.0000
  O   O147      1.0  0.31300  0.81390  0.06260  1.0000
  O   O148      1.0  0.68700  0.18610  0.06260  1.0000
  O   O149      1.0  0.93740  0.68700  0.81390  1.0000
  O   O150      1.0  0.93740  0.31300  0.18610  1.0000
  O   O151      1.0  0.06260  0.31300  0.81390  1.0000
  O   O152      1.0  0.06260  0.68700  0.18610  1.0000
  O   O153      1.0  0.81390  0.93740  0.68700  1.0000
  O   O154      1.0  0.18610  0.93740  0.31300  1.0000
  O   O155      1.0  0.81390  0.06260  0.31300  1.0000
  O   O156      1.0  0.18610  0.06260  0.68700  1.0000
  O   O157      1.0  0.68700  0.31390  0.43740  1.0000
  O   O158      1.0  0.31300  0.68610  0.43740  1.0000
  O   O159      1.0  0.31300  0.31390  0.56260  1.0000
  O   O160      1.0  0.68700  0.68610  0.56260  1.0000
  O   O161      1.0  0.93740  0.18700  0.31390  1.0000
  O   O162      1.0  0.93740  0.81300  0.68610  1.0000
  O   O163      1.0  0.06260  0.81300  0.31390  1.0000
  O   O164      1.0  0.06260  0.18700  0.68610  1.0000
  O   O165      1.0  0.81390  0.43740  0.18700  1.0000
  O   O166      1.0  0.18610  0.43740  0.81300  1.0000
  O   O167      1.0  0.81390  0.56260  0.81300  1.0000
  O   O168      1.0  0.18610  0.56260  0.18700  1.0000
  O   O169      1.0  0.18700  0.81390  0.43740  1.0000
  O   O170      1.0  0.81300  0.18610  0.43740  1.0000
  O   O171      1.0  0.81300  0.81390  0.56260  1.0000
  O   O172      1.0  0.18700  0.18610  0.56260  1.0000
  O   O173      1.0  0.43740  0.68700  0.31390  1.0000
  O   O174      1.0  0.43740  0.31300  0.68610  1.0000
  O   O175      1.0  0.56260  0.31300  0.31390  1.0000
  O   O176      1.0  0.56260  0.68700  0.68610  1.0000
  O   O177      1.0  0.31390  0.93740  0.18700  1.0000
  O   O178      1.0  0.68610  0.93740  0.81300  1.0000
  O   O179      1.0  0.31390  0.06260  0.81300  1.0000
  O   O180      1.0  0.68610  0.06260  0.18700  1.0000
  O   O181      1.0  0.18700  0.31390  0.93740  1.0000
  O   O182      1.0  0.81300  0.68610  0.93740  1.0000
  O   O183      1.0  0.81300  0.31390  0.06260  1.0000
  O   O184      1.0  0.18700  0.68610  0.06260  1.0000
  O   O185      1.0  0.43740  0.18700  0.81390  1.0000
  O   O186      1.0  0.43740  0.81300  0.18610  1.0000
  O   O187      1.0  0.56260  0.81300  0.81390  1.0000
  O   O188      1.0  0.56260  0.18700  0.18610  1.0000
  O   O189      1.0  0.31390  0.43740  0.68700  1.0000
  O   O190      1.0  0.68610  0.43740  0.31300  1.0000
  O   O191      1.0  0.31390  0.56260  0.31300  1.0000
  O   O192      1.0  0.68610  0.56260  0.68700  1.0000
  O   O193      1.0  0.25000  0.25000  0.25000  1.0000
  O   O194      1.0  0.75000  0.75000  0.25000  1.0000
  O   O195      1.0  0.75000  0.25000  0.75000  1.0000
  O   O196      1.0  0.25000  0.75000  0.75000  1.0000
  O   O197      1.0  0.75000  0.75000  0.75000  1.0000
  O   O198      1.0  0.25000  0.25000  0.75000  1.0000
  O   O199      1.0  0.25000  0.75000  0.25000  1.0000
  O   O200      1.0  0.75000  0.25000  0.25000  1.0000
  C   C1        1.0  0.32480  0.23960  0.07830  1.0000
  C   C2        1.0  0.67520  0.76040  0.07830  1.0000
  C   C3        1.0  0.67520  0.23960  0.92170  1.0000
  C   C4        1.0  0.32480  0.76040  0.92170  1.0000
  C   C5        1.0  0.07830  0.32480  0.23960  1.0000
  C   C6        1.0  0.07830  0.67520  0.76040  1.0000
  C   C7        1.0  0.92170  0.67520  0.23960  1.0000
  C   C8        1.0  0.92170  0.32480  0.76040  1.0000
  C   C9        1.0  0.23960  0.07830  0.32480  1.0000
  C   C10       1.0  0.76040  0.07830  0.67520  1.0000
  C   C11       1.0  0.23960  0.92170  0.67520  1.0000
  C   C12       1.0  0.76040  0.92170  0.32480  1.0000
  C   C13       1.0  0.32480  0.73960  0.57830  1.0000
  C   C14       1.0  0.67520  0.26040  0.57830  1.0000
  C   C15       1.0  0.67520  0.73960  0.42170  1.0000
  C   C16       1.0  0.32480  0.26040  0.42170  1.0000
  C   C17       1.0  0.07830  0.82480  0.73960  1.0000
  C   C18       1.0  0.07830  0.17520  0.26040  1.0000
  C   C19       1.0  0.92170  0.17520  0.73960  1.0000
  C   C20       1.0  0.92170  0.82480  0.26040  1.0000
  C   C21       1.0  0.23960  0.57830  0.82480  1.0000
  C   C22       1.0  0.76040  0.57830  0.17520  1.0000
  C   C23       1.0  0.23960  0.42170  0.17520  1.0000
  C   C24       1.0  0.76040  0.42170  0.82480  1.0000
  C   C25       1.0  0.82480  0.23960  0.57830  1.0000
  C   C26       1.0  0.17520  0.76040  0.57830  1.0000
  C   C27       1.0  0.17520  0.23960  0.42170  1.0000
  C   C28       1.0  0.82480  0.76040  0.42170  1.0000
  C   C29       1.0  0.57830  0.32480  0.73960  1.0000
  C   C30       1.0  0.57830  0.67520  0.26040  1.0000
  C   C31       1.0  0.42170  0.67520  0.73960  1.0000
  C   C32       1.0  0.42170  0.32480  0.26040  1.0000
  C   C33       1.0  0.73960  0.07830  0.82480  1.0000
  C   C34       1.0  0.26040  0.07830  0.17520  1.0000
  C   C35       1.0  0.73960  0.92170  0.17520  1.0000
  C   C36       1.0  0.26040  0.92170  0.82480  1.0000
  C   C37       1.0  0.82480  0.73960  0.07830  1.0000
  C   C38       1.0  0.17520  0.26040  0.07830  1.0000
  C   C39       1.0  0.17520  0.73960  0.92170  1.0000
  C   C40       1.0  0.82480  0.26040  0.92170  1.0000
  C   C41       1.0  0.57830  0.82480  0.23960  1.0000
  C   C42       1.0  0.57830  0.17520  0.76040  1.0000
  C   C43       1.0  0.42170  0.17520  0.23960  1.0000
  C   C44       1.0  0.42170  0.82480  0.76040  1.0000
  C   C45       1.0  0.73960  0.57830  0.32480  1.0000
  C   C46       1.0  0.26040  0.57830  0.67520  1.0000
  C   C47       1.0  0.73960  0.42170  0.67520  1.0000
  C   C48       1.0  0.26040  0.42170  0.32480  1.0000
  C   C49       1.0  0.67520  0.76040  0.92170  1.0000
  C   C50       1.0  0.32480  0.23960  0.92170  1.0000
  C   C51       1.0  0.32480  0.76040  0.07830  1.0000
  C   C52       1.0  0.67520  0.23960  0.07830  1.0000
  C   C53       1.0  0.92170  0.67520  0.76040  1.0000
  C   C54       1.0  0.92170  0.32480  0.23960  1.0000
  C   C55       1.0  0.07830  0.32480  0.76040  1.0000
  C   C56       1.0  0.07830  0.67520  0.23960  1.0000
  C   C57       1.0  0.76040  0.92170  0.67520  1.0000
  C   C58       1.0  0.23960  0.92170  0.32480  1.0000
  C   C59       1.0  0.76040  0.07830  0.32480  1.0000
  C   C60       1.0  0.23960  0.07830  0.67520  1.0000
  C   C61       1.0  0.67520  0.26040  0.42170  1.0000
  C   C62       1.0  0.32480  0.73960  0.42170  1.0000
  C   C63       1.0  0.32480  0.26040  0.57830  1.0000
  C   C64       1.0  0.67520  0.73960  0.57830  1.0000
  C   C65       1.0  0.92170  0.17520  0.26040  1.0000
  C   C66       1.0  0.92170  0.82480  0.73960  1.0000
  C   C67       1.0  0.07830  0.82480  0.26040  1.0000
  C   C68       1.0  0.07830  0.17520  0.73960  1.0000
  C   C69       1.0  0.76040  0.42170  0.17520  1.0000
  C   C70       1.0  0.23960  0.42170  0.82480  1.0000
  C   C71       1.0  0.76040  0.57830  0.82480  1.0000
  C   C72       1.0  0.23960  0.57830  0.17520  1.0000
  C   C73       1.0  0.17520  0.76040  0.42170  1.0000
  C   C74       1.0  0.82480  0.23960  0.42170  1.0000
  C   C75       1.0  0.82480  0.76040  0.57830  1.0000
  C   C76       1.0  0.17520  0.23960  0.57830  1.0000
  C   C77       1.0  0.42170  0.67520  0.26040  1.0000
  C   C78       1.0  0.42170  0.32480  0.73960  1.0000
  C   C79       1.0  0.57830  0.32480  0.26040  1.0000
  C   C80       1.0  0.57830  0.67520  0.73960  1.0000
  C   C81       1.0  0.26040  0.92170  0.17520  1.0000
  C   C82       1.0  0.73960  0.92170  0.82480  1.0000
  C   C83       1.0  0.26040  0.07830  0.82480  1.0000
  C   C84       1.0  0.73960  0.07830  0.17520  1.0000
  C   C85       1.0  0.17520  0.26040  0.92170  1.0000
  C   C86       1.0  0.82480  0.73960  0.92170  1.0000
  C   C87       1.0  0.82480  0.26040  0.07830  1.0000
  C   C88       1.0  0.17520  0.73960  0.07830  1.0000
  C   C89       1.0  0.42170  0.17520  0.76040  1.0000
  C   C90       1.0  0.42170  0.82480  0.23960  1.0000
  C   C91       1.0  0.57830  0.82480  0.76040  1.0000
  C   C92       1.0  0.57830  0.17520  0.23960  1.0000
  C   C93       1.0  0.26040  0.42170  0.67520  1.0000
  C   C94       1.0  0.73960  0.42170  0.32480  1.0000
  C   C95       1.0  0.26040  0.57830  0.32480  1.0000
  C   C96       1.0  0.73960  0.57830  0.67520  1.0000
  C   C97       1.0  0.33660  0.28600  0.03171  1.0000
  C   C98       1.0  0.66340  0.71400  0.03171  1.0000
  C   C99       1.0  0.66340  0.28600  0.96829  1.0000
  C   C100      1.0  0.33660  0.71400  0.96829  1.0000
  C   C101      1.0  0.03171  0.33660  0.28600  1.0000
  C   C102      1.0  0.03171  0.66340  0.71400  1.0000
  C   C103      1.0  0.96829  0.66340  0.28600  1.0000
  C   C104      1.0  0.96829  0.33660  0.71400  1.0000
  C   C105      1.0  0.28600  0.03171  0.33660  1.0000
  C   C106      1.0  0.71400  0.03171  0.66340  1.0000
  C   C107      1.0  0.28600  0.96829  0.66340  1.0000
  C   C108      1.0  0.71400  0.96829  0.33660  1.0000
  C   C109      1.0  0.33660  0.78600  0.53171  1.0000
  C   C110      1.0  0.66340  0.21400  0.53171  1.0000
  C   C111      1.0  0.66340  0.78600  0.46829  1.0000
  C   C112      1.0  0.33660  0.21400  0.46829  1.0000
  C   C113      1.0  0.03171  0.83660  0.78600  1.0000
  C   C114      1.0  0.03171  0.16340  0.21400  1.0000
  C   C115      1.0  0.96829  0.16340  0.78600  1.0000
  C   C116      1.0  0.96829  0.83660  0.21400  1.0000
  C   C117      1.0  0.28600  0.53171  0.83660  1.0000
  C   C118      1.0  0.71400  0.53171  0.16340  1.0000
  C   C119      1.0  0.28600  0.46829  0.16340  1.0000
  C   C120      1.0  0.71400  0.46829  0.83660  1.0000
  C   C121      1.0  0.83660  0.28600  0.53171  1.0000
  C   C122      1.0  0.16340  0.71400  0.53171  1.0000
  C   C123      1.0  0.16340  0.28600  0.46829  1.0000
  C   C124      1.0  0.83660  0.71400  0.46829  1.0000
  C   C125      1.0  0.53171  0.33660  0.78600  1.0000
  C   C126      1.0  0.53171  0.66340  0.21400  1.0000
  C   C127      1.0  0.46829  0.66340  0.78600  1.0000
  C   C128      1.0  0.46829  0.33660  0.21400  1.0000
  C   C129      1.0  0.78600  0.03171  0.83660  1.0000
  C   C130      1.0  0.21400  0.03171  0.16340  1.0000
  C   C131      1.0  0.78600  0.96829  0.16340  1.0000
  C   C132      1.0  0.21400  0.96829  0.83660  1.0000
  C   C133      1.0  0.83660  0.78600  0.03171  1.0000
  C   C134      1.0  0.16340  0.21400  0.03171  1.0000
  C   C135      1.0  0.16340  0.78600  0.96829  1.0000
  C   C136      1.0  0.83660  0.21400  0.96829  1.0000
  C   C137      1.0  0.53171  0.83660  0.28600  1.0000
  C   C138      1.0  0.53171  0.16340  0.71400  1.0000
  C   C139      1.0  0.46829  0.16340  0.28600  1.0000
  C   C140      1.0  0.46829  0.83660  0.71400  1.0000
  C   C141      1.0  0.78600  0.53171  0.33660  1.0000
  C   C142      1.0  0.21400  0.53171  0.66340  1.0000
  C   C143      1.0  0.78600  0.46829  0.66340  1.0000
  C   C144      1.0  0.21400  0.46829  0.33660  1.0000
  C   C145      1.0  0.66340  0.71400  0.96829  1.0000
  C   C146      1.0  0.33660  0.28600  0.96829  1.0000
  C   C147      1.0  0.33660  0.71400  0.03171  1.0000
  C   C148      1.0  0.66340  0.28600  0.03171  1.0000
  C   C149      1.0  0.96829  0.66340  0.71400  1.0000
  C   C150      1.0  0.96829  0.33660  0.28600  1.0000
  C   C151      1.0  0.03171  0.33660  0.71400  1.0000
  C   C152      1.0  0.03171  0.66340  0.28600  1.0000
  C   C153      1.0  0.71400  0.96829  0.66340  1.0000
  C   C154      1.0  0.28600  0.96829  0.33660  1.0000
  C   C155      1.0  0.71400  0.03171  0.33660  1.0000
  C   C156      1.0  0.28600  0.03171  0.66340  1.0000
  C   C157      1.0  0.66340  0.21400  0.46829  1.0000
  C   C158      1.0  0.33660  0.78600  0.46829  1.0000
  C   C159      1.0  0.33660  0.21400  0.53171  1.0000
  C   C160      1.0  0.66340  0.78600  0.53171  1.0000
  C   C161      1.0  0.96829  0.16340  0.21400  1.0000
  C   C162      1.0  0.96829  0.83660  0.78600  1.0000
  C   C163      1.0  0.03171  0.83660  0.21400  1.0000
  C   C164      1.0  0.03171  0.16340  0.78600  1.0000
  C   C165      1.0  0.71400  0.46829  0.16340  1.0000
  C   C166      1.0  0.28600  0.46829  0.83660  1.0000
  C   C167      1.0  0.71400  0.53171  0.83660  1.0000
  C   C168      1.0  0.28600  0.53171  0.16340  1.0000
  C   C169      1.0  0.16340  0.71400  0.46829  1.0000
  C   C170      1.0  0.83660  0.28600  0.46829  1.0000
  C   C171      1.0  0.83660  0.71400  0.53171  1.0000
  C   C172      1.0  0.16340  0.28600  0.53171  1.0000
  C   C173      1.0  0.46829  0.66340  0.21400  1.0000
  C   C174      1.0  0.46829  0.33660  0.78600  1.0000
  C   C175      1.0  0.53171  0.33660  0.21400  1.0000
  C   C176      1.0  0.53171  0.66340  0.78600  1.0000
  C   C177      1.0  0.21400  0.96829  0.16340  1.0000
  C   C178      1.0  0.78600  0.96829  0.83660  1.0000
  C   C179      1.0  0.21400  0.03171  0.83660  1.0000
  C   C180      1.0  0.78600  0.03171  0.16340  1.0000
  C   C181      1.0  0.16340  0.21400  0.96829  1.0000
  C   C182      1.0  0.83660  0.78600  0.96829  1.0000
  C   C183      1.0  0.83660  0.21400  0.03171  1.0000
  C   C184      1.0  0.16340  0.78600  0.03171  1.0000
  C   C185      1.0  0.46829  0.16340  0.71400  1.0000
  C   C186      1.0  0.46829  0.83660  0.28600  1.0000
  C   C187      1.0  0.53171  0.83660  0.71400  1.0000
  C   C188      1.0  0.53171  0.16340  0.28600  1.0000
  C   C189      1.0  0.21400  0.46829  0.66340  1.0000
  C   C190      1.0  0.78600  0.46829  0.33660  1.0000
  C   C191      1.0  0.21400  0.53171  0.33660  1.0000
  C   C192      1.0  0.78600  0.53171  0.66340  1.0000
  C   C193      1.0  0.35760  0.37780  0.00000  1.0000
  C   C194      1.0  0.64240  0.62220  0.00000  1.0000
  C   C195      1.0  0.64240  0.37780  0.00000  1.0000
  C   C196      1.0  0.35760  0.62220  0.00000  1.0000
  C   C197      1.0  0.00000  0.35760  0.37780  1.0000
  C   C198      1.0  0.00000  0.64240  0.62220  1.0000
  C   C199      1.0  0.00000  0.64240  0.37780  1.0000
  C   C200      1.0  0.00000  0.35760  0.62220  1.0000
  C   C201      1.0  0.37780  0.00000  0.35760  1.0000
  C   C202      1.0  0.62220  0.00000  0.64240  1.0000
  C   C203      1.0  0.37780  0.00000  0.64240  1.0000
  C   C204      1.0  0.62220  0.00000  0.35760  1.0000
  C   C205      1.0  0.35760  0.87780  0.50000  1.0000
  C   C206      1.0  0.64240  0.12220  0.50000  1.0000
  C   C207      1.0  0.64240  0.87780  0.50000  1.0000
  C   C208      1.0  0.35760  0.12220  0.50000  1.0000
  C   C209      1.0  0.00000  0.85760  0.87780  1.0000
  C   C210      1.0  0.00000  0.14240  0.12220  1.0000
  C   C211      1.0  0.00000  0.14240  0.87780  1.0000
  C   C212      1.0  0.00000  0.85760  0.12220  1.0000
  C   C213      1.0  0.37780  0.50000  0.85760  1.0000
  C   C214      1.0  0.62220  0.50000  0.14240  1.0000
  C   C215      1.0  0.37780  0.50000  0.14240  1.0000
  C   C216      1.0  0.62220  0.50000  0.85760  1.0000
  C   C217      1.0  0.85760  0.37780  0.50000  1.0000
  C   C218      1.0  0.14240  0.62220  0.50000  1.0000
  C   C219      1.0  0.14240  0.37780  0.50000  1.0000
  C   C220      1.0  0.85760  0.62220  0.50000  1.0000
  C   C221      1.0  0.50000  0.35760  0.87780  1.0000
  C   C222      1.0  0.50000  0.64240  0.12220  1.0000
  C   C223      1.0  0.50000  0.64240  0.87780  1.0000
  C   C224      1.0  0.50000  0.35760  0.12220  1.0000
  C   C225      1.0  0.87780  0.00000  0.85760  1.0000
  C   C226      1.0  0.12220  0.00000  0.14240  1.0000
  C   C227      1.0  0.87780  0.00000  0.14240  1.0000
  C   C228      1.0  0.12220  0.00000  0.85760  1.0000
  C   C229      1.0  0.85760  0.87780  0.00000  1.0000
  C   C230      1.0  0.14240  0.12220  0.00000  1.0000
  C   C231      1.0  0.14240  0.87780  0.00000  1.0000
  C   C232      1.0  0.85760  0.12220  0.00000  1.0000
  C   C233      1.0  0.50000  0.85760  0.37780  1.0000
  C   C234      1.0  0.50000  0.14240  0.62220  1.0000
  C   C235      1.0  0.50000  0.14240  0.37780  1.0000
  C   C236      1.0  0.50000  0.85760  0.62220  1.0000
  C   C237      1.0  0.87780  0.50000  0.35760  1.0000
  C   C238      1.0  0.12220  0.50000  0.64240  1.0000
  C   C239      1.0  0.87780  0.50000  0.64240  1.0000
  C   C240      1.0  0.12220  0.50000  0.35760  1.0000
  H   H1        1.0  0.38700  0.42400  0.00000  1.0000
  H   H2        1.0  0.61300  0.57600  0.00000  1.0000
  H   H3        1.0  0.61300  0.42400  0.00000  1.0000
  H   H4        1.0  0.38700  0.57600  0.00000  1.0000
  H   H5        1.0  0.00000  0.38700  0.42400  1.0000
  H   H6        1.0  0.00000  0.61300  0.57600  1.0000
  H   H7        1.0  0.00000  0.61300  0.42400  1.0000
  H   H8        1.0  0.00000  0.38700  0.57600  1.0000
  H   H9        1.0  0.42400  0.00000  0.38700  1.0000
  H   H10       1.0  0.57600  0.00000  0.61300  1.0000
  H   H11       1.0  0.42400  0.00000  0.61300  1.0000
  H   H12       1.0  0.57600  0.00000  0.38700  1.0000
  H   H13       1.0  0.38700  0.92400  0.50000  1.0000
  H   H14       1.0  0.61300  0.07600  0.50000  1.0000
  H   H15       1.0  0.61300  0.92400  0.50000  1.0000
  H   H16       1.0  0.38700  0.07600  0.50000  1.0000
  H   H17       1.0  0.00000  0.88700  0.92400  1.0000
  H   H18       1.0  0.00000  0.11300  0.07600  1.0000
  H   H19       1.0  0.00000  0.11300  0.92400  1.0000
  H   H20       1.0  0.00000  0.88700  0.07600  1.0000
  H   H21       1.0  0.42400  0.50000  0.88700  1.0000
  H   H22       1.0  0.57600  0.50000  0.11300  1.0000
  H   H23       1.0  0.42400  0.50000  0.11300  1.0000
  H   H24       1.0  0.57600  0.50000  0.88700  1.0000
  H   H25       1.0  0.88700  0.42400  0.50000  1.0000
  H   H26       1.0  0.11300  0.57600  0.50000  1.0000
  H   H27       1.0  0.11300  0.42400  0.50000  1.0000
  H   H28       1.0  0.88700  0.57600  0.50000  1.0000
  H   H29       1.0  0.50000  0.38700  0.92400  1.0000
  H   H30       1.0  0.50000  0.61300  0.07600  1.0000
  H   H31       1.0  0.50000  0.61300  0.92400  1.0000
  H   H32       1.0  0.50000  0.38700  0.07600  1.0000
  H   H33       1.0  0.92400  0.00000  0.88700  1.0000
  H   H34       1.0  0.07600  0.00000  0.11300  1.0000
  H   H35       1.0  0.92400  0.00000  0.11300  1.0000
  H   H36       1.0  0.07600  0.00000  0.88700  1.0000
  H   H37       1.0  0.88700  0.92400  0.00000  1.0000
  H   H38       1.0  0.11300  0.07600  0.00000  1.0000
  H   H39       1.0  0.11300  0.92400  0.00000  1.0000
  H   H40       1.0  0.88700  0.07600  0.00000  1.0000
  H   H41       1.0  0.50000  0.88700  0.42400  1.0000
  H   H42       1.0  0.50000  0.11300  0.57600  1.0000
  H   H43       1.0  0.50000  0.11300  0.42400  1.0000
  H   H44       1.0  0.50000  0.88700  0.57600  1.0000
  H   H45       1.0  0.92400  0.50000  0.38700  1.0000
  H   H46       1.0  0.07600  0.50000  0.61300  1.0000
  H   H47       1.0  0.92400  0.50000  0.61300  1.0000
  H   H48       1.0  0.07600  0.50000  0.38700  1.0000
