data_image0
_chemical_formula_structural       C8H2C2H2C2H2C2CuN2O8
_chemical_formula_sum              "C14 H6 Cu1 N2 O8"
_cell_length_a       6.5329
_cell_length_b       8.1345
_cell_length_c       14.0855
_cell_angle_alpha    90.364
_cell_angle_beta     92.104
_cell_angle_gamma    92.058

_space_group_name_H-M_alt    "P 1"
_space_group_IT_number       1

loop_
  _space_group_symop_operation_xyz
  'x, y, z'

loop_
  _atom_site_type_symbol
  _atom_site_label
  _atom_site_symmetry_multiplicity
  _atom_site_fract_x
  _atom_site_fract_y
  _atom_site_fract_z
  _atom_site_occupancy
  C   C1        1.0  0.65660  0.37110  0.40236  1.0000
  C   C2        1.0  0.34340  0.62890  0.59764  1.0000
  C   C3        1.0  0.63140  0.55490  0.40113  1.0000
  C   C4        1.0  0.36860  0.44510  0.59887  1.0000
  C   C5        1.0  0.47090  0.63230  0.35598  1.0000
  C   C6        1.0  0.52910  0.36770  0.64402  1.0000
  C   C7        1.0  0.46730  0.80350  0.36199  1.0000
  C   C8        1.0  0.53270  0.19650  0.63801  1.0000
  H   H1        1.0  0.35750  0.85870  0.33520  1.0000
  H   H2        1.0  0.64250  0.14130  0.66480  1.0000
  C   C9        1.0  0.62720  0.89010  0.40784  1.0000
  C   C10       1.0  0.37280  0.10990  0.59216  1.0000
  H   H3        1.0  0.62790  0.00430  0.41130  1.0000
  H   H4        1.0  0.37210  0.99570  0.58870  1.0000
  C   C11       1.0  0.78460  0.80580  0.44811  1.0000
  C   C12       1.0  0.21540  0.19420  0.55189  1.0000
  H   H5        1.0  0.89450  0.86460  0.47730  1.0000
  H   H6        1.0  0.10550  0.13540  0.52270  1.0000
  C   C13       1.0  0.30440  0.54200  0.29598  1.0000
  C   C14       1.0  0.69560  0.45800  0.70402  1.0000
  Cu  Cu1       1.0  0.00000  0.50000  0.50000  1.0000
  N   N1        1.0  0.78640  0.64150  0.44704  1.0000
  N   N2        1.0  0.21360  0.35850  0.55296  1.0000
  O   O1        1.0  0.82110  0.32350  0.44364  1.0000
  O   O2        1.0  0.17890  0.67650  0.55636  1.0000
  O   O3        1.0  0.52320  0.27950  0.36444  1.0000
  O   O4        1.0  0.47680  0.72050  0.63556  1.0000
  O   O5        1.0  0.13250  0.52190  0.32953  1.0000
  O   O6        1.0  0.86750  0.47810  0.67047  1.0000
  O   O7        1.0  0.35220  0.50430  0.21272  1.0000
  O   O8        1.0  0.64780  0.49570  0.78728  1.0000
