data_image0
_chemical_formula_structural       C14H6MnN2O8
_chemical_formula_sum              "C14 H6 Mn1 N2 O8"
_cell_length_a       6.6148
_cell_length_b       8.9184
_cell_length_c       13.4019
_cell_angle_alpha    77.094
_cell_angle_beta     80.684
_cell_angle_gamma    75.215

_space_group_name_H-M_alt    "P 1"
_space_group_IT_number       1

loop_
  _space_group_symop_operation_xyz
  'x, y, z'

loop_
  _atom_site_type_symbol
  _atom_site_label
  _atom_site_symmetry_multiplicity
  _atom_site_fract_x
  _atom_site_fract_y
  _atom_site_fract_z
  _atom_site_occupancy
  C   C1        1.0  0.15240  0.10680  0.36940  1.0000
  C   C2        1.0  0.84760  0.89320  0.63060  1.0000
  C   C3        1.0  0.06050  0.19100  0.45760  1.0000
  C   C4        1.0  0.93950  0.80900  0.54240  1.0000
  C   C5        1.0  0.85890  0.28670  0.46400  1.0000
  C   C6        1.0  0.14110  0.71330  0.53600  1.0000
  C   C7        1.0  0.79800  0.36330  0.54610  1.0000
  C   C8        1.0  0.20200  0.63670  0.45390  1.0000
  C   C9        1.0  0.92920  0.34740  0.61790  1.0000
  C   C10       1.0  0.07080  0.65260  0.38210  1.0000
  C   C11       1.0  0.12880  0.24990  0.60660  1.0000
  C   C12       1.0  0.87120  0.75010  0.39340  1.0000
  C   C13       1.0  0.70330  0.30750  0.38710  1.0000
  C   C14       1.0  0.29670  0.69250  0.61290  1.0000
  H   H1        1.0  0.67800  0.42400  0.55900  1.0000
  H   H2        1.0  0.32200  0.57600  0.44100  1.0000
  H   H3        1.0  0.89600  0.40700  0.67700  1.0000
  H   H4        1.0  0.10400  0.59300  0.32300  1.0000
  H   H5        1.0  0.22600  0.24500  0.65500  1.0000
  H   H6        1.0  0.77400  0.75500  0.34500  1.0000
  Mn  Mn1       1.0  0.50000  0.00000  0.50000  1.0000
  N   N1        1.0  0.19200  0.17130  0.53000  1.0000
  N   N2        1.0  0.80800  0.82870  0.47000  1.0000
  O   O1        1.0  0.32310  0.00350  0.37700  1.0000
  O   O2        1.0  0.67690  0.99650  0.62300  1.0000
  O   O3        1.0  0.05270  0.14660  0.29190  1.0000
  O   O4        1.0  0.94730  0.85340  0.70810  1.0000
  O   O5        1.0  0.59970  0.20470  0.39840  1.0000
  O   O6        1.0  0.40030  0.79530  0.60160  1.0000
  O   O7        1.0  0.68180  0.43040  0.32170  1.0000
  O   O8        1.0  0.31820  0.56960  0.67830  1.0000
