data_image0
_chemical_formula_structural       C12H4C4H4C20H4C4H4C8O32S8In4
_chemical_formula_sum              "C48 H16 O32 S8 In4"
_cell_length_a       10.2339
_cell_length_b       10.2339
_cell_length_c       23.648
_cell_angle_alpha    90
_cell_angle_beta     90
_cell_angle_gamma    90

_space_group_name_H-M_alt    "P 1"
_space_group_IT_number       1

loop_
  _space_group_symop_operation_xyz
  'x, y, z'

loop_
  _atom_site_type_symbol
  _atom_site_label
  _atom_site_symmetry_multiplicity
  _atom_site_fract_x
  _atom_site_fract_y
  _atom_site_fract_z
  _atom_site_occupancy
  C   C1        1.0  0.94010  0.38300  0.37460  1.0000
  C   C2        1.0  0.05990  0.61700  0.87460  1.0000
  C   C3        1.0  0.61700  0.94010  0.62460  1.0000
  C   C4        1.0  0.38300  0.05990  0.12460  1.0000
  C   C5        1.0  0.93250  0.24440  0.35730  1.0000
  C   C6        1.0  0.06750  0.75560  0.85730  1.0000
  C   C7        1.0  0.75560  0.93250  0.60730  1.0000
  C   C8        1.0  0.24440  0.06750  0.10730  1.0000
  C   C9        1.0  0.91060  0.19310  0.30430  1.0000
  C   C10       1.0  0.08940  0.80690  0.80430  1.0000
  C   C11       1.0  0.80690  0.91060  0.55430  1.0000
  C   C12       1.0  0.19310  0.08940  0.05430  1.0000
  H   H1        1.0  0.89590  0.24470  0.27150  1.0000
  H   H2        1.0  0.10410  0.75530  0.77150  1.0000
  H   H3        1.0  0.75530  0.89590  0.52150  1.0000
  H   H4        1.0  0.24470  0.10410  0.02150  1.0000
  C   C13       1.0  0.91250  0.05440  0.30420  1.0000
  C   C14       1.0  0.08750  0.94560  0.80420  1.0000
  C   C15       1.0  0.94560  0.91250  0.55420  1.0000
  C   C16       1.0  0.05440  0.08750  0.05420  1.0000
  H   H5        1.0  0.90060  0.00290  0.27120  1.0000
  H   H6        1.0  0.09940  0.99710  0.77120  1.0000
  H   H7        1.0  0.99710  0.90060  0.52120  1.0000
  H   H8        1.0  0.00290  0.09940  0.02120  1.0000
  C   C17       1.0  0.93320  0.00340  0.35670  1.0000
  C   C18       1.0  0.06680  0.99660  0.85670  1.0000
  C   C19       1.0  0.99660  0.93320  0.60670  1.0000
  C   C20       1.0  0.00340  0.06680  0.10670  1.0000
  C   C21       1.0  0.93820  0.86530  0.37380  1.0000
  C   C22       1.0  0.06180  0.13470  0.87380  1.0000
  C   C23       1.0  0.13470  0.93820  0.62380  1.0000
  C   C24       1.0  0.86530  0.06180  0.12380  1.0000
  C   C25       1.0  0.18540  0.62690  0.44770  1.0000
  C   C26       1.0  0.81460  0.37310  0.94770  1.0000
  C   C27       1.0  0.37310  0.18540  0.69770  1.0000
  C   C28       1.0  0.62690  0.81460  0.19770  1.0000
  C   C29       1.0  0.32610  0.62810  0.46670  1.0000
  C   C30       1.0  0.67390  0.37190  0.96670  1.0000
  C   C31       1.0  0.37190  0.32610  0.71670  1.0000
  C   C32       1.0  0.62810  0.67390  0.21670  1.0000
  C   C33       1.0  0.37430  0.65660  0.51980  1.0000
  C   C34       1.0  0.62570  0.34340  0.01980  1.0000
  C   C35       1.0  0.34340  0.37430  0.76980  1.0000
  C   C36       1.0  0.65660  0.62570  0.26980  1.0000
  H   H9        1.0  0.32120  0.67410  0.55180  1.0000
  H   H10       1.0  0.67880  0.32590  0.05180  1.0000
  H   H11       1.0  0.32590  0.32120  0.80180  1.0000
  H   H12       1.0  0.67410  0.67880  0.30180  1.0000
  C   C37       1.0  0.51180  0.65680  0.52070  1.0000
  C   C38       1.0  0.48820  0.34320  0.02070  1.0000
  C   C39       1.0  0.34320  0.51180  0.77070  1.0000
  C   C40       1.0  0.65680  0.48820  0.27070  1.0000
  H   H13       1.0  0.56150  0.67400  0.55380  1.0000
  H   H14       1.0  0.43850  0.32600  0.05380  1.0000
  H   H15       1.0  0.32600  0.56150  0.80380  1.0000
  H   H16       1.0  0.67400  0.43850  0.30380  1.0000
  C   C41       1.0  0.56730  0.62960  0.46920  1.0000
  C   C42       1.0  0.43270  0.37040  0.96920  1.0000
  C   C43       1.0  0.37040  0.56730  0.71920  1.0000
  C   C44       1.0  0.62960  0.43270  0.21920  1.0000
  C   C45       1.0  0.70790  0.62390  0.45250  1.0000
  C   C46       1.0  0.29210  0.37610  0.95250  1.0000
  C   C47       1.0  0.37610  0.70790  0.70250  1.0000
  C   C48       1.0  0.62390  0.29210  0.20250  1.0000
  O   O1        1.0  0.93940  0.47190  0.33820  1.0000
  O   O2        1.0  0.06060  0.52810  0.83820  1.0000
  O   O3        1.0  0.52810  0.93940  0.58820  1.0000
  O   O4        1.0  0.47190  0.06060  0.08820  1.0000
  O   O5        1.0  0.94960  0.40780  0.42700  1.0000
  O   O6        1.0  0.05040  0.59220  0.92700  1.0000
  O   O7        1.0  0.59220  0.94960  0.67700  1.0000
  O   O8        1.0  0.40780  0.05040  0.17700  1.0000
  O   O9        1.0  0.93390  0.77520  0.33860  1.0000
  O   O10       1.0  0.06610  0.22480  0.83860  1.0000
  O   O11       1.0  0.22480  0.93390  0.58860  1.0000
  O   O12       1.0  0.77520  0.06610  0.08860  1.0000
  O   O13       1.0  0.94690  0.83930  0.42650  1.0000
  O   O14       1.0  0.05310  0.16070  0.92650  1.0000
  O   O15       1.0  0.16070  0.94690  0.67650  1.0000
  O   O16       1.0  0.83930  0.05310  0.17650  1.0000
  O   O17       1.0  0.16370  0.62270  0.39580  1.0000
  O   O18       1.0  0.83630  0.37730  0.89580  1.0000
  O   O19       1.0  0.37730  0.16370  0.64580  1.0000
  O   O20       1.0  0.62270  0.83630  0.14580  1.0000
  O   O21       1.0  0.09760  0.62970  0.48500  1.0000
  O   O22       1.0  0.90240  0.37030  0.98500  1.0000
  O   O23       1.0  0.37030  0.09760  0.73500  1.0000
  O   O24       1.0  0.62970  0.90240  0.23500  1.0000
  O   O25       1.0  0.73050  0.61680  0.40060  1.0000
  O   O26       1.0  0.26950  0.38320  0.90060  1.0000
  O   O27       1.0  0.38320  0.73050  0.65060  1.0000
  O   O28       1.0  0.61680  0.26950  0.15060  1.0000
  O   O29       1.0  0.79540  0.62870  0.48880  1.0000
  O   O30       1.0  0.20460  0.37130  0.98880  1.0000
  O   O31       1.0  0.37130  0.79540  0.73880  1.0000
  O   O32       1.0  0.62870  0.20460  0.23880  1.0000
  S   S1        1.0  0.95100  0.12390  0.40785  1.0000
  S   S2        1.0  0.04900  0.87610  0.90785  1.0000
  S   S3        1.0  0.87610  0.95100  0.65785  1.0000
  S   S4        1.0  0.12390  0.04900  0.15785  1.0000
  S   S5        1.0  0.44800  0.60190  0.41846  1.0000
  S   S6        1.0  0.55200  0.39810  0.91846  1.0000
  S   S7        1.0  0.39810  0.44800  0.66846  1.0000
  S   S8        1.0  0.60190  0.55200  0.16846  1.0000
  In  In1       1.0  0.94596  0.62405  0.41149  1.0000
  In  In2       1.0  0.05404  0.37595  0.91149  1.0000
  In  In3       1.0  0.37595  0.94596  0.66149  1.0000
  In  In4       1.0  0.62405  0.05404  0.16149  1.0000
