data_image0
_chemical_formula_structural       C24H8Cl12In4O16S4
_chemical_formula_sum              "C24 H8 Cl12 In4 O16 S4"
_cell_length_a       12.2419
_cell_length_b       13.2271
_cell_length_c       10.2621
_cell_angle_alpha    90
_cell_angle_beta     90
_cell_angle_gamma    90

_space_group_name_H-M_alt    "P 1"
_space_group_IT_number       1

loop_
  _space_group_symop_operation_xyz
  'x, y, z'

loop_
  _atom_site_type_symbol
  _atom_site_label
  _atom_site_symmetry_multiplicity
  _atom_site_fract_x
  _atom_site_fract_y
  _atom_site_fract_z
  _atom_site_occupancy
  C   C1        1.0  0.00000  0.21860  0.49402  1.0000
  C   C2        1.0  0.00000  0.78140  0.99402  1.0000
  C   C3        1.0  0.00000  0.21860  0.00598  1.0000
  C   C4        1.0  0.00000  0.78140  0.50598  1.0000
  C   C5        1.0  0.50000  0.71860  0.49402  1.0000
  C   C6        1.0  0.50000  0.28140  0.99402  1.0000
  C   C7        1.0  0.50000  0.71860  0.00598  1.0000
  C   C8        1.0  0.50000  0.28140  0.50598  1.0000
  C   C9        1.0  0.00000  0.18348  0.63049  1.0000
  C   C10       1.0  0.00000  0.81652  0.13049  1.0000
  C   C11       1.0  0.00000  0.18348  0.86951  1.0000
  C   C12       1.0  0.00000  0.81652  0.36951  1.0000
  C   C13       1.0  0.50000  0.68348  0.63049  1.0000
  C   C14       1.0  0.50000  0.31652  0.13049  1.0000
  C   C15       1.0  0.50000  0.68348  0.86951  1.0000
  C   C16       1.0  0.50000  0.31652  0.36951  1.0000
  C   C17       1.0  0.00000  0.08662  0.68086  1.0000
  C   C18       1.0  0.00000  0.91338  0.18086  1.0000
  C   C19       1.0  0.00000  0.08662  0.81914  1.0000
  C   C20       1.0  0.00000  0.91338  0.31914  1.0000
  C   C21       1.0  0.50000  0.58662  0.68086  1.0000
  C   C22       1.0  0.50000  0.41338  0.18086  1.0000
  C   C23       1.0  0.50000  0.58662  0.81914  1.0000
  C   C24       1.0  0.50000  0.41338  0.31914  1.0000
  H   H1        1.0  0.00000  0.02710  0.62910  1.0000
  H   H2        1.0  0.00000  0.97290  0.12910  1.0000
  H   H3        1.0  0.00000  0.02710  0.87090  1.0000
  H   H4        1.0  0.00000  0.97290  0.37090  1.0000
  H   H5        1.0  0.50000  0.52710  0.62910  1.0000
  H   H6        1.0  0.50000  0.47290  0.12910  1.0000
  H   H7        1.0  0.50000  0.52710  0.87090  1.0000
  H   H8        1.0  0.50000  0.47290  0.37090  1.0000
  Cl  Cl1       1.0  0.19987  0.29561  0.25000  1.0000
  Cl  Cl2       1.0  0.80013  0.70439  0.75000  1.0000
  Cl  Cl3       1.0  0.80013  0.29561  0.25000  1.0000
  Cl  Cl4       1.0  0.19987  0.70439  0.75000  1.0000
  Cl  Cl5       1.0  0.69987  0.79561  0.25000  1.0000
  Cl  Cl6       1.0  0.30013  0.20439  0.75000  1.0000
  Cl  Cl7       1.0  0.30013  0.79561  0.25000  1.0000
  Cl  Cl8       1.0  0.69987  0.20439  0.75000  1.0000
  Cl  Cl9       1.0  0.00000  0.47997  0.25000  1.0000
  Cl  Cl10      1.0  0.00000  0.52003  0.75000  1.0000
  Cl  Cl11      1.0  0.50000  0.97997  0.25000  1.0000
  Cl  Cl12      1.0  0.50000  0.02003  0.75000  1.0000
  In  In1       1.0  0.00000  0.28513  0.25000  1.0000
  In  In2       1.0  0.00000  0.71487  0.75000  1.0000
  In  In3       1.0  0.50000  0.78513  0.25000  1.0000
  In  In4       1.0  0.50000  0.21487  0.75000  1.0000
  O   O1        1.0  0.00000  0.15649  0.40027  1.0000
  O   O2        1.0  0.00000  0.84351  0.90027  1.0000
  O   O3        1.0  0.00000  0.15649  0.09973  1.0000
  O   O4        1.0  0.00000  0.84351  0.59973  1.0000
  O   O5        1.0  0.50000  0.65649  0.40027  1.0000
  O   O6        1.0  0.50000  0.34351  0.90027  1.0000
  O   O7        1.0  0.50000  0.65649  0.09973  1.0000
  O   O8        1.0  0.50000  0.34351  0.59973  1.0000
  O   O9        1.0  0.00000  0.31352  0.47256  1.0000
  O   O10       1.0  0.00000  0.68648  0.97256  1.0000
  O   O11       1.0  0.00000  0.31352  0.02744  1.0000
  O   O12       1.0  0.00000  0.68648  0.52744  1.0000
  O   O13       1.0  0.50000  0.81352  0.47256  1.0000
  O   O14       1.0  0.50000  0.18648  0.97256  1.0000
  O   O15       1.0  0.50000  0.81352  0.02744  1.0000
  O   O16       1.0  0.50000  0.18648  0.52744  1.0000
  S   S1        1.0  0.00000  0.27356  0.75000  1.0000
  S   S2        1.0  0.00000  0.72644  0.25000  1.0000
  S   S3        1.0  0.50000  0.77356  0.75000  1.0000
  S   S4        1.0  0.50000  0.22644  0.25000  1.0000
