data_image0
_chemical_formula_structural       In4S8O32C24H8C8H8C16
_chemical_formula_sum              "In4 S8 O32 C48 H16"
_cell_length_a       13.9564
_cell_length_b       14.8593
_cell_length_c       11.1801
_cell_angle_alpha    90
_cell_angle_beta     96.977
_cell_angle_gamma    90

_space_group_name_H-M_alt    "P 1"
_space_group_IT_number       1

loop_
  _space_group_symop_operation_xyz
  'x, y, z'

loop_
  _atom_site_type_symbol
  _atom_site_label
  _atom_site_symmetry_multiplicity
  _atom_site_fract_x
  _atom_site_fract_y
  _atom_site_fract_z
  _atom_site_occupancy
  In  In1       1.0  0.00000  0.21701  0.25000  1.0000
  In  In2       1.0  0.50000  0.71701  0.25000  1.0000
  In  In3       1.0  0.00000  0.78299  0.75000  1.0000
  In  In4       1.0  0.50000  0.28299  0.75000  1.0000
  S   S1        1.0  0.24869  0.47208  0.26339  1.0000
  S   S2        1.0  0.75131  0.47208  0.23661  1.0000
  S   S3        1.0  0.74869  0.97208  0.26339  1.0000
  S   S4        1.0  0.25131  0.97208  0.23661  1.0000
  S   S5        1.0  0.75131  0.52792  0.73661  1.0000
  S   S6        1.0  0.24869  0.52792  0.76339  1.0000
  S   S7        1.0  0.25131  0.02792  0.73661  1.0000
  S   S8        1.0  0.74869  0.02792  0.76339  1.0000
  O   O1        1.0  0.10650  0.32430  0.21270  1.0000
  O   O2        1.0  0.89350  0.32430  0.28730  1.0000
  O   O3        1.0  0.60650  0.82430  0.21270  1.0000
  O   O4        1.0  0.39350  0.82430  0.28730  1.0000
  O   O5        1.0  0.89350  0.67570  0.78730  1.0000
  O   O6        1.0  0.10650  0.67570  0.71270  1.0000
  O   O7        1.0  0.39350  0.17570  0.78730  1.0000
  O   O8        1.0  0.60650  0.17570  0.71270  1.0000
  O   O9        1.0  0.10040  0.28340  0.40240  1.0000
  O   O10       1.0  0.89960  0.28340  0.09760  1.0000
  O   O11       1.0  0.60040  0.78340  0.40240  1.0000
  O   O12       1.0  0.39960  0.78340  0.09760  1.0000
  O   O13       1.0  0.89960  0.71660  0.59760  1.0000
  O   O14       1.0  0.10040  0.71660  0.90240  1.0000
  O   O15       1.0  0.39960  0.21660  0.59760  1.0000
  O   O16       1.0  0.60040  0.21660  0.90240  1.0000
  O   O17       1.0  0.38520  0.61500  0.23150  1.0000
  O   O18       1.0  0.61480  0.61500  0.26850  1.0000
  O   O19       1.0  0.88520  0.11500  0.23150  1.0000
  O   O20       1.0  0.11480  0.11500  0.26850  1.0000
  O   O21       1.0  0.61480  0.38500  0.76850  1.0000
  O   O22       1.0  0.38520  0.38500  0.73150  1.0000
  O   O23       1.0  0.11480  0.88500  0.76850  1.0000
  O   O24       1.0  0.88520  0.88500  0.73150  1.0000
  O   O25       1.0  0.44790  0.63360  0.41730  1.0000
  O   O26       1.0  0.55210  0.63360  0.08270  1.0000
  O   O27       1.0  0.94790  0.13360  0.41730  1.0000
  O   O28       1.0  0.05210  0.13360  0.08270  1.0000
  O   O29       1.0  0.55210  0.36640  0.58270  1.0000
  O   O30       1.0  0.44790  0.36640  0.91730  1.0000
  O   O31       1.0  0.05210  0.86640  0.58270  1.0000
  O   O32       1.0  0.94790  0.86640  0.91730  1.0000
  C   C1        1.0  0.13590  0.33010  0.32440  1.0000
  C   C2        1.0  0.86410  0.33010  0.17560  1.0000
  C   C3        1.0  0.63590  0.83010  0.32440  1.0000
  C   C4        1.0  0.36410  0.83010  0.17560  1.0000
  C   C5        1.0  0.86410  0.66990  0.67560  1.0000
  C   C6        1.0  0.13590  0.66990  0.82440  1.0000
  C   C7        1.0  0.36410  0.16990  0.67560  1.0000
  C   C8        1.0  0.63590  0.16990  0.82440  1.0000
  C   C9        1.0  0.21360  0.39500  0.36480  1.0000
  C   C10       1.0  0.78640  0.39500  0.13520  1.0000
  C   C11       1.0  0.71360  0.89500  0.36480  1.0000
  C   C12       1.0  0.28640  0.89500  0.13520  1.0000
  C   C13       1.0  0.78640  0.60500  0.63520  1.0000
  C   C14       1.0  0.21360  0.60500  0.86480  1.0000
  C   C15       1.0  0.28640  0.10500  0.63520  1.0000
  C   C16       1.0  0.71360  0.10500  0.86480  1.0000
  C   C17       1.0  0.26490  0.40380  0.47620  1.0000
  C   C18       1.0  0.73510  0.40380  0.02380  1.0000
  C   C19       1.0  0.76490  0.90380  0.47620  1.0000
  C   C20       1.0  0.23510  0.90380  0.02380  1.0000
  C   C21       1.0  0.73510  0.59620  0.52380  1.0000
  C   C22       1.0  0.26490  0.59620  0.97620  1.0000
  C   C23       1.0  0.23510  0.09620  0.52380  1.0000
  C   C24       1.0  0.76490  0.09620  0.97620  1.0000
  H   H1        1.0  0.25600  0.36660  0.54310  1.0000
  H   H2        1.0  0.74400  0.36660  0.95690  1.0000
  H   H3        1.0  0.75600  0.86660  0.54310  1.0000
  H   H4        1.0  0.24400  0.86660  0.95690  1.0000
  H   H5        1.0  0.74400  0.63340  0.45690  1.0000
  H   H6        1.0  0.25600  0.63340  0.04310  1.0000
  H   H7        1.0  0.24400  0.13340  0.45690  1.0000
  H   H8        1.0  0.75600  0.13340  0.04310  1.0000
  C   C25       1.0  0.33260  0.47460  0.48020  1.0000
  C   C26       1.0  0.66740  0.47460  0.01980  1.0000
  C   C27       1.0  0.83260  0.97460  0.48020  1.0000
  C   C28       1.0  0.16740  0.97460  0.01980  1.0000
  C   C29       1.0  0.66740  0.52540  0.51980  1.0000
  C   C30       1.0  0.33260  0.52540  0.98020  1.0000
  C   C31       1.0  0.16740  0.02540  0.51980  1.0000
  C   C32       1.0  0.83260  0.02540  0.98020  1.0000
  H   H9        1.0  0.37460  0.49000  0.55050  1.0000
  H   H10       1.0  0.62540  0.49000  0.94950  1.0000
  H   H11       1.0  0.87460  0.99000  0.55050  1.0000
  H   H12       1.0  0.12540  0.99000  0.94950  1.0000
  H   H13       1.0  0.62540  0.51000  0.44950  1.0000
  H   H14       1.0  0.37460  0.51000  0.05050  1.0000
  H   H15       1.0  0.12540  0.01000  0.44950  1.0000
  H   H16       1.0  0.87460  0.01000  0.05050  1.0000
  C   C33       1.0  0.33150  0.51860  0.37310  1.0000
  C   C34       1.0  0.66850  0.51860  0.12690  1.0000
  C   C35       1.0  0.83150  0.01860  0.37310  1.0000
  C   C36       1.0  0.16850  0.01860  0.12690  1.0000
  C   C37       1.0  0.66850  0.48140  0.62690  1.0000
  C   C38       1.0  0.33150  0.48140  0.87310  1.0000
  C   C39       1.0  0.16850  0.98140  0.62690  1.0000
  C   C40       1.0  0.83150  0.98140  0.87310  1.0000
  C   C41       1.0  0.39260  0.59630  0.34070  1.0000
  C   C42       1.0  0.60740  0.59630  0.15930  1.0000
  C   C43       1.0  0.89260  0.09630  0.34070  1.0000
  C   C44       1.0  0.10740  0.09630  0.15930  1.0000
  C   C45       1.0  0.60740  0.40370  0.65930  1.0000
  C   C46       1.0  0.39260  0.40370  0.84070  1.0000
  C   C47       1.0  0.10740  0.90370  0.65930  1.0000
  C   C48       1.0  0.89260  0.90370  0.84070  1.0000
