data_image0
_chemical_formula_structural       C12H4C4H4C20H4C4H4C8In4O32S8
_chemical_formula_sum              "C48 H16 In4 O32 S8"
_cell_length_a       10.1955
_cell_length_b       10.2208
_cell_length_c       27.279
_cell_angle_alpha    90
_cell_angle_beta     97.605
_cell_angle_gamma    90

_space_group_name_H-M_alt    "P 1"
_space_group_IT_number       1

loop_
  _space_group_symop_operation_xyz
  'x, y, z'

loop_
  _atom_site_type_symbol
  _atom_site_label
  _atom_site_symmetry_multiplicity
  _atom_site_fract_x
  _atom_site_fract_y
  _atom_site_fract_z
  _atom_site_occupancy
  C   C1        1.0  0.47570  0.94580  0.39679  1.0000
  C   C2        1.0  0.52430  0.44580  0.10321  1.0000
  C   C3        1.0  0.52430  0.05420  0.60321  1.0000
  C   C4        1.0  0.47570  0.55420  0.89679  1.0000
  C   C5        1.0  0.34180  0.94880  0.41286  1.0000
  C   C6        1.0  0.65820  0.44880  0.08714  1.0000
  C   C7        1.0  0.65820  0.05120  0.58714  1.0000
  C   C8        1.0  0.34180  0.55120  0.91286  1.0000
  C   C9        1.0  0.30620  0.96340  0.45952  1.0000
  C   C10       1.0  0.69380  0.46340  0.04048  1.0000
  C   C11       1.0  0.69380  0.03660  0.54048  1.0000
  C   C12       1.0  0.30620  0.53660  0.95952  1.0000
  H   H1        1.0  0.36800  0.97260  0.48860  1.0000
  H   H2        1.0  0.63200  0.47260  0.01140  1.0000
  H   H3        1.0  0.63200  0.02740  0.51140  1.0000
  H   H4        1.0  0.36800  0.52740  0.98860  1.0000
  C   C13       1.0  0.16790  0.96320  0.45939  1.0000
  C   C14       1.0  0.83210  0.46320  0.04061  1.0000
  C   C15       1.0  0.83210  0.03680  0.54061  1.0000
  C   C16       1.0  0.16790  0.53680  0.95939  1.0000
  H   H5        1.0  0.12610  0.97240  0.48830  1.0000
  H   H6        1.0  0.87390  0.47240  0.01170  1.0000
  H   H7        1.0  0.87390  0.02760  0.51170  1.0000
  H   H8        1.0  0.12610  0.52760  0.98830  1.0000
  C   C17       1.0  0.10030  0.94830  0.41264  1.0000
  C   C18       1.0  0.89970  0.44830  0.08736  1.0000
  C   C19       1.0  0.89970  0.05170  0.58736  1.0000
  C   C20       1.0  0.10030  0.55170  0.91264  1.0000
  C   C21       1.0  0.95620  0.94630  0.39628  1.0000
  C   C22       1.0  0.04380  0.44630  0.10372  1.0000
  C   C23       1.0  0.04380  0.05370  0.60372  1.0000
  C   C24       1.0  0.95620  0.55370  0.89628  1.0000
  C   C25       1.0  0.68550  0.18470  0.32825  1.0000
  C   C26       1.0  0.31450  0.68470  0.17175  1.0000
  C   C27       1.0  0.31450  0.81530  0.67175  1.0000
  C   C28       1.0  0.68550  0.31530  0.82825  1.0000
  C   C29       1.0  0.67330  0.32410  0.31288  1.0000
  C   C30       1.0  0.32670  0.82410  0.18712  1.0000
  C   C31       1.0  0.32670  0.67590  0.68712  1.0000
  C   C32       1.0  0.67330  0.17590  0.81288  1.0000
  C   C33       1.0  0.62900  0.37440  0.26676  1.0000
  C   C34       1.0  0.37100  0.87440  0.23324  1.0000
  C   C35       1.0  0.37100  0.62560  0.73324  1.0000
  C   C36       1.0  0.62900  0.12560  0.76676  1.0000
  H   H9        1.0  0.60230  0.32240  0.23830  1.0000
  H   H10       1.0  0.39770  0.82240  0.26170  1.0000
  H   H11       1.0  0.39770  0.67760  0.76170  1.0000
  H   H12       1.0  0.60230  0.17760  0.73830  1.0000
  C   C37       1.0  0.62810  0.51270  0.26689  1.0000
  C   C38       1.0  0.37190  0.01270  0.23311  1.0000
  C   C39       1.0  0.37190  0.48730  0.73311  1.0000
  C   C40       1.0  0.62810  0.98730  0.76689  1.0000
  H   H13       1.0  0.60040  0.56410  0.23840  1.0000
  H   H14       1.0  0.39960  0.06410  0.26160  1.0000
  H   H15       1.0  0.39960  0.43590  0.76160  1.0000
  H   H16       1.0  0.60040  0.93590  0.73840  1.0000
  C   C41       1.0  0.67150  0.56510  0.31260  1.0000
  C   C42       1.0  0.32850  0.06510  0.18740  1.0000
  C   C43       1.0  0.32850  0.43490  0.68740  1.0000
  C   C44       1.0  0.67150  0.93490  0.81260  1.0000
  C   C45       1.0  0.68530  0.70350  0.32785  1.0000
  C   C46       1.0  0.31470  0.20350  0.17215  1.0000
  C   C47       1.0  0.31470  0.29650  0.67215  1.0000
  C   C48       1.0  0.68530  0.79650  0.82785  1.0000
  In  In1       1.0  0.70305  0.94384  0.36361  1.0000
  In  In2       1.0  0.29695  0.44384  0.13639  1.0000
  In  In3       1.0  0.29695  0.05616  0.63639  1.0000
  In  In4       1.0  0.70305  0.55616  0.86361  1.0000
  O   O1        1.0  0.57650  0.94870  0.42836  1.0000
  O   O2        1.0  0.42350  0.44870  0.07164  1.0000
  O   O3        1.0  0.42350  0.05130  0.57164  1.0000
  O   O4        1.0  0.57650  0.55130  0.92836  1.0000
  O   O5        1.0  0.48150  0.93940  0.35155  1.0000
  O   O6        1.0  0.51850  0.43940  0.14845  1.0000
  O   O7        1.0  0.51850  0.06060  0.64845  1.0000
  O   O8        1.0  0.48150  0.56060  0.85155  1.0000
  O   O9        1.0  0.87680  0.94580  0.42813  1.0000
  O   O10       1.0  0.12320  0.44580  0.07187  1.0000
  O   O11       1.0  0.12320  0.05420  0.57187  1.0000
  O   O12       1.0  0.87680  0.55420  0.92813  1.0000
  O   O13       1.0  0.91610  0.94480  0.35093  1.0000
  O   O14       1.0  0.08390  0.44480  0.14907  1.0000
  O   O15       1.0  0.08390  0.05520  0.64907  1.0000
  O   O16       1.0  0.91610  0.55520  0.85093  1.0000
  O   O17       1.0  0.67220  0.09430  0.29672  1.0000
  O   O18       1.0  0.32780  0.59430  0.20328  1.0000
  O   O19       1.0  0.32780  0.90570  0.70328  1.0000
  O   O20       1.0  0.67220  0.40570  0.79672  1.0000
  O   O21       1.0  0.70790  0.15810  0.37491  1.0000
  O   O22       1.0  0.29210  0.65810  0.12509  1.0000
  O   O23       1.0  0.29210  0.84190  0.62509  1.0000
  O   O24       1.0  0.70790  0.34190  0.87491  1.0000
  O   O25       1.0  0.67020  0.79400  0.29638  1.0000
  O   O26       1.0  0.32980  0.29400  0.20362  1.0000
  O   O27       1.0  0.32980  0.20600  0.70362  1.0000
  O   O28       1.0  0.67020  0.70600  0.79638  1.0000
  O   O29       1.0  0.71200  0.72655  0.37329  1.0000
  O   O30       1.0  0.28800  0.22655  0.12671  1.0000
  O   O31       1.0  0.28800  0.27345  0.62671  1.0000
  O   O32       1.0  0.71200  0.77345  0.87329  1.0000
  S   S1        1.0  0.20637  0.93544  0.36872  1.0000
  S   S2        1.0  0.79363  0.43544  0.13128  1.0000
  S   S3        1.0  0.79363  0.06456  0.63128  1.0000
  S   S4        1.0  0.20637  0.56456  0.86872  1.0000
  S   S5        1.0  0.71154  0.44426  0.35644  1.0000
  S   S6        1.0  0.28846  0.94426  0.14356  1.0000
  S   S7        1.0  0.28846  0.55574  0.64356  1.0000
  S   S8        1.0  0.71154  0.05574  0.85644  1.0000
