data_image0
_chemical_formula_structural       C24H8C8H8C16O32S8In4
_chemical_formula_sum              "C48 H16 O32 S8 In4"
_cell_length_a       10.2068
_cell_length_b       10.2068
_cell_length_c       22.305
_cell_angle_alpha    90
_cell_angle_beta     90
_cell_angle_gamma    90

_space_group_name_H-M_alt    "P 1"
_space_group_IT_number       1

loop_
  _space_group_symop_operation_xyz
  'x, y, z'

loop_
  _atom_site_type_symbol
  _atom_site_label
  _atom_site_symmetry_multiplicity
  _atom_site_fract_x
  _atom_site_fract_y
  _atom_site_fract_z
  _atom_site_occupancy
  C   C1        1.0  0.57290  0.80310  0.04370  1.0000
  C   C2        1.0  0.42710  0.19690  0.54370  1.0000
  C   C3        1.0  0.69690  0.07290  0.29370  1.0000
  C   C4        1.0  0.30310  0.92710  0.79370  1.0000
  C   C5        1.0  0.92710  0.30310  0.20630  1.0000
  C   C6        1.0  0.07290  0.69690  0.70630  1.0000
  C   C7        1.0  0.80310  0.57290  0.95630  1.0000
  C   C8        1.0  0.19690  0.42710  0.45630  1.0000
  C   C9        1.0  0.58300  0.94520  0.05990  1.0000
  C   C10       1.0  0.41700  0.05480  0.55990  1.0000
  C   C11       1.0  0.55480  0.08300  0.30990  1.0000
  C   C12       1.0  0.44520  0.91700  0.80990  1.0000
  C   C13       1.0  0.91700  0.44520  0.19010  1.0000
  C   C14       1.0  0.08300  0.55480  0.69010  1.0000
  C   C15       1.0  0.94520  0.58300  0.94010  1.0000
  C   C16       1.0  0.05480  0.41700  0.44010  1.0000
  C   C17       1.0  0.61430  0.99770  0.11440  1.0000
  C   C18       1.0  0.38570  0.00230  0.61440  1.0000
  C   C19       1.0  0.50230  0.11430  0.36440  1.0000
  C   C20       1.0  0.49770  0.88570  0.86440  1.0000
  C   C21       1.0  0.88570  0.49770  0.13560  1.0000
  C   C22       1.0  0.11430  0.50230  0.63560  1.0000
  C   C23       1.0  0.99770  0.61430  0.88560  1.0000
  C   C24       1.0  0.00230  0.38570  0.38560  1.0000
  H   H1        1.0  0.63370  0.94710  0.14910  1.0000
  H   H2        1.0  0.36630  0.05290  0.64910  1.0000
  H   H3        1.0  0.55290  0.13370  0.39910  1.0000
  H   H4        1.0  0.44710  0.86630  0.89910  1.0000
  H   H5        1.0  0.86630  0.44710  0.10090  1.0000
  H   H6        1.0  0.13370  0.55290  0.60090  1.0000
  H   H7        1.0  0.94710  0.63370  0.85090  1.0000
  H   H8        1.0  0.05290  0.36630  0.35090  1.0000
  C   C25       1.0  0.61420  0.13680  0.11320  1.0000
  C   C26       1.0  0.38580  0.86320  0.61320  1.0000
  C   C27       1.0  0.36320  0.11420  0.36320  1.0000
  C   C28       1.0  0.63680  0.88580  0.86320  1.0000
  C   C29       1.0  0.88580  0.63680  0.13680  1.0000
  C   C30       1.0  0.11420  0.36320  0.63680  1.0000
  C   C31       1.0  0.13680  0.61420  0.88680  1.0000
  C   C32       1.0  0.86320  0.38580  0.38680  1.0000
  H   H9        1.0  0.63520  0.19000  0.14680  1.0000
  H   H10       1.0  0.36480  0.81000  0.64680  1.0000
  H   H11       1.0  0.31000  0.13520  0.39680  1.0000
  H   H12       1.0  0.69000  0.86480  0.89680  1.0000
  H   H13       1.0  0.86480  0.69000  0.10320  1.0000
  H   H14       1.0  0.13520  0.31000  0.60320  1.0000
  H   H15       1.0  0.19000  0.63520  0.85320  1.0000
  H   H16       1.0  0.81000  0.36480  0.35320  1.0000
  C   C33       1.0  0.58060  0.18590  0.05790  1.0000
  C   C34       1.0  0.41940  0.81410  0.55790  1.0000
  C   C35       1.0  0.31410  0.08060  0.30790  1.0000
  C   C36       1.0  0.68590  0.91940  0.80790  1.0000
  C   C37       1.0  0.91940  0.68590  0.19210  1.0000
  C   C38       1.0  0.08060  0.31410  0.69210  1.0000
  C   C39       1.0  0.18590  0.58060  0.94210  1.0000
  C   C40       1.0  0.81410  0.41940  0.44210  1.0000
  C   C41       1.0  0.57070  0.32420  0.03910  1.0000
  C   C42       1.0  0.42930  0.67580  0.53910  1.0000
  C   C43       1.0  0.17580  0.07070  0.28910  1.0000
  C   C44       1.0  0.82420  0.92930  0.78910  1.0000
  C   C45       1.0  0.92930  0.82420  0.21090  1.0000
  C   C46       1.0  0.07070  0.17580  0.71090  1.0000
  C   C47       1.0  0.32420  0.57070  0.96090  1.0000
  C   C48       1.0  0.67580  0.42930  0.46090  1.0000
  O   O1        1.0  0.56190  0.78000  0.98762  1.0000
  O   O2        1.0  0.43810  0.22000  0.48762  1.0000
  O   O3        1.0  0.72000  0.06190  0.23762  1.0000
  O   O4        1.0  0.28000  0.93810  0.73762  1.0000
  O   O5        1.0  0.93810  0.28000  0.26238  1.0000
  O   O6        1.0  0.06190  0.72000  0.76238  1.0000
  O   O7        1.0  0.78000  0.56190  0.01238  1.0000
  O   O8        1.0  0.22000  0.43810  0.51238  1.0000
  O   O9        1.0  0.57850  0.71610  0.08160  1.0000
  O   O10       1.0  0.42150  0.28390  0.58160  1.0000
  O   O11       1.0  0.78390  0.07850  0.33160  1.0000
  O   O12       1.0  0.21610  0.92150  0.83160  1.0000
  O   O13       1.0  0.92150  0.21610  0.16840  1.0000
  O   O14       1.0  0.07850  0.78390  0.66840  1.0000
  O   O15       1.0  0.71610  0.57850  0.91840  1.0000
  O   O16       1.0  0.28390  0.42150  0.41840  1.0000
  O   O17       1.0  0.56070  0.35020  0.98406  1.0000
  O   O18       1.0  0.43930  0.64980  0.48406  1.0000
  O   O19       1.0  0.14980  0.06070  0.23406  1.0000
  O   O20       1.0  0.85020  0.93930  0.73406  1.0000
  O   O21       1.0  0.93930  0.85020  0.26594  1.0000
  O   O22       1.0  0.06070  0.14980  0.76594  1.0000
  O   O23       1.0  0.35020  0.56070  0.01594  1.0000
  O   O24       1.0  0.64980  0.43930  0.51594  1.0000
  O   O25       1.0  0.57400  0.41480  0.07839  1.0000
  O   O26       1.0  0.42600  0.58520  0.57839  1.0000
  O   O27       1.0  0.08520  0.07400  0.32839  1.0000
  O   O28       1.0  0.91480  0.92600  0.82839  1.0000
  O   O29       1.0  0.92600  0.91480  0.17161  1.0000
  O   O30       1.0  0.07400  0.08520  0.67161  1.0000
  O   O31       1.0  0.41480  0.57400  0.92161  1.0000
  O   O32       1.0  0.58520  0.42600  0.42161  1.0000
  S   S1        1.0  0.55186  0.06374  0.00646  1.0000
  S   S2        1.0  0.44814  0.93626  0.50646  1.0000
  S   S3        1.0  0.43626  0.05186  0.25646  1.0000
  S   S4        1.0  0.56374  0.94814  0.75646  1.0000
  S   S5        1.0  0.94814  0.56374  0.24354  1.0000
  S   S6        1.0  0.05186  0.43626  0.74354  1.0000
  S   S7        1.0  0.06374  0.55186  0.99354  1.0000
  S   S8        1.0  0.93626  0.44814  0.49354  1.0000
  In  In1       1.0  0.56475  0.56475  0.00000  1.0000
  In  In2       1.0  0.43525  0.43525  0.50000  1.0000
  In  In3       1.0  0.93525  0.06475  0.25000  1.0000
  In  In4       1.0  0.06475  0.93525  0.75000  1.0000
