data_image0
_chemical_formula_structural       Zn48N64S40O176C48H16C48H16C48H16C48H16C48H16C32H16C48H16
_chemical_formula_sum              "Zn48 N64 S40 O176 C320 H112"
_cell_length_a       30.687
_cell_length_b       30.687
_cell_length_c       25.952
_cell_angle_alpha    90
_cell_angle_beta     90
_cell_angle_gamma    90

_space_group_name_H-M_alt    "P 1"
_space_group_IT_number       1

loop_
  _space_group_symop_operation_xyz
  'x, y, z'

loop_
  _atom_site_type_symbol
  _atom_site_label
  _atom_site_symmetry_multiplicity
  _atom_site_fract_x
  _atom_site_fract_y
  _atom_site_fract_z
  _atom_site_occupancy
  Zn  Zn1       1.0  0.51441  0.26923  0.20858  1.0000
  Zn  Zn2       1.0  0.48559  0.73077  0.20858  1.0000
  Zn  Zn3       1.0  0.23077  0.01441  0.70858  1.0000
  Zn  Zn4       1.0  0.76923  0.98559  0.70858  1.0000
  Zn  Zn5       1.0  0.98559  0.76923  0.29142  1.0000
  Zn  Zn6       1.0  0.01441  0.23077  0.29142  1.0000
  Zn  Zn7       1.0  0.26923  0.51441  0.79142  1.0000
  Zn  Zn8       1.0  0.73077  0.48559  0.79142  1.0000
  Zn  Zn9       1.0  0.48559  0.73077  0.79142  1.0000
  Zn  Zn10      1.0  0.51441  0.26923  0.79142  1.0000
  Zn  Zn11      1.0  0.76923  0.98559  0.29142  1.0000
  Zn  Zn12      1.0  0.23077  0.01441  0.29142  1.0000
  Zn  Zn13      1.0  0.01441  0.23077  0.70858  1.0000
  Zn  Zn14      1.0  0.98559  0.76923  0.70858  1.0000
  Zn  Zn15      1.0  0.73077  0.48559  0.20858  1.0000
  Zn  Zn16      1.0  0.26923  0.51441  0.20858  1.0000
  Zn  Zn17      1.0  0.41492  0.21966  0.16721  1.0000
  Zn  Zn18      1.0  0.58508  0.78034  0.16721  1.0000
  Zn  Zn19      1.0  0.28034  0.91492  0.66721  1.0000
  Zn  Zn20      1.0  0.71966  0.08508  0.66721  1.0000
  Zn  Zn21      1.0  0.08508  0.71966  0.33279  1.0000
  Zn  Zn22      1.0  0.91492  0.28034  0.33279  1.0000
  Zn  Zn23      1.0  0.21966  0.41492  0.83279  1.0000
  Zn  Zn24      1.0  0.78034  0.58508  0.83279  1.0000
  Zn  Zn25      1.0  0.58508  0.78034  0.83279  1.0000
  Zn  Zn26      1.0  0.41492  0.21966  0.83279  1.0000
  Zn  Zn27      1.0  0.71966  0.08508  0.33279  1.0000
  Zn  Zn28      1.0  0.28034  0.91492  0.33279  1.0000
  Zn  Zn29      1.0  0.91492  0.28034  0.66721  1.0000
  Zn  Zn30      1.0  0.08508  0.71966  0.66721  1.0000
  Zn  Zn31      1.0  0.78034  0.58508  0.16721  1.0000
  Zn  Zn32      1.0  0.21966  0.41492  0.16721  1.0000
  Zn  Zn33      1.0  0.36573  0.12332  0.20741  1.0000
  Zn  Zn34      1.0  0.63427  0.87668  0.20741  1.0000
  Zn  Zn35      1.0  0.37668  0.86573  0.70741  1.0000
  Zn  Zn36      1.0  0.62332  0.13427  0.70741  1.0000
  Zn  Zn37      1.0  0.13427  0.62332  0.29259  1.0000
  Zn  Zn38      1.0  0.86573  0.37668  0.29259  1.0000
  Zn  Zn39      1.0  0.12332  0.36573  0.79259  1.0000
  Zn  Zn40      1.0  0.87668  0.63427  0.79259  1.0000
  Zn  Zn41      1.0  0.63427  0.87668  0.79259  1.0000
  Zn  Zn42      1.0  0.36573  0.12332  0.79259  1.0000
  Zn  Zn43      1.0  0.62332  0.13427  0.29259  1.0000
  Zn  Zn44      1.0  0.37668  0.86573  0.29259  1.0000
  Zn  Zn45      1.0  0.86573  0.37668  0.70741  1.0000
  Zn  Zn46      1.0  0.13427  0.62332  0.70741  1.0000
  Zn  Zn47      1.0  0.87668  0.63427  0.20741  1.0000
  Zn  Zn48      1.0  0.12332  0.36573  0.20741  1.0000
  N   N1        1.0  0.44483  0.18043  0.21700  1.0000
  N   N2        1.0  0.55517  0.81957  0.21700  1.0000
  N   N3        1.0  0.31957  0.94483  0.71700  1.0000
  N   N4        1.0  0.68043  0.05517  0.71700  1.0000
  N   N5        1.0  0.05517  0.68043  0.28300  1.0000
  N   N6        1.0  0.94483  0.31957  0.28300  1.0000
  N   N7        1.0  0.18043  0.44483  0.78300  1.0000
  N   N8        1.0  0.81957  0.55517  0.78300  1.0000
  N   N9        1.0  0.55517  0.81957  0.78300  1.0000
  N   N10       1.0  0.44483  0.18043  0.78300  1.0000
  N   N11       1.0  0.68043  0.05517  0.28300  1.0000
  N   N12       1.0  0.31957  0.94483  0.28300  1.0000
  N   N13       1.0  0.94483  0.31957  0.71700  1.0000
  N   N14       1.0  0.05517  0.68043  0.71700  1.0000
  N   N15       1.0  0.81957  0.55517  0.21700  1.0000
  N   N16       1.0  0.18043  0.44483  0.21700  1.0000
  N   N17       1.0  0.42339  0.14219  0.23310  1.0000
  N   N18       1.0  0.57661  0.85781  0.23310  1.0000
  N   N19       1.0  0.35781  0.92339  0.73310  1.0000
  N   N20       1.0  0.64219  0.07661  0.73310  1.0000
  N   N21       1.0  0.07661  0.64219  0.26690  1.0000
  N   N22       1.0  0.92339  0.35781  0.26690  1.0000
  N   N23       1.0  0.14219  0.42339  0.76690  1.0000
  N   N24       1.0  0.85781  0.57661  0.76690  1.0000
  N   N25       1.0  0.57661  0.85781  0.76690  1.0000
  N   N26       1.0  0.42339  0.14219  0.76690  1.0000
  N   N27       1.0  0.64219  0.07661  0.26690  1.0000
  N   N28       1.0  0.35781  0.92339  0.26690  1.0000
  N   N29       1.0  0.92339  0.35781  0.73310  1.0000
  N   N30       1.0  0.07661  0.64219  0.73310  1.0000
  N   N31       1.0  0.85781  0.57661  0.23310  1.0000
  N   N32       1.0  0.14219  0.42339  0.23310  1.0000
  N   N33       1.0  0.51849  0.20663  0.22993  1.0000
  N   N34       1.0  0.48151  0.79337  0.22993  1.0000
  N   N35       1.0  0.29337  0.01849  0.72993  1.0000
  N   N36       1.0  0.70663  0.98151  0.72993  1.0000
  N   N37       1.0  0.98151  0.70663  0.27007  1.0000
  N   N38       1.0  0.01849  0.29337  0.27007  1.0000
  N   N39       1.0  0.20663  0.51849  0.77007  1.0000
  N   N40       1.0  0.79337  0.48151  0.77007  1.0000
  N   N41       1.0  0.48151  0.79337  0.77007  1.0000
  N   N42       1.0  0.51849  0.20663  0.77007  1.0000
  N   N43       1.0  0.70663  0.98151  0.27007  1.0000
  N   N44       1.0  0.29337  0.01849  0.27007  1.0000
  N   N45       1.0  0.01849  0.29337  0.72993  1.0000
  N   N46       1.0  0.98151  0.70663  0.72993  1.0000
  N   N47       1.0  0.79337  0.48151  0.22993  1.0000
  N   N48       1.0  0.20663  0.51849  0.22993  1.0000
  N   N49       1.0  0.56505  0.15535  0.27030  1.0000
  N   N50       1.0  0.43495  0.84465  0.27030  1.0000
  N   N51       1.0  0.34465  0.06505  0.77030  1.0000
  N   N52       1.0  0.65535  0.93495  0.77030  1.0000
  N   N53       1.0  0.93495  0.65535  0.22970  1.0000
  N   N54       1.0  0.06505  0.34465  0.22970  1.0000
  N   N55       1.0  0.15535  0.56505  0.72970  1.0000
  N   N56       1.0  0.84465  0.43495  0.72970  1.0000
  N   N57       1.0  0.43495  0.84465  0.72970  1.0000
  N   N58       1.0  0.56505  0.15535  0.72970  1.0000
  N   N59       1.0  0.65535  0.93495  0.22970  1.0000
  N   N60       1.0  0.34465  0.06505  0.22970  1.0000
  N   N61       1.0  0.06505  0.34465  0.77030  1.0000
  N   N62       1.0  0.93495  0.65535  0.77030  1.0000
  N   N63       1.0  0.84465  0.43495  0.27030  1.0000
  N   N64       1.0  0.15535  0.56505  0.27030  1.0000
  S   S1        1.0  0.35673  0.35673  0.18682  1.0000
  S   S2        1.0  0.64327  0.64327  0.18682  1.0000
  S   S3        1.0  0.14327  0.85673  0.68682  1.0000
  S   S4        1.0  0.85673  0.14327  0.68682  1.0000
  S   S5        1.0  0.14327  0.85673  0.31318  1.0000
  S   S6        1.0  0.85673  0.14327  0.31318  1.0000
  S   S7        1.0  0.35673  0.35673  0.81318  1.0000
  S   S8        1.0  0.64327  0.64327  0.81318  1.0000
  S   S9        1.0  0.47881  0.23337  0.00000  1.0000
  S   S10       1.0  0.52119  0.76663  0.00000  1.0000
  S   S11       1.0  0.26663  0.97881  0.50000  1.0000
  S   S12       1.0  0.73337  0.02119  0.50000  1.0000
  S   S13       1.0  0.02119  0.73337  0.50000  1.0000
  S   S14       1.0  0.97881  0.26663  0.50000  1.0000
  S   S15       1.0  0.23337  0.47881  0.00000  1.0000
  S   S16       1.0  0.76663  0.52119  0.00000  1.0000
  S   S17       1.0  0.27852  0.27852  0.22048  1.0000
  S   S18       1.0  0.72148  0.72148  0.22048  1.0000
  S   S19       1.0  0.22148  0.77852  0.72048  1.0000
  S   S20       1.0  0.77852  0.22148  0.72048  1.0000
  S   S21       1.0  0.22148  0.77852  0.27952  1.0000
  S   S22       1.0  0.77852  0.22148  0.27952  1.0000
  S   S23       1.0  0.27852  0.27852  0.77952  1.0000
  S   S24       1.0  0.72148  0.72148  0.77952  1.0000
  S   S25       1.0  0.37852  0.17594  0.00000  1.0000
  S   S26       1.0  0.62148  0.82406  0.00000  1.0000
  S   S27       1.0  0.32406  0.87852  0.50000  1.0000
  S   S28       1.0  0.67594  0.12148  0.50000  1.0000
  S   S29       1.0  0.12148  0.67594  0.50000  1.0000
  S   S30       1.0  0.87852  0.32406  0.50000  1.0000
  S   S31       1.0  0.17594  0.37852  0.00000  1.0000
  S   S32       1.0  0.82406  0.62148  0.00000  1.0000
  S   S33       1.0  0.63509  0.36491  0.24623  1.0000
  S   S34       1.0  0.36491  0.63509  0.24623  1.0000
  S   S35       1.0  0.13509  0.13509  0.74623  1.0000
  S   S36       1.0  0.86491  0.86491  0.74623  1.0000
  S   S37       1.0  0.86491  0.86491  0.25377  1.0000
  S   S38       1.0  0.13509  0.13509  0.25377  1.0000
  S   S39       1.0  0.36491  0.63509  0.75377  1.0000
  S   S40       1.0  0.63509  0.36491  0.75377  1.0000
  O   O1        1.0  0.46435  0.30289  0.23160  1.0000
  O   O2        1.0  0.53565  0.69711  0.23160  1.0000
  O   O3        1.0  0.19711  0.96435  0.73160  1.0000
  O   O4        1.0  0.80289  0.03565  0.73160  1.0000
  O   O5        1.0  0.03565  0.80289  0.26840  1.0000
  O   O6        1.0  0.96435  0.19711  0.26840  1.0000
  O   O7        1.0  0.30289  0.46435  0.76840  1.0000
  O   O8        1.0  0.69711  0.53565  0.76840  1.0000
  O   O9        1.0  0.53565  0.69711  0.76840  1.0000
  O   O10       1.0  0.46435  0.30289  0.76840  1.0000
  O   O11       1.0  0.80289  0.03565  0.26840  1.0000
  O   O12       1.0  0.19711  0.96435  0.26840  1.0000
  O   O13       1.0  0.96435  0.19711  0.73160  1.0000
  O   O14       1.0  0.03565  0.80289  0.73160  1.0000
  O   O15       1.0  0.69711  0.53565  0.23160  1.0000
  O   O16       1.0  0.30289  0.46435  0.23160  1.0000
  O   O17       1.0  0.41283  0.28235  0.17390  1.0000
  O   O18       1.0  0.58717  0.71765  0.17390  1.0000
  O   O19       1.0  0.21765  0.91283  0.67390  1.0000
  O   O20       1.0  0.78235  0.08717  0.67390  1.0000
  O   O21       1.0  0.08717  0.78235  0.32610  1.0000
  O   O22       1.0  0.91283  0.21765  0.32610  1.0000
  O   O23       1.0  0.28235  0.41283  0.82610  1.0000
  O   O24       1.0  0.71765  0.58717  0.82610  1.0000
  O   O25       1.0  0.58717  0.71765  0.82610  1.0000
  O   O26       1.0  0.41283  0.28235  0.82610  1.0000
  O   O27       1.0  0.78235  0.08717  0.32610  1.0000
  O   O28       1.0  0.21765  0.91283  0.32610  1.0000
  O   O29       1.0  0.91283  0.21765  0.67390  1.0000
  O   O30       1.0  0.08717  0.78235  0.67390  1.0000
  O   O31       1.0  0.71765  0.58717  0.17390  1.0000
  O   O32       1.0  0.28235  0.41283  0.17390  1.0000
  O   O33       1.0  0.51710  0.27753  0.13384  1.0000
  O   O34       1.0  0.48290  0.72247  0.13384  1.0000
  O   O35       1.0  0.22247  0.01710  0.63384  1.0000
  O   O36       1.0  0.77753  0.98290  0.63384  1.0000
  O   O37       1.0  0.98290  0.77753  0.36616  1.0000
  O   O38       1.0  0.01710  0.22247  0.36616  1.0000
  O   O39       1.0  0.27753  0.51710  0.86616  1.0000
  O   O40       1.0  0.72247  0.48290  0.86616  1.0000
  O   O41       1.0  0.48290  0.72247  0.86616  1.0000
  O   O42       1.0  0.51710  0.27753  0.86616  1.0000
  O   O43       1.0  0.77753  0.98290  0.36616  1.0000
  O   O44       1.0  0.22247  0.01710  0.36616  1.0000
  O   O45       1.0  0.01710  0.22247  0.63384  1.0000
  O   O46       1.0  0.98290  0.77753  0.63384  1.0000
  O   O47       1.0  0.72247  0.48290  0.13384  1.0000
  O   O48       1.0  0.27753  0.51710  0.13384  1.0000
  O   O49       1.0  0.46829  0.22569  0.11399  1.0000
  O   O50       1.0  0.53171  0.77431  0.11399  1.0000
  O   O51       1.0  0.27431  0.96829  0.61399  1.0000
  O   O52       1.0  0.72569  0.03171  0.61399  1.0000
  O   O53       1.0  0.03171  0.72569  0.38601  1.0000
  O   O54       1.0  0.96829  0.27431  0.38601  1.0000
  O   O55       1.0  0.22569  0.46829  0.88601  1.0000
  O   O56       1.0  0.77431  0.53171  0.88601  1.0000
  O   O57       1.0  0.53171  0.77431  0.88601  1.0000
  O   O58       1.0  0.46829  0.22569  0.88601  1.0000
  O   O59       1.0  0.72569  0.03171  0.38601  1.0000
  O   O60       1.0  0.27431  0.96829  0.38601  1.0000
  O   O61       1.0  0.96829  0.27431  0.61399  1.0000
  O   O62       1.0  0.03171  0.72569  0.61399  1.0000
  O   O63       1.0  0.77431  0.53171  0.11399  1.0000
  O   O64       1.0  0.22569  0.46829  0.11399  1.0000
  O   O65       1.0  0.35411  0.21980  0.21168  1.0000
  O   O66       1.0  0.64589  0.78020  0.21168  1.0000
  O   O67       1.0  0.28020  0.85411  0.71168  1.0000
  O   O68       1.0  0.71980  0.14589  0.71168  1.0000
  O   O69       1.0  0.14589  0.71980  0.28832  1.0000
  O   O70       1.0  0.85411  0.28020  0.28832  1.0000
  O   O71       1.0  0.21980  0.35411  0.78832  1.0000
  O   O72       1.0  0.78020  0.64589  0.78832  1.0000
  O   O73       1.0  0.64589  0.78020  0.78832  1.0000
  O   O74       1.0  0.35411  0.21980  0.78832  1.0000
  O   O75       1.0  0.71980  0.14589  0.28832  1.0000
  O   O76       1.0  0.28020  0.85411  0.28832  1.0000
  O   O77       1.0  0.85411  0.28020  0.71168  1.0000
  O   O78       1.0  0.14589  0.71980  0.71168  1.0000
  O   O79       1.0  0.78020  0.64589  0.21168  1.0000
  O   O80       1.0  0.21980  0.35411  0.21168  1.0000
  O   O81       1.0  0.31833  0.15901  0.23160  1.0000
  O   O82       1.0  0.68167  0.84099  0.23160  1.0000
  O   O83       1.0  0.34099  0.81833  0.73160  1.0000
  O   O84       1.0  0.65901  0.18167  0.73160  1.0000
  O   O85       1.0  0.18167  0.65901  0.26840  1.0000
  O   O86       1.0  0.81833  0.34099  0.26840  1.0000
  O   O87       1.0  0.15901  0.31833  0.76840  1.0000
  O   O88       1.0  0.84099  0.68167  0.76840  1.0000
  O   O89       1.0  0.68167  0.84099  0.76840  1.0000
  O   O90       1.0  0.31833  0.15901  0.76840  1.0000
  O   O91       1.0  0.65901  0.18167  0.26840  1.0000
  O   O92       1.0  0.34099  0.81833  0.26840  1.0000
  O   O93       1.0  0.81833  0.34099  0.73160  1.0000
  O   O94       1.0  0.18167  0.65901  0.73160  1.0000
  O   O95       1.0  0.84099  0.68167  0.23160  1.0000
  O   O96       1.0  0.15901  0.31833  0.23160  1.0000
  O   O97       1.0  0.38610  0.18965  0.11110  1.0000
  O   O98       1.0  0.61390  0.81035  0.11110  1.0000
  O   O99       1.0  0.31035  0.88610  0.61110  1.0000
  O   O100      1.0  0.68965  0.11390  0.61110  1.0000
  O   O101      1.0  0.11390  0.68965  0.38890  1.0000
  O   O102      1.0  0.88610  0.31035  0.38890  1.0000
  O   O103      1.0  0.18965  0.38610  0.88890  1.0000
  O   O104      1.0  0.81035  0.61390  0.88890  1.0000
  O   O105      1.0  0.61390  0.81035  0.88890  1.0000
  O   O106      1.0  0.38610  0.18965  0.88890  1.0000
  O   O107      1.0  0.68965  0.11390  0.38890  1.0000
  O   O108      1.0  0.31035  0.88610  0.38890  1.0000
  O   O109      1.0  0.88610  0.31035  0.61110  1.0000
  O   O110      1.0  0.11390  0.68965  0.61110  1.0000
  O   O111      1.0  0.81035  0.61390  0.11110  1.0000
  O   O112      1.0  0.18965  0.38610  0.11110  1.0000
  O   O113      1.0  0.36230  0.12382  0.13330  1.0000
  O   O114      1.0  0.63770  0.87618  0.13330  1.0000
  O   O115      1.0  0.37618  0.86230  0.63330  1.0000
  O   O116      1.0  0.62382  0.13770  0.63330  1.0000
  O   O117      1.0  0.13770  0.62382  0.36670  1.0000
  O   O118      1.0  0.86230  0.37618  0.36670  1.0000
  O   O119      1.0  0.12382  0.36230  0.86670  1.0000
  O   O120      1.0  0.87618  0.63770  0.86670  1.0000
  O   O121      1.0  0.63770  0.87618  0.86670  1.0000
  O   O122      1.0  0.36230  0.12382  0.86670  1.0000
  O   O123      1.0  0.62382  0.13770  0.36670  1.0000
  O   O124      1.0  0.37618  0.86230  0.36670  1.0000
  O   O125      1.0  0.86230  0.37618  0.63330  1.0000
  O   O126      1.0  0.13770  0.62382  0.63330  1.0000
  O   O127      1.0  0.87618  0.63770  0.13330  1.0000
  O   O128      1.0  0.12382  0.36230  0.13330  1.0000
  O   O129      1.0  0.56747  0.29982  0.22840  1.0000
  O   O130      1.0  0.43253  0.70018  0.22840  1.0000
  O   O131      1.0  0.20018  0.06747  0.72840  1.0000
  O   O132      1.0  0.79982  0.93253  0.72840  1.0000
  O   O133      1.0  0.93253  0.79982  0.27160  1.0000
  O   O134      1.0  0.06747  0.20018  0.27160  1.0000
  O   O135      1.0  0.29982  0.56747  0.77160  1.0000
  O   O136      1.0  0.70018  0.43253  0.77160  1.0000
  O   O137      1.0  0.43253  0.70018  0.77160  1.0000
  O   O138      1.0  0.56747  0.29982  0.77160  1.0000
  O   O139      1.0  0.79982  0.93253  0.27160  1.0000
  O   O140      1.0  0.20018  0.06747  0.27160  1.0000
  O   O141      1.0  0.06747  0.20018  0.72840  1.0000
  O   O142      1.0  0.93253  0.79982  0.72840  1.0000
  O   O143      1.0  0.70018  0.43253  0.22840  1.0000
  O   O144      1.0  0.29982  0.56747  0.22840  1.0000
  O   O145      1.0  0.55031  0.28723  0.31060  1.0000
  O   O146      1.0  0.44969  0.71277  0.31060  1.0000
  O   O147      1.0  0.21277  0.05031  0.81060  1.0000
  O   O148      1.0  0.78723  0.94969  0.81060  1.0000
  O   O149      1.0  0.94969  0.78723  0.18940  1.0000
  O   O150      1.0  0.05031  0.21277  0.18940  1.0000
  O   O151      1.0  0.28723  0.55031  0.68940  1.0000
  O   O152      1.0  0.71277  0.44969  0.68940  1.0000
  O   O153      1.0  0.44969  0.71277  0.68940  1.0000
  O   O154      1.0  0.55031  0.28723  0.68940  1.0000
  O   O155      1.0  0.78723  0.94969  0.18940  1.0000
  O   O156      1.0  0.21277  0.05031  0.18940  1.0000
  O   O157      1.0  0.05031  0.21277  0.81060  1.0000
  O   O158      1.0  0.94969  0.78723  0.81060  1.0000
  O   O159      1.0  0.71277  0.44969  0.31060  1.0000
  O   O160      1.0  0.28723  0.55031  0.31060  1.0000
  O   O161      1.0  0.54182  0.09164  0.30460  1.0000
  O   O162      1.0  0.45818  0.90836  0.30460  1.0000
  O   O163      1.0  0.40836  0.04182  0.80460  1.0000
  O   O164      1.0  0.59164  0.95818  0.80460  1.0000
  O   O165      1.0  0.95818  0.59164  0.19540  1.0000
  O   O166      1.0  0.04182  0.40836  0.19540  1.0000
  O   O167      1.0  0.09164  0.54182  0.69540  1.0000
  O   O168      1.0  0.90836  0.45818  0.69540  1.0000
  O   O169      1.0  0.45818  0.90836  0.69540  1.0000
  O   O170      1.0  0.54182  0.09164  0.69540  1.0000
  O   O171      1.0  0.59164  0.95818  0.19540  1.0000
  O   O172      1.0  0.40836  0.04182  0.19540  1.0000
  O   O173      1.0  0.04182  0.40836  0.80460  1.0000
  O   O174      1.0  0.95818  0.59164  0.80460  1.0000
  O   O175      1.0  0.90836  0.45818  0.30460  1.0000
  O   O176      1.0  0.09164  0.54182  0.30460  1.0000
  C   C1        1.0  0.42990  0.30830  0.20790  1.0000
  C   C2        1.0  0.57010  0.69170  0.20790  1.0000
  C   C3        1.0  0.19170  0.92990  0.70790  1.0000
  C   C4        1.0  0.80830  0.07010  0.70790  1.0000
  C   C5        1.0  0.07010  0.80830  0.29210  1.0000
  C   C6        1.0  0.92990  0.19170  0.29210  1.0000
  C   C7        1.0  0.30830  0.42990  0.79210  1.0000
  C   C8        1.0  0.69170  0.57010  0.79210  1.0000
  C   C9        1.0  0.57010  0.69170  0.79210  1.0000
  C   C10       1.0  0.42990  0.30830  0.79210  1.0000
  C   C11       1.0  0.80830  0.07010  0.29210  1.0000
  C   C12       1.0  0.19170  0.92990  0.29210  1.0000
  C   C13       1.0  0.92990  0.19170  0.70790  1.0000
  C   C14       1.0  0.07010  0.80830  0.70790  1.0000
  C   C15       1.0  0.69170  0.57010  0.20790  1.0000
  C   C16       1.0  0.30830  0.42990  0.20790  1.0000
  C   C17       1.0  0.40485  0.34938  0.21730  1.0000
  C   C18       1.0  0.59515  0.65062  0.21730  1.0000
  C   C19       1.0  0.15062  0.90485  0.71730  1.0000
  C   C20       1.0  0.84938  0.09515  0.71730  1.0000
  C   C21       1.0  0.09515  0.84938  0.28270  1.0000
  C   C22       1.0  0.90485  0.15062  0.28270  1.0000
  C   C23       1.0  0.34938  0.40485  0.78270  1.0000
  C   C24       1.0  0.65062  0.59515  0.78270  1.0000
  C   C25       1.0  0.59515  0.65062  0.78270  1.0000
  C   C26       1.0  0.40485  0.34938  0.78270  1.0000
  C   C27       1.0  0.84938  0.09515  0.28270  1.0000
  C   C28       1.0  0.15062  0.90485  0.28270  1.0000
  C   C29       1.0  0.90485  0.15062  0.71730  1.0000
  C   C30       1.0  0.09515  0.84938  0.71730  1.0000
  C   C31       1.0  0.65062  0.59515  0.21730  1.0000
  C   C32       1.0  0.34938  0.40485  0.21730  1.0000
  C   C33       1.0  0.41360  0.38200  0.25060  1.0000
  C   C34       1.0  0.58640  0.61800  0.25060  1.0000
  C   C35       1.0  0.11800  0.91360  0.75060  1.0000
  C   C36       1.0  0.88200  0.08640  0.75060  1.0000
  C   C37       1.0  0.08640  0.88200  0.24940  1.0000
  C   C38       1.0  0.91360  0.11800  0.24940  1.0000
  C   C39       1.0  0.38200  0.41360  0.74940  1.0000
  C   C40       1.0  0.61800  0.58640  0.74940  1.0000
  C   C41       1.0  0.58640  0.61800  0.74940  1.0000
  C   C42       1.0  0.41360  0.38200  0.74940  1.0000
  C   C43       1.0  0.88200  0.08640  0.24940  1.0000
  C   C44       1.0  0.11800  0.91360  0.24940  1.0000
  C   C45       1.0  0.91360  0.11800  0.75060  1.0000
  C   C46       1.0  0.08640  0.88200  0.75060  1.0000
  C   C47       1.0  0.61800  0.58640  0.25060  1.0000
  C   C48       1.0  0.38200  0.41360  0.25060  1.0000
  H   H1        1.0  0.43890  0.38290  0.27170  1.0000
  H   H2        1.0  0.56110  0.61710  0.27170  1.0000
  H   H3        1.0  0.11710  0.93890  0.77170  1.0000
  H   H4        1.0  0.88290  0.06110  0.77170  1.0000
  H   H5        1.0  0.06110  0.88290  0.22830  1.0000
  H   H6        1.0  0.93890  0.11710  0.22830  1.0000
  H   H7        1.0  0.38290  0.43890  0.72830  1.0000
  H   H8        1.0  0.61710  0.56110  0.72830  1.0000
  H   H9        1.0  0.56110  0.61710  0.72830  1.0000
  H   H10       1.0  0.43890  0.38290  0.72830  1.0000
  H   H11       1.0  0.88290  0.06110  0.22830  1.0000
  H   H12       1.0  0.11710  0.93890  0.22830  1.0000
  H   H13       1.0  0.93890  0.11710  0.77170  1.0000
  H   H14       1.0  0.06110  0.88290  0.77170  1.0000
  H   H15       1.0  0.61710  0.56110  0.27170  1.0000
  H   H16       1.0  0.38290  0.43890  0.27170  1.0000
  C   C49       1.0  0.49582  0.25420  0.10200  1.0000
  C   C50       1.0  0.50418  0.74580  0.10200  1.0000
  C   C51       1.0  0.24580  0.99582  0.60200  1.0000
  C   C52       1.0  0.75420  0.00418  0.60200  1.0000
  C   C53       1.0  0.00418  0.75420  0.39800  1.0000
  C   C54       1.0  0.99582  0.24580  0.39800  1.0000
  C   C55       1.0  0.25420  0.49582  0.89800  1.0000
  C   C56       1.0  0.74580  0.50418  0.89800  1.0000
  C   C57       1.0  0.50418  0.74580  0.89800  1.0000
  C   C58       1.0  0.49582  0.25420  0.89800  1.0000
  C   C59       1.0  0.75420  0.00418  0.39800  1.0000
  C   C60       1.0  0.24580  0.99582  0.39800  1.0000
  C   C61       1.0  0.99582  0.24580  0.60200  1.0000
  C   C62       1.0  0.00418  0.75420  0.60200  1.0000
  C   C63       1.0  0.74580  0.50418  0.10200  1.0000
  C   C64       1.0  0.25420  0.49582  0.10200  1.0000
  C   C65       1.0  0.50522  0.26261  0.04810  1.0000
  C   C66       1.0  0.49478  0.73739  0.04810  1.0000
  C   C67       1.0  0.23739  0.00522  0.54810  1.0000
  C   C68       1.0  0.76261  0.99478  0.54810  1.0000
  C   C69       1.0  0.99478  0.76261  0.45190  1.0000
  C   C70       1.0  0.00522  0.23739  0.45190  1.0000
  C   C71       1.0  0.26261  0.50522  0.95190  1.0000
  C   C72       1.0  0.73739  0.49478  0.95190  1.0000
  C   C73       1.0  0.49478  0.73739  0.95190  1.0000
  C   C74       1.0  0.50522  0.26261  0.95190  1.0000
  C   C75       1.0  0.76261  0.99478  0.45190  1.0000
  C   C76       1.0  0.23739  0.00522  0.45190  1.0000
  C   C77       1.0  0.00522  0.23739  0.54810  1.0000
  C   C78       1.0  0.99478  0.76261  0.54810  1.0000
  C   C79       1.0  0.73739  0.49478  0.04810  1.0000
  C   C80       1.0  0.26261  0.50522  0.04810  1.0000
  C   C81       1.0  0.53330  0.29220  0.02670  1.0000
  C   C82       1.0  0.46670  0.70780  0.02670  1.0000
  C   C83       1.0  0.20780  0.03330  0.52670  1.0000
  C   C84       1.0  0.79220  0.96670  0.52670  1.0000
  C   C85       1.0  0.96670  0.79220  0.47330  1.0000
  C   C86       1.0  0.03330  0.20780  0.47330  1.0000
  C   C87       1.0  0.29220  0.53330  0.97330  1.0000
  C   C88       1.0  0.70780  0.46670  0.97330  1.0000
  C   C89       1.0  0.46670  0.70780  0.97330  1.0000
  C   C90       1.0  0.53330  0.29220  0.97330  1.0000
  C   C91       1.0  0.79220  0.96670  0.47330  1.0000
  C   C92       1.0  0.20780  0.03330  0.47330  1.0000
  C   C93       1.0  0.03330  0.20780  0.52670  1.0000
  C   C94       1.0  0.96670  0.79220  0.52670  1.0000
  C   C95       1.0  0.70780  0.46670  0.02670  1.0000
  C   C96       1.0  0.29220  0.53330  0.02670  1.0000
  H   H17       1.0  0.55120  0.31100  0.04670  1.0000
  H   H18       1.0  0.44880  0.68900  0.04670  1.0000
  H   H19       1.0  0.18900  0.05120  0.54670  1.0000
  H   H20       1.0  0.81100  0.94880  0.54670  1.0000
  H   H21       1.0  0.94880  0.81100  0.45330  1.0000
  H   H22       1.0  0.05120  0.18900  0.45330  1.0000
  H   H23       1.0  0.31100  0.55120  0.95330  1.0000
  H   H24       1.0  0.68900  0.44880  0.95330  1.0000
  H   H25       1.0  0.44880  0.68900  0.95330  1.0000
  H   H26       1.0  0.55120  0.31100  0.95330  1.0000
  H   H27       1.0  0.81100  0.94880  0.45330  1.0000
  H   H28       1.0  0.18900  0.05120  0.45330  1.0000
  H   H29       1.0  0.05120  0.18900  0.54670  1.0000
  H   H30       1.0  0.94880  0.81100  0.54670  1.0000
  H   H31       1.0  0.68900  0.44880  0.04670  1.0000
  H   H32       1.0  0.31100  0.55120  0.04670  1.0000
  C   C97       1.0  0.32083  0.19930  0.22460  1.0000
  C   C98       1.0  0.67917  0.80070  0.22460  1.0000
  C   C99       1.0  0.30070  0.82083  0.72460  1.0000
  C   C100      1.0  0.69930  0.17917  0.72460  1.0000
  C   C101      1.0  0.17917  0.69930  0.27540  1.0000
  C   C102      1.0  0.82083  0.30070  0.27540  1.0000
  C   C103      1.0  0.19930  0.32083  0.77540  1.0000
  C   C104      1.0  0.80070  0.67917  0.77540  1.0000
  C   C105      1.0  0.67917  0.80070  0.77540  1.0000
  C   C106      1.0  0.32083  0.19930  0.77540  1.0000
  C   C107      1.0  0.69930  0.17917  0.27540  1.0000
  C   C108      1.0  0.30070  0.82083  0.27540  1.0000
  C   C109      1.0  0.82083  0.30070  0.72460  1.0000
  C   C110      1.0  0.17917  0.69930  0.72460  1.0000
  C   C111      1.0  0.80070  0.67917  0.22460  1.0000
  C   C112      1.0  0.19930  0.32083  0.22460  1.0000
  C   C113      1.0  0.28007  0.22403  0.23240  1.0000
  C   C114      1.0  0.71993  0.77597  0.23240  1.0000
  C   C115      1.0  0.27597  0.78007  0.73240  1.0000
  C   C116      1.0  0.72403  0.21993  0.73240  1.0000
  C   C117      1.0  0.21993  0.72403  0.26760  1.0000
  C   C118      1.0  0.78007  0.27597  0.26760  1.0000
  C   C119      1.0  0.22403  0.28007  0.76760  1.0000
  C   C120      1.0  0.77597  0.71993  0.76760  1.0000
  C   C121      1.0  0.71993  0.77597  0.76760  1.0000
  C   C122      1.0  0.28007  0.22403  0.76760  1.0000
  C   C123      1.0  0.72403  0.21993  0.26760  1.0000
  C   C124      1.0  0.27597  0.78007  0.26760  1.0000
  C   C125      1.0  0.78007  0.27597  0.73240  1.0000
  C   C126      1.0  0.21993  0.72403  0.73240  1.0000
  C   C127      1.0  0.77597  0.71993  0.23240  1.0000
  C   C128      1.0  0.22403  0.28007  0.23240  1.0000
  C   C129      1.0  0.24030  0.20850  0.24580  1.0000
  C   C130      1.0  0.75970  0.79150  0.24580  1.0000
  C   C131      1.0  0.29150  0.74030  0.74580  1.0000
  C   C132      1.0  0.70850  0.25970  0.74580  1.0000
  C   C133      1.0  0.25970  0.70850  0.25420  1.0000
  C   C134      1.0  0.74030  0.29150  0.25420  1.0000
  C   C135      1.0  0.20850  0.24030  0.75420  1.0000
  C   C136      1.0  0.79150  0.75970  0.75420  1.0000
  C   C137      1.0  0.75970  0.79150  0.75420  1.0000
  C   C138      1.0  0.24030  0.20850  0.75420  1.0000
  C   C139      1.0  0.70850  0.25970  0.25420  1.0000
  C   C140      1.0  0.29150  0.74030  0.25420  1.0000
  C   C141      1.0  0.74030  0.29150  0.74580  1.0000
  C   C142      1.0  0.25970  0.70850  0.74580  1.0000
  C   C143      1.0  0.79150  0.75970  0.24580  1.0000
  C   C144      1.0  0.20850  0.24030  0.24580  1.0000
  H   H33       1.0  0.23490  0.17880  0.25430  1.0000
  H   H34       1.0  0.76510  0.82120  0.25430  1.0000
  H   H35       1.0  0.32120  0.73490  0.75430  1.0000
  H   H36       1.0  0.67880  0.26510  0.75430  1.0000
  H   H37       1.0  0.26510  0.67880  0.24570  1.0000
  H   H38       1.0  0.73490  0.32120  0.24570  1.0000
  H   H39       1.0  0.17880  0.23490  0.74570  1.0000
  H   H40       1.0  0.82120  0.76510  0.74570  1.0000
  H   H41       1.0  0.76510  0.82120  0.74570  1.0000
  H   H42       1.0  0.23490  0.17880  0.74570  1.0000
  H   H43       1.0  0.67880  0.26510  0.24570  1.0000
  H   H44       1.0  0.32120  0.73490  0.24570  1.0000
  H   H45       1.0  0.73490  0.32120  0.75430  1.0000
  H   H46       1.0  0.26510  0.67880  0.75430  1.0000
  H   H47       1.0  0.82120  0.76510  0.25430  1.0000
  H   H48       1.0  0.17880  0.23490  0.25430  1.0000
  C   C145      1.0  0.37170  0.15330  0.10240  1.0000
  C   C146      1.0  0.62830  0.84670  0.10240  1.0000
  C   C147      1.0  0.34670  0.87170  0.60240  1.0000
  C   C148      1.0  0.65330  0.12830  0.60240  1.0000
  C   C149      1.0  0.12830  0.65330  0.39760  1.0000
  C   C150      1.0  0.87170  0.34670  0.39760  1.0000
  C   C151      1.0  0.15330  0.37170  0.89760  1.0000
  C   C152      1.0  0.84670  0.62830  0.89760  1.0000
  C   C153      1.0  0.62830  0.84670  0.89760  1.0000
  C   C154      1.0  0.37170  0.15330  0.89760  1.0000
  C   C155      1.0  0.65330  0.12830  0.39760  1.0000
  C   C156      1.0  0.34670  0.87170  0.39760  1.0000
  C   C157      1.0  0.87170  0.34670  0.60240  1.0000
  C   C158      1.0  0.12830  0.65330  0.60240  1.0000
  C   C159      1.0  0.84670  0.62830  0.10240  1.0000
  C   C160      1.0  0.15330  0.37170  0.10240  1.0000
  C   C161      1.0  0.36390  0.14170  0.04700  1.0000
  C   C162      1.0  0.63610  0.85830  0.04700  1.0000
  C   C163      1.0  0.35830  0.86390  0.54700  1.0000
  C   C164      1.0  0.64170  0.13610  0.54700  1.0000
  C   C165      1.0  0.13610  0.64170  0.45300  1.0000
  C   C166      1.0  0.86390  0.35830  0.45300  1.0000
  C   C167      1.0  0.14170  0.36390  0.95300  1.0000
  C   C168      1.0  0.85830  0.63610  0.95300  1.0000
  C   C169      1.0  0.63610  0.85830  0.95300  1.0000
  C   C170      1.0  0.36390  0.14170  0.95300  1.0000
  C   C171      1.0  0.64170  0.13610  0.45300  1.0000
  C   C172      1.0  0.35830  0.86390  0.45300  1.0000
  C   C173      1.0  0.86390  0.35830  0.54700  1.0000
  C   C174      1.0  0.13610  0.64170  0.54700  1.0000
  C   C175      1.0  0.85830  0.63610  0.04700  1.0000
  C   C176      1.0  0.14170  0.36390  0.04700  1.0000
  C   C177      1.0  0.34670  0.10550  0.02870  1.0000
  C   C178      1.0  0.65330  0.89450  0.02870  1.0000
  C   C179      1.0  0.39450  0.84670  0.52870  1.0000
  C   C180      1.0  0.60550  0.15330  0.52870  1.0000
  C   C181      1.0  0.15330  0.60550  0.47130  1.0000
  C   C182      1.0  0.84670  0.39450  0.47130  1.0000
  C   C183      1.0  0.10550  0.34670  0.97130  1.0000
  C   C184      1.0  0.89450  0.65330  0.97130  1.0000
  C   C185      1.0  0.65330  0.89450  0.97130  1.0000
  C   C186      1.0  0.34670  0.10550  0.97130  1.0000
  C   C187      1.0  0.60550  0.15330  0.47130  1.0000
  C   C188      1.0  0.39450  0.84670  0.47130  1.0000
  C   C189      1.0  0.84670  0.39450  0.52870  1.0000
  C   C190      1.0  0.15330  0.60550  0.52870  1.0000
  C   C191      1.0  0.89450  0.65330  0.02870  1.0000
  C   C192      1.0  0.10550  0.34670  0.02870  1.0000
  H   H49       1.0  0.33570  0.08250  0.04940  1.0000
  H   H50       1.0  0.66430  0.91750  0.04940  1.0000
  H   H51       1.0  0.41750  0.83570  0.54940  1.0000
  H   H52       1.0  0.58250  0.16430  0.54940  1.0000
  H   H53       1.0  0.16430  0.58250  0.45060  1.0000
  H   H54       1.0  0.83570  0.41750  0.45060  1.0000
  H   H55       1.0  0.08250  0.33570  0.95060  1.0000
  H   H56       1.0  0.91750  0.66430  0.95060  1.0000
  H   H57       1.0  0.66430  0.91750  0.95060  1.0000
  H   H58       1.0  0.33570  0.08250  0.95060  1.0000
  H   H59       1.0  0.58250  0.16430  0.45060  1.0000
  H   H60       1.0  0.41750  0.83570  0.45060  1.0000
  H   H61       1.0  0.83570  0.41750  0.54940  1.0000
  H   H62       1.0  0.16430  0.58250  0.54940  1.0000
  H   H63       1.0  0.91750  0.66430  0.04940  1.0000
  H   H64       1.0  0.08250  0.33570  0.04940  1.0000
  C   C193      1.0  0.57200  0.30550  0.27640  1.0000
  C   C194      1.0  0.42800  0.69450  0.27640  1.0000
  C   C195      1.0  0.19450  0.07200  0.77640  1.0000
  C   C196      1.0  0.80550  0.92800  0.77640  1.0000
  C   C197      1.0  0.92800  0.80550  0.22360  1.0000
  C   C198      1.0  0.07200  0.19450  0.22360  1.0000
  C   C199      1.0  0.30550  0.57200  0.72360  1.0000
  C   C200      1.0  0.69450  0.42800  0.72360  1.0000
  C   C201      1.0  0.42800  0.69450  0.72360  1.0000
  C   C202      1.0  0.57200  0.30550  0.72360  1.0000
  C   C203      1.0  0.80550  0.92800  0.22360  1.0000
  C   C204      1.0  0.19450  0.07200  0.22360  1.0000
  C   C205      1.0  0.07200  0.19450  0.77640  1.0000
  C   C206      1.0  0.92800  0.80550  0.77640  1.0000
  C   C207      1.0  0.69450  0.42800  0.27640  1.0000
  C   C208      1.0  0.30550  0.57200  0.27640  1.0000
  C   C209      1.0  0.60680  0.33660  0.29110  1.0000
  C   C210      1.0  0.39320  0.66340  0.29110  1.0000
  C   C211      1.0  0.16340  0.10680  0.79110  1.0000
  C   C212      1.0  0.83660  0.89320  0.79110  1.0000
  C   C213      1.0  0.89320  0.83660  0.20890  1.0000
  C   C214      1.0  0.10680  0.16340  0.20890  1.0000
  C   C215      1.0  0.33660  0.60680  0.70890  1.0000
  C   C216      1.0  0.66340  0.39320  0.70890  1.0000
  C   C217      1.0  0.39320  0.66340  0.70890  1.0000
  C   C218      1.0  0.60680  0.33660  0.70890  1.0000
  C   C219      1.0  0.83660  0.89320  0.20890  1.0000
  C   C220      1.0  0.16340  0.10680  0.20890  1.0000
  C   C221      1.0  0.10680  0.16340  0.79110  1.0000
  C   C222      1.0  0.89320  0.83660  0.79110  1.0000
  C   C223      1.0  0.66340  0.39320  0.29110  1.0000
  C   C224      1.0  0.33660  0.60680  0.29110  1.0000
  C   C225      1.0  0.61900  0.34760  0.33920  1.0000
  C   C226      1.0  0.38100  0.65240  0.33920  1.0000
  C   C227      1.0  0.15240  0.11900  0.83920  1.0000
  C   C228      1.0  0.84760  0.88100  0.83920  1.0000
  C   C229      1.0  0.88100  0.84760  0.16080  1.0000
  C   C230      1.0  0.11900  0.15240  0.16080  1.0000
  C   C231      1.0  0.34760  0.61900  0.66080  1.0000
  C   C232      1.0  0.65240  0.38100  0.66080  1.0000
  C   C233      1.0  0.38100  0.65240  0.66080  1.0000
  C   C234      1.0  0.61900  0.34760  0.66080  1.0000
  C   C235      1.0  0.84760  0.88100  0.16080  1.0000
  C   C236      1.0  0.15240  0.11900  0.16080  1.0000
  C   C237      1.0  0.11900  0.15240  0.83920  1.0000
  C   C238      1.0  0.88100  0.84760  0.83920  1.0000
  C   C239      1.0  0.65240  0.38100  0.33920  1.0000
  C   C240      1.0  0.34760  0.61900  0.33920  1.0000
  H   H65       1.0  0.60720  0.33500  0.36950  1.0000
  H   H66       1.0  0.39280  0.66500  0.36950  1.0000
  H   H67       1.0  0.16500  0.10720  0.86950  1.0000
  H   H68       1.0  0.83500  0.89280  0.86950  1.0000
  H   H69       1.0  0.89280  0.83500  0.13050  1.0000
  H   H70       1.0  0.10720  0.16500  0.13050  1.0000
  H   H71       1.0  0.33500  0.60720  0.63050  1.0000
  H   H72       1.0  0.66500  0.39280  0.63050  1.0000
  H   H73       1.0  0.39280  0.66500  0.63050  1.0000
  H   H74       1.0  0.60720  0.33500  0.63050  1.0000
  H   H75       1.0  0.83500  0.89280  0.13050  1.0000
  H   H76       1.0  0.16500  0.10720  0.13050  1.0000
  H   H77       1.0  0.10720  0.16500  0.86950  1.0000
  H   H78       1.0  0.89280  0.83500  0.86950  1.0000
  H   H79       1.0  0.66500  0.39280  0.36950  1.0000
  H   H80       1.0  0.33500  0.60720  0.36950  1.0000
  C   C241      1.0  0.48558  0.17661  0.23590  1.0000
  C   C242      1.0  0.51442  0.82339  0.23590  1.0000
  C   C243      1.0  0.32339  0.98558  0.73590  1.0000
  C   C244      1.0  0.67661  0.01442  0.73590  1.0000
  C   C245      1.0  0.01442  0.67661  0.26410  1.0000
  C   C246      1.0  0.98558  0.32339  0.26410  1.0000
  C   C247      1.0  0.17661  0.48558  0.76410  1.0000
  C   C248      1.0  0.82339  0.51442  0.76410  1.0000
  C   C249      1.0  0.51442  0.82339  0.76410  1.0000
  C   C250      1.0  0.48558  0.17661  0.76410  1.0000
  C   C251      1.0  0.67661  0.01442  0.26410  1.0000
  C   C252      1.0  0.32339  0.98558  0.26410  1.0000
  C   C253      1.0  0.98558  0.32339  0.73590  1.0000
  C   C254      1.0  0.01442  0.67661  0.73590  1.0000
  C   C255      1.0  0.82339  0.51442  0.23590  1.0000
  C   C256      1.0  0.17661  0.48558  0.23590  1.0000
  C   C257      1.0  0.55629  0.19300  0.24790  1.0000
  C   C258      1.0  0.44371  0.80700  0.24790  1.0000
  C   C259      1.0  0.30700  0.05629  0.74790  1.0000
  C   C260      1.0  0.69300  0.94371  0.74790  1.0000
  C   C261      1.0  0.94371  0.69300  0.25210  1.0000
  C   C262      1.0  0.05629  0.30700  0.25210  1.0000
  C   C263      1.0  0.19300  0.55629  0.75210  1.0000
  C   C264      1.0  0.80700  0.44371  0.75210  1.0000
  C   C265      1.0  0.44371  0.80700  0.75210  1.0000
  C   C266      1.0  0.55629  0.19300  0.75210  1.0000
  C   C267      1.0  0.69300  0.94371  0.25210  1.0000
  C   C268      1.0  0.30700  0.05629  0.25210  1.0000
  C   C269      1.0  0.05629  0.30700  0.74790  1.0000
  C   C270      1.0  0.94371  0.69300  0.74790  1.0000
  C   C271      1.0  0.80700  0.44371  0.24790  1.0000
  C   C272      1.0  0.19300  0.55629  0.24790  1.0000
  H   H81       1.0  0.58010  0.21260  0.24420  1.0000
  H   H82       1.0  0.41990  0.78740  0.24420  1.0000
  H   H83       1.0  0.28740  0.08010  0.74420  1.0000
  H   H84       1.0  0.71260  0.91990  0.74420  1.0000
  H   H85       1.0  0.91990  0.71260  0.25580  1.0000
  H   H86       1.0  0.08010  0.28740  0.25580  1.0000
  H   H87       1.0  0.21260  0.58010  0.75580  1.0000
  H   H88       1.0  0.78740  0.41990  0.75580  1.0000
  H   H89       1.0  0.41990  0.78740  0.75580  1.0000
  H   H90       1.0  0.58010  0.21260  0.75580  1.0000
  H   H91       1.0  0.71260  0.91990  0.25580  1.0000
  H   H92       1.0  0.28740  0.08010  0.25580  1.0000
  H   H93       1.0  0.08010  0.28740  0.74420  1.0000
  H   H94       1.0  0.91990  0.71260  0.74420  1.0000
  H   H95       1.0  0.78740  0.41990  0.24420  1.0000
  H   H96       1.0  0.21260  0.58010  0.24420  1.0000
  C   C273      1.0  0.53199  0.12556  0.28200  1.0000
  C   C274      1.0  0.46801  0.87444  0.28200  1.0000
  C   C275      1.0  0.37444  0.03199  0.78200  1.0000
  C   C276      1.0  0.62556  0.96801  0.78200  1.0000
  C   C277      1.0  0.96801  0.62556  0.21800  1.0000
  C   C278      1.0  0.03199  0.37444  0.21800  1.0000
  C   C279      1.0  0.12556  0.53199  0.71800  1.0000
  C   C280      1.0  0.87444  0.46801  0.71800  1.0000
  C   C281      1.0  0.46801  0.87444  0.71800  1.0000
  C   C282      1.0  0.53199  0.12556  0.71800  1.0000
  C   C283      1.0  0.62556  0.96801  0.21800  1.0000
  C   C284      1.0  0.37444  0.03199  0.21800  1.0000
  C   C285      1.0  0.03199  0.37444  0.78200  1.0000
  C   C286      1.0  0.96801  0.62556  0.78200  1.0000
  C   C287      1.0  0.87444  0.46801  0.28200  1.0000
  C   C288      1.0  0.12556  0.53199  0.28200  1.0000
  C   C289      1.0  0.49030  0.13765  0.26250  1.0000
  C   C290      1.0  0.50970  0.86235  0.26250  1.0000
  C   C291      1.0  0.36235  0.99030  0.76250  1.0000
  C   C292      1.0  0.63765  0.00970  0.76250  1.0000
  C   C293      1.0  0.00970  0.63765  0.23750  1.0000
  C   C294      1.0  0.99030  0.36235  0.23750  1.0000
  C   C295      1.0  0.13765  0.49030  0.73750  1.0000
  C   C296      1.0  0.86235  0.50970  0.73750  1.0000
  C   C297      1.0  0.50970  0.86235  0.73750  1.0000
  C   C298      1.0  0.49030  0.13765  0.73750  1.0000
  C   C299      1.0  0.63765  0.00970  0.23750  1.0000
  C   C300      1.0  0.36235  0.99030  0.23750  1.0000
  C   C301      1.0  0.99030  0.36235  0.76250  1.0000
  C   C302      1.0  0.00970  0.63765  0.76250  1.0000
  C   C303      1.0  0.86235  0.50970  0.26250  1.0000
  C   C304      1.0  0.13765  0.49030  0.26250  1.0000
  C   C305      1.0  0.45079  0.11750  0.25890  1.0000
  C   C306      1.0  0.54921  0.88250  0.25890  1.0000
  C   C307      1.0  0.38250  0.95079  0.75890  1.0000
  C   C308      1.0  0.61750  0.04921  0.75890  1.0000
  C   C309      1.0  0.04921  0.61750  0.24110  1.0000
  C   C310      1.0  0.95079  0.38250  0.24110  1.0000
  C   C311      1.0  0.11750  0.45079  0.74110  1.0000
  C   C312      1.0  0.88250  0.54921  0.74110  1.0000
  C   C313      1.0  0.54921  0.88250  0.74110  1.0000
  C   C314      1.0  0.45079  0.11750  0.74110  1.0000
  C   C315      1.0  0.61750  0.04921  0.24110  1.0000
  C   C316      1.0  0.38250  0.95079  0.24110  1.0000
  C   C317      1.0  0.95079  0.38250  0.75890  1.0000
  C   C318      1.0  0.04921  0.61750  0.75890  1.0000
  C   C319      1.0  0.88250  0.54921  0.25890  1.0000
  C   C320      1.0  0.11750  0.45079  0.25890  1.0000
  H   H97       1.0  0.44410  0.08970  0.27300  1.0000
  H   H98       1.0  0.55590  0.91030  0.27300  1.0000
  H   H99       1.0  0.41030  0.94410  0.77300  1.0000
  H   H100      1.0  0.58970  0.05590  0.77300  1.0000
  H   H101      1.0  0.05590  0.58970  0.22700  1.0000
  H   H102      1.0  0.94410  0.41030  0.22700  1.0000
  H   H103      1.0  0.08970  0.44410  0.72700  1.0000
  H   H104      1.0  0.91030  0.55590  0.72700  1.0000
  H   H105      1.0  0.55590  0.91030  0.72700  1.0000
  H   H106      1.0  0.44410  0.08970  0.72700  1.0000
  H   H107      1.0  0.58970  0.05590  0.22700  1.0000
  H   H108      1.0  0.41030  0.94410  0.22700  1.0000
  H   H109      1.0  0.94410  0.41030  0.77300  1.0000
  H   H110      1.0  0.05590  0.58970  0.77300  1.0000
  H   H111      1.0  0.91030  0.55590  0.27300  1.0000
  H   H112      1.0  0.08970  0.44410  0.27300  1.0000
