data_image0
_chemical_formula_structural       Nd8C8H16C16H16C16H16C16H16C16H16C8H16C8H16N16O72H16
_chemical_formula_sum              "Nd8 C88 H128 N16 O72"
_cell_length_a       19.2977
_cell_length_b       19.2977
_cell_length_c       10.0366
_cell_angle_alpha    90
_cell_angle_beta     90
_cell_angle_gamma    90

_space_group_name_H-M_alt    "P 1"
_space_group_IT_number       1

loop_
  _space_group_symop_operation_xyz
  'x, y, z'

loop_
  _atom_site_type_symbol
  _atom_site_label
  _atom_site_symmetry_multiplicity
  _atom_site_fract_x
  _atom_site_fract_y
  _atom_site_fract_z
  _atom_site_occupancy
  Nd  Nd1       1.0  0.39455  0.54296  0.04128  1.0000
  Nd  Nd2       1.0  0.10545  0.95704  0.04128  1.0000
  Nd  Nd3       1.0  0.95704  0.39455  0.04128  1.0000
  Nd  Nd4       1.0  0.54296  0.10545  0.04128  1.0000
  Nd  Nd5       1.0  0.60545  0.45704  0.95872  1.0000
  Nd  Nd6       1.0  0.89455  0.04296  0.95872  1.0000
  Nd  Nd7       1.0  0.04296  0.60545  0.95872  1.0000
  Nd  Nd8       1.0  0.45704  0.89455  0.95872  1.0000
  C   C1        1.0  0.21730  0.50210  0.06110  1.0000
  C   C2        1.0  0.28270  0.99790  0.06110  1.0000
  C   C3        1.0  0.99790  0.21730  0.06110  1.0000
  C   C4        1.0  0.50210  0.28270  0.06110  1.0000
  C   C5        1.0  0.78270  0.49790  0.93890  1.0000
  C   C6        1.0  0.71730  0.00210  0.93890  1.0000
  C   C7        1.0  0.00210  0.78270  0.93890  1.0000
  C   C8        1.0  0.49790  0.71730  0.93890  1.0000
  H   H1        1.0  0.21344  0.50869  0.15859  1.0000
  H   H2        1.0  0.28656  0.99131  0.15859  1.0000
  H   H3        1.0  0.99131  0.21344  0.15859  1.0000
  H   H4        1.0  0.50869  0.28656  0.15859  1.0000
  H   H5        1.0  0.78656  0.49131  0.84141  1.0000
  H   H6        1.0  0.71344  0.00869  0.84141  1.0000
  H   H7        1.0  0.00869  0.78656  0.84141  1.0000
  H   H8        1.0  0.49131  0.71344  0.84141  1.0000
  H   H9        1.0  0.17496  0.47824  0.02953  1.0000
  H   H10       1.0  0.32504  0.02176  0.02953  1.0000
  H   H11       1.0  0.02176  0.17496  0.02953  1.0000
  H   H12       1.0  0.47824  0.32504  0.02953  1.0000
  H   H13       1.0  0.82504  0.52176  0.97047  1.0000
  H   H14       1.0  0.67496  0.97824  0.97047  1.0000
  H   H15       1.0  0.97824  0.82504  0.97047  1.0000
  H   H16       1.0  0.52176  0.67496  0.97047  1.0000
  C   C9        1.0  0.22410  0.57160  0.99300  1.0000
  C   C10       1.0  0.27590  0.92840  0.99300  1.0000
  C   C11       1.0  0.92840  0.22410  0.99300  1.0000
  C   C12       1.0  0.57160  0.27590  0.99300  1.0000
  C   C13       1.0  0.77590  0.42840  0.00700  1.0000
  C   C14       1.0  0.72410  0.07160  0.00700  1.0000
  C   C15       1.0  0.07160  0.77590  0.00700  1.0000
  C   C16       1.0  0.42840  0.72410  0.00700  1.0000
  C   C17       1.0  0.27350  0.43790  0.88940  1.0000
  C   C18       1.0  0.22650  0.06210  0.88940  1.0000
  C   C19       1.0  0.06210  0.27350  0.88940  1.0000
  C   C20       1.0  0.43790  0.22650  0.88940  1.0000
  C   C21       1.0  0.72650  0.56210  0.11060  1.0000
  C   C22       1.0  0.77350  0.93790  0.11060  1.0000
  C   C23       1.0  0.93790  0.72650  0.11060  1.0000
  C   C24       1.0  0.56210  0.77350  0.11060  1.0000
  H   H17       1.0  0.25421  0.47665  0.83651  1.0000
  H   H18       1.0  0.24579  0.02335  0.83651  1.0000
  H   H19       1.0  0.02335  0.25421  0.83651  1.0000
  H   H20       1.0  0.47665  0.24579  0.83651  1.0000
  H   H21       1.0  0.74579  0.52335  0.16349  1.0000
  H   H22       1.0  0.75421  0.97665  0.16349  1.0000
  H   H23       1.0  0.97665  0.74579  0.16349  1.0000
  H   H24       1.0  0.52335  0.75421  0.16349  1.0000
  H   H25       1.0  0.24100  0.39834  0.88252  1.0000
  H   H26       1.0  0.25900  0.10166  0.88252  1.0000
  H   H27       1.0  0.10166  0.24100  0.88252  1.0000
  H   H28       1.0  0.39834  0.25900  0.88252  1.0000
  H   H29       1.0  0.75900  0.60166  0.11748  1.0000
  H   H30       1.0  0.74100  0.89834  0.11748  1.0000
  H   H31       1.0  0.89834  0.75900  0.11748  1.0000
  H   H32       1.0  0.60166  0.74100  0.11748  1.0000
  C   C25       1.0  0.34350  0.41680  0.83140  1.0000
  C   C26       1.0  0.15650  0.08320  0.83140  1.0000
  C   C27       1.0  0.08320  0.34350  0.83140  1.0000
  C   C28       1.0  0.41680  0.15650  0.83140  1.0000
  C   C29       1.0  0.65650  0.58320  0.16860  1.0000
  C   C30       1.0  0.84350  0.91680  0.16860  1.0000
  C   C31       1.0  0.91680  0.65650  0.16860  1.0000
  C   C32       1.0  0.58320  0.84350  0.16860  1.0000
  C   C33       1.0  0.37300  0.51900  0.40120  1.0000
  C   C34       1.0  0.12700  0.98100  0.40120  1.0000
  C   C35       1.0  0.98100  0.37300  0.40120  1.0000
  C   C36       1.0  0.51900  0.12700  0.40120  1.0000
  C   C37       1.0  0.62700  0.48100  0.59880  1.0000
  C   C38       1.0  0.87300  0.01900  0.59880  1.0000
  C   C39       1.0  0.01900  0.62700  0.59880  1.0000
  C   C40       1.0  0.48100  0.87300  0.59880  1.0000
  H   H33       1.0  0.41070  0.54512  0.44532  1.0000
  H   H34       1.0  0.08930  0.95488  0.44532  1.0000
  H   H35       1.0  0.95488  0.41070  0.44532  1.0000
  H   H36       1.0  0.54512  0.08930  0.44532  1.0000
  H   H37       1.0  0.58930  0.45488  0.55468  1.0000
  H   H38       1.0  0.91070  0.04512  0.55468  1.0000
  H   H39       1.0  0.04512  0.58930  0.55468  1.0000
  H   H40       1.0  0.45488  0.91070  0.55468  1.0000
  H   H41       1.0  0.34986  0.49037  0.46988  1.0000
  H   H42       1.0  0.15014  0.00963  0.46988  1.0000
  H   H43       1.0  0.00963  0.34986  0.46988  1.0000
  H   H44       1.0  0.49037  0.15014  0.46988  1.0000
  H   H45       1.0  0.65014  0.50963  0.53012  1.0000
  H   H46       1.0  0.84986  0.99037  0.53012  1.0000
  H   H47       1.0  0.99037  0.65014  0.53012  1.0000
  H   H48       1.0  0.50963  0.84986  0.53012  1.0000
  C   C41       1.0  0.32150  0.56950  0.34580  1.0000
  C   C42       1.0  0.17850  0.93050  0.34580  1.0000
  C   C43       1.0  0.93050  0.32150  0.34580  1.0000
  C   C44       1.0  0.56950  0.17850  0.34580  1.0000
  C   C45       1.0  0.67850  0.43050  0.65420  1.0000
  C   C46       1.0  0.82150  0.06950  0.65420  1.0000
  C   C47       1.0  0.06950  0.67850  0.65420  1.0000
  C   C48       1.0  0.43050  0.82150  0.65420  1.0000
  C   C49       1.0  0.47810  0.46040  0.32710  1.0000
  C   C50       1.0  0.02190  0.03960  0.32710  1.0000
  C   C51       1.0  0.03960  0.47810  0.32710  1.0000
  C   C52       1.0  0.46040  0.02190  0.32710  1.0000
  C   C53       1.0  0.52190  0.53960  0.67290  1.0000
  C   C54       1.0  0.97810  0.96040  0.67290  1.0000
  C   C55       1.0  0.96040  0.52190  0.67290  1.0000
  C   C56       1.0  0.53960  0.97810  0.67290  1.0000
  H   H49       1.0  0.48255  0.42136  0.39057  1.0000
  H   H50       1.0  0.01745  0.07864  0.39057  1.0000
  H   H51       1.0  0.07864  0.48255  0.39057  1.0000
  H   H52       1.0  0.42136  0.01745  0.39057  1.0000
  H   H53       1.0  0.51745  0.57864  0.60943  1.0000
  H   H54       1.0  0.98255  0.92136  0.60943  1.0000
  H   H55       1.0  0.92136  0.51745  0.60943  1.0000
  H   H56       1.0  0.57864  0.98255  0.60943  1.0000
  H   H57       1.0  0.49799  0.50209  0.36981  1.0000
  H   H58       1.0  0.00201  0.99791  0.36981  1.0000
  H   H59       1.0  0.99791  0.49799  0.36981  1.0000
  H   H60       1.0  0.50209  0.00201  0.36981  1.0000
  H   H61       1.0  0.50201  0.49791  0.63019  1.0000
  H   H62       1.0  0.99799  0.00209  0.63019  1.0000
  H   H63       1.0  0.00209  0.50201  0.63019  1.0000
  H   H64       1.0  0.49791  0.99799  0.63019  1.0000
  C   C57       1.0  0.51860  0.44410  0.20400  1.0000
  C   C58       1.0  0.98140  0.05590  0.20400  1.0000
  C   C59       1.0  0.05590  0.51860  0.20400  1.0000
  C   C60       1.0  0.44410  0.98140  0.20400  1.0000
  C   C61       1.0  0.48140  0.55590  0.79600  1.0000
  C   C62       1.0  0.01860  0.94410  0.79600  1.0000
  C   C63       1.0  0.94410  0.48140  0.79600  1.0000
  C   C64       1.0  0.55590  0.01860  0.79600  1.0000
  C   C65       1.0  0.27870  0.39520  0.11090  1.0000
  C   C66       1.0  0.22130  0.10480  0.11090  1.0000
  C   C67       1.0  0.10480  0.27870  0.11090  1.0000
  C   C68       1.0  0.39520  0.22130  0.11090  1.0000
  C   C69       1.0  0.72130  0.60480  0.88910  1.0000
  C   C70       1.0  0.77870  0.89520  0.88910  1.0000
  C   C71       1.0  0.89520  0.72130  0.88910  1.0000
  C   C72       1.0  0.60480  0.77870  0.88910  1.0000
  H   H65       1.0  0.31391  0.36337  0.07340  1.0000
  H   H66       1.0  0.18609  0.13663  0.07340  1.0000
  H   H67       1.0  0.13663  0.31391  0.07340  1.0000
  H   H68       1.0  0.36337  0.18609  0.07340  1.0000
  H   H69       1.0  0.68609  0.63663  0.92660  1.0000
  H   H70       1.0  0.81391  0.86337  0.92660  1.0000
  H   H71       1.0  0.86337  0.68609  0.92660  1.0000
  H   H72       1.0  0.63663  0.81391  0.92660  1.0000
  H   H73       1.0  0.23298  0.37266  0.09989  1.0000
  H   H74       1.0  0.26702  0.12734  0.09989  1.0000
  H   H75       1.0  0.12734  0.23298  0.09989  1.0000
  H   H76       1.0  0.37266  0.26702  0.09989  1.0000
  H   H77       1.0  0.76702  0.62734  0.90011  1.0000
  H   H78       1.0  0.73298  0.87266  0.90011  1.0000
  H   H79       1.0  0.87266  0.76702  0.90011  1.0000
  H   H80       1.0  0.62734  0.73298  0.90011  1.0000
  C   C73       1.0  0.29270  0.40270  0.25870  1.0000
  C   C74       1.0  0.20730  0.09730  0.25870  1.0000
  C   C75       1.0  0.09730  0.29270  0.25870  1.0000
  C   C76       1.0  0.40270  0.20730  0.25870  1.0000
  C   C77       1.0  0.70730  0.59730  0.74130  1.0000
  C   C78       1.0  0.79270  0.90270  0.74130  1.0000
  C   C79       1.0  0.90270  0.70730  0.74130  1.0000
  C   C80       1.0  0.59730  0.79270  0.74130  1.0000
  H   H81       1.0  0.26994  0.36370  0.30563  1.0000
  H   H82       1.0  0.23006  0.13630  0.30563  1.0000
  H   H83       1.0  0.13630  0.26994  0.30563  1.0000
  H   H84       1.0  0.36370  0.23006  0.30563  1.0000
  H   H85       1.0  0.73006  0.63630  0.69437  1.0000
  H   H86       1.0  0.76994  0.86370  0.69437  1.0000
  H   H87       1.0  0.86370  0.73006  0.69437  1.0000
  H   H88       1.0  0.63630  0.76994  0.69437  1.0000
  H   H89       1.0  0.27052  0.44601  0.29000  1.0000
  H   H90       1.0  0.22948  0.05399  0.29000  1.0000
  H   H91       1.0  0.05399  0.27052  0.29000  1.0000
  H   H92       1.0  0.44601  0.22948  0.29000  1.0000
  H   H93       1.0  0.72948  0.55399  0.71000  1.0000
  H   H94       1.0  0.77052  0.94601  0.71000  1.0000
  H   H95       1.0  0.94601  0.72948  0.71000  1.0000
  H   H96       1.0  0.55399  0.77052  0.71000  1.0000
  C   C81       1.0  0.36960  0.40420  0.29950  1.0000
  C   C82       1.0  0.13040  0.09580  0.29950  1.0000
  C   C83       1.0  0.09580  0.36960  0.29950  1.0000
  C   C84       1.0  0.40420  0.13040  0.29950  1.0000
  C   C85       1.0  0.63040  0.59580  0.70050  1.0000
  C   C86       1.0  0.86960  0.90420  0.70050  1.0000
  C   C87       1.0  0.90420  0.63040  0.70050  1.0000
  C   C88       1.0  0.59580  0.86960  0.70050  1.0000
  H   H97       1.0  0.37364  0.38427  0.39005  1.0000
  H   H98       1.0  0.12636  0.11573  0.39005  1.0000
  H   H99       1.0  0.11573  0.37364  0.39005  1.0000
  H   H100      1.0  0.38427  0.12636  0.39005  1.0000
  H   H101      1.0  0.62636  0.61573  0.60995  1.0000
  H   H102      1.0  0.87364  0.88427  0.60995  1.0000
  H   H103      1.0  0.88427  0.62636  0.60995  1.0000
  H   H104      1.0  0.61573  0.87364  0.60995  1.0000
  H   H105      1.0  0.39563  0.37357  0.23824  1.0000
  H   H106      1.0  0.10437  0.12643  0.23824  1.0000
  H   H107      1.0  0.12643  0.39563  0.23824  1.0000
  H   H108      1.0  0.37357  0.10437  0.23824  1.0000
  H   H109      1.0  0.60437  0.62643  0.76176  1.0000
  H   H110      1.0  0.89563  0.87357  0.76176  1.0000
  H   H111      1.0  0.87357  0.60437  0.76176  1.0000
  H   H112      1.0  0.62643  0.89563  0.76176  1.0000
  N   N1        1.0  0.27900  0.45940  0.03040  1.0000
  N   N2        1.0  0.22100  0.04060  0.03040  1.0000
  N   N3        1.0  0.04060  0.27900  0.03040  1.0000
  N   N4        1.0  0.45940  0.22100  0.03040  1.0000
  N   N5        1.0  0.72100  0.54060  0.96960  1.0000
  N   N6        1.0  0.77900  0.95940  0.96960  1.0000
  N   N7        1.0  0.95940  0.72100  0.96960  1.0000
  N   N8        1.0  0.54060  0.77900  0.96960  1.0000
  N   N9        1.0  0.40360  0.47270  0.29990  1.0000
  N   N10       1.0  0.09640  0.02730  0.29990  1.0000
  N   N11       1.0  0.02730  0.40360  0.29990  1.0000
  N   N12       1.0  0.47270  0.09640  0.29990  1.0000
  N   N13       1.0  0.59640  0.52730  0.70010  1.0000
  N   N14       1.0  0.90360  0.97270  0.70010  1.0000
  N   N15       1.0  0.97270  0.59640  0.70010  1.0000
  N   N16       1.0  0.52730  0.90360  0.70010  1.0000
  O   O1        1.0  0.28270  0.58780  0.94590  1.0000
  O   O2        1.0  0.21730  0.91220  0.94590  1.0000
  O   O3        1.0  0.91220  0.28270  0.94590  1.0000
  O   O4        1.0  0.58780  0.21730  0.94590  1.0000
  O   O5        1.0  0.71730  0.41220  0.05410  1.0000
  O   O6        1.0  0.78270  0.08780  0.05410  1.0000
  O   O7        1.0  0.08780  0.71730  0.05410  1.0000
  O   O8        1.0  0.41220  0.78270  0.05410  1.0000
  O   O9        1.0  0.17200  0.61010  0.98580  1.0000
  O   O10       1.0  0.32800  0.88990  0.98580  1.0000
  O   O11       1.0  0.88990  0.17200  0.98580  1.0000
  O   O12       1.0  0.61010  0.32800  0.98580  1.0000
  O   O13       1.0  0.82800  0.38990  0.01420  1.0000
  O   O14       1.0  0.67200  0.11010  0.01420  1.0000
  O   O15       1.0  0.11010  0.82800  0.01420  1.0000
  O   O16       1.0  0.38990  0.67200  0.01420  1.0000
  O   O17       1.0  0.39580  0.43780  0.89240  1.0000
  O   O18       1.0  0.10420  0.06220  0.89240  1.0000
  O   O19       1.0  0.06220  0.39580  0.89240  1.0000
  O   O20       1.0  0.43780  0.10420  0.89240  1.0000
  O   O21       1.0  0.60420  0.56220  0.10760  1.0000
  O   O22       1.0  0.89580  0.93780  0.10760  1.0000
  O   O23       1.0  0.93780  0.60420  0.10760  1.0000
  O   O24       1.0  0.56220  0.89580  0.10760  1.0000
  O   O25       1.0  0.32170  0.58130  0.22170  1.0000
  O   O26       1.0  0.17830  0.91870  0.22170  1.0000
  O   O27       1.0  0.91870  0.32170  0.22170  1.0000
  O   O28       1.0  0.58130  0.17830  0.22170  1.0000
  O   O29       1.0  0.67830  0.41870  0.77830  1.0000
  O   O30       1.0  0.82170  0.08130  0.77830  1.0000
  O   O31       1.0  0.08130  0.67830  0.77830  1.0000
  O   O32       1.0  0.41870  0.82170  0.77830  1.0000
  O   O33       1.0  0.34320  0.38270  0.72710  1.0000
  O   O34       1.0  0.15680  0.11730  0.72710  1.0000
  O   O35       1.0  0.11730  0.34320  0.72710  1.0000
  O   O36       1.0  0.38270  0.15680  0.72710  1.0000
  O   O37       1.0  0.65680  0.61730  0.27290  1.0000
  O   O38       1.0  0.84320  0.88270  0.27290  1.0000
  O   O39       1.0  0.88270  0.65680  0.27290  1.0000
  O   O40       1.0  0.61730  0.84320  0.27290  1.0000
  O   O41       1.0  0.28280  0.59800  0.42920  1.0000
  O   O42       1.0  0.21720  0.90200  0.42920  1.0000
  O   O43       1.0  0.90200  0.28280  0.42920  1.0000
  O   O44       1.0  0.59800  0.21720  0.42920  1.0000
  O   O45       1.0  0.71720  0.40200  0.57080  1.0000
  O   O46       1.0  0.78280  0.09800  0.57080  1.0000
  O   O47       1.0  0.09800  0.71720  0.57080  1.0000
  O   O48       1.0  0.40200  0.78280  0.57080  1.0000
  O   O49       1.0  0.49060  0.45400  0.09210  1.0000
  O   O50       1.0  0.00940  0.04600  0.09210  1.0000
  O   O51       1.0  0.04600  0.49060  0.09210  1.0000
  O   O52       1.0  0.45400  0.00940  0.09210  1.0000
  O   O53       1.0  0.50940  0.54600  0.90790  1.0000
  O   O54       1.0  0.99060  0.95400  0.90790  1.0000
  O   O55       1.0  0.95400  0.50940  0.90790  1.0000
  O   O56       1.0  0.54600  0.99060  0.90790  1.0000
  O   O57       1.0  0.58090  0.42520  0.21310  1.0000
  O   O58       1.0  0.91910  0.07480  0.21310  1.0000
  O   O59       1.0  0.07480  0.58090  0.21310  1.0000
  O   O60       1.0  0.42520  0.91910  0.21310  1.0000
  O   O61       1.0  0.41910  0.57480  0.78690  1.0000
  O   O62       1.0  0.08090  0.92520  0.78690  1.0000
  O   O63       1.0  0.92520  0.41910  0.78690  1.0000
  O   O64       1.0  0.57480  0.08090  0.78690  1.0000
  O   O65       1.0  0.47890  0.59890  0.19070  1.0000
  O   O66       1.0  0.02110  0.90110  0.19070  1.0000
  O   O67       1.0  0.90110  0.47890  0.19070  1.0000
  O   O68       1.0  0.59890  0.02110  0.19070  1.0000
  O   O69       1.0  0.52110  0.40110  0.80930  1.0000
  O   O70       1.0  0.97890  0.09890  0.80930  1.0000
  O   O71       1.0  0.09890  0.52110  0.80930  1.0000
  O   O72       1.0  0.40110  0.97890  0.80930  1.0000
  H   H113      1.0  0.51971  0.59144  0.16192  1.0000
  H   H114      1.0  0.98029  0.90856  0.16192  1.0000
  H   H115      1.0  0.90856  0.51971  0.16192  1.0000
  H   H116      1.0  0.59144  0.98029  0.16192  1.0000
  H   H117      1.0  0.48029  0.40856  0.83808  1.0000
  H   H118      1.0  0.01971  0.09144  0.83808  1.0000
  H   H119      1.0  0.09144  0.48029  0.83808  1.0000
  H   H120      1.0  0.40856  0.01971  0.83808  1.0000
  H   H121      1.0  0.47134  0.64234  0.19254  1.0000
  H   H122      1.0  0.02866  0.85766  0.19254  1.0000
  H   H123      1.0  0.85766  0.47134  0.19254  1.0000
  H   H124      1.0  0.64234  0.02866  0.19254  1.0000
  H   H125      1.0  0.52866  0.35766  0.80746  1.0000
  H   H126      1.0  0.97134  0.14234  0.80746  1.0000
  H   H127      1.0  0.14234  0.52866  0.80746  1.0000
  H   H128      1.0  0.35766  0.97134  0.80746  1.0000
