data_image0
_chemical_formula_structural       La8O8N8C8H16O8N8C8O8C8H16O8C8O8C8H16O8C8O8C8H16O16H8C16H16C8H16C8H24
_chemical_formula_sum              "La8 O72 N16 C88 H128"
_cell_length_a       19.5153
_cell_length_b       19.5153
_cell_length_c       9.8489
_cell_angle_alpha    90
_cell_angle_beta     90
_cell_angle_gamma    90

_space_group_name_H-M_alt    "P 1"
_space_group_IT_number       1

loop_
  _space_group_symop_operation_xyz
  'x, y, z'

loop_
  _atom_site_type_symbol
  _atom_site_label
  _atom_site_symmetry_multiplicity
  _atom_site_fract_x
  _atom_site_fract_y
  _atom_site_fract_z
  _atom_site_occupancy
  La  La1       1.0  0.95591  0.39397  0.04073  1.0000
  La  La2       1.0  0.54409  0.10603  0.04073  1.0000
  La  La3       1.0  0.10603  0.95591  0.04073  1.0000
  La  La4       1.0  0.39397  0.54409  0.04073  1.0000
  La  La5       1.0  0.04409  0.60603  0.95927  1.0000
  La  La6       1.0  0.45591  0.89397  0.95927  1.0000
  La  La7       1.0  0.89397  0.04409  0.95927  1.0000
  La  La8       1.0  0.60603  0.45591  0.95927  1.0000
  O   O1        1.0  0.89060  0.17230  0.98820  1.0000
  O   O2        1.0  0.60940  0.32770  0.98820  1.0000
  O   O3        1.0  0.32770  0.89060  0.98820  1.0000
  O   O4        1.0  0.17230  0.60940  0.98820  1.0000
  O   O5        1.0  0.10940  0.82770  0.01180  1.0000
  O   O6        1.0  0.39060  0.67230  0.01180  1.0000
  O   O7        1.0  0.67230  0.10940  0.01180  1.0000
  O   O8        1.0  0.82770  0.39060  0.01180  1.0000
  N   N1        1.0  0.03970  0.27770  0.02850  1.0000
  N   N2        1.0  0.46030  0.22230  0.02850  1.0000
  N   N3        1.0  0.22230  0.03970  0.02850  1.0000
  N   N4        1.0  0.27770  0.46030  0.02850  1.0000
  N   N5        1.0  0.96030  0.72230  0.97150  1.0000
  N   N6        1.0  0.53970  0.77770  0.97150  1.0000
  N   N7        1.0  0.77770  0.96030  0.97150  1.0000
  N   N8        1.0  0.72230  0.53970  0.97150  1.0000
  C   C1        1.0  0.99700  0.21880  0.06020  1.0000
  C   C2        1.0  0.50300  0.28120  0.06020  1.0000
  C   C3        1.0  0.28120  0.99700  0.06020  1.0000
  C   C4        1.0  0.21880  0.50300  0.06020  1.0000
  C   C5        1.0  0.00300  0.78120  0.93980  1.0000
  C   C6        1.0  0.49700  0.71880  0.93980  1.0000
  C   C7        1.0  0.71880  0.00300  0.93980  1.0000
  C   C8        1.0  0.78120  0.49700  0.93980  1.0000
  H   H1        1.0  0.99050  0.21583  0.15968  1.0000
  H   H2        1.0  0.50950  0.28417  0.15968  1.0000
  H   H3        1.0  0.28417  0.99050  0.15968  1.0000
  H   H4        1.0  0.21583  0.50950  0.15968  1.0000
  H   H5        1.0  0.00950  0.78417  0.84032  1.0000
  H   H6        1.0  0.49050  0.71583  0.84032  1.0000
  H   H7        1.0  0.71583  0.00950  0.84032  1.0000
  H   H8        1.0  0.78417  0.49050  0.84032  1.0000
  H   H9        1.0  0.02037  0.17642  0.02984  1.0000
  H   H10       1.0  0.47963  0.32358  0.02984  1.0000
  H   H11       1.0  0.32358  0.02037  0.02984  1.0000
  H   H12       1.0  0.17642  0.47963  0.02984  1.0000
  H   H13       1.0  0.97963  0.82358  0.97016  1.0000
  H   H14       1.0  0.52037  0.67642  0.97016  1.0000
  H   H15       1.0  0.67642  0.97963  0.97016  1.0000
  H   H16       1.0  0.82358  0.52037  0.97016  1.0000
  O   O9        1.0  0.91200  0.28140  0.93860  1.0000
  O   O10       1.0  0.58800  0.21860  0.93860  1.0000
  O   O11       1.0  0.21860  0.91200  0.93860  1.0000
  O   O12       1.0  0.28140  0.58800  0.93860  1.0000
  O   O13       1.0  0.08800  0.71860  0.06140  1.0000
  O   O14       1.0  0.41200  0.78140  0.06140  1.0000
  O   O15       1.0  0.78140  0.08800  0.06140  1.0000
  O   O16       1.0  0.71860  0.41200  0.06140  1.0000
  N   N9        1.0  0.02610  0.40150  0.30470  1.0000
  N   N10       1.0  0.47390  0.09850  0.30470  1.0000
  N   N11       1.0  0.09850  0.02610  0.30470  1.0000
  N   N12       1.0  0.40150  0.47390  0.30470  1.0000
  N   N13       1.0  0.97390  0.59850  0.69530  1.0000
  N   N14       1.0  0.52610  0.90150  0.69530  1.0000
  N   N15       1.0  0.90150  0.97390  0.69530  1.0000
  N   N16       1.0  0.59850  0.52610  0.69530  1.0000
  C   C9        1.0  0.92830  0.22400  0.99190  1.0000
  C   C10       1.0  0.57170  0.27600  0.99190  1.0000
  C   C11       1.0  0.27600  0.92830  0.99190  1.0000
  C   C12       1.0  0.22400  0.57170  0.99190  1.0000
  C   C13       1.0  0.07170  0.77600  0.00810  1.0000
  C   C14       1.0  0.42830  0.72400  0.00810  1.0000
  C   C15       1.0  0.72400  0.07170  0.00810  1.0000
  C   C16       1.0  0.77600  0.42830  0.00810  1.0000
  O   O17       1.0  0.06350  0.39330  0.88690  1.0000
  O   O18       1.0  0.43650  0.10670  0.88690  1.0000
  O   O19       1.0  0.10670  0.06350  0.88690  1.0000
  O   O20       1.0  0.39330  0.43650  0.88690  1.0000
  O   O21       1.0  0.93650  0.60670  0.11310  1.0000
  O   O22       1.0  0.56350  0.89330  0.11310  1.0000
  O   O23       1.0  0.89330  0.93650  0.11310  1.0000
  O   O24       1.0  0.60670  0.56350  0.11310  1.0000
  C   C17       1.0  0.06090  0.27390  0.88550  1.0000
  C   C18       1.0  0.43910  0.22610  0.88550  1.0000
  C   C19       1.0  0.22610  0.06090  0.88550  1.0000
  C   C20       1.0  0.27390  0.43910  0.88550  1.0000
  C   C21       1.0  0.93910  0.72610  0.11450  1.0000
  C   C22       1.0  0.56090  0.77390  0.11450  1.0000
  C   C23       1.0  0.77390  0.93910  0.11450  1.0000
  C   C24       1.0  0.72610  0.56090  0.11450  1.0000
  H   H17       1.0  0.02210  0.25636  0.83097  1.0000
  H   H18       1.0  0.47790  0.24364  0.83097  1.0000
  H   H19       1.0  0.24364  0.02210  0.83097  1.0000
  H   H20       1.0  0.25636  0.47790  0.83097  1.0000
  H   H21       1.0  0.97790  0.74364  0.16903  1.0000
  H   H22       1.0  0.52210  0.75636  0.16903  1.0000
  H   H23       1.0  0.75636  0.97790  0.16903  1.0000
  H   H24       1.0  0.74364  0.52210  0.16903  1.0000
  H   H25       1.0  0.09895  0.24050  0.87744  1.0000
  H   H26       1.0  0.40105  0.25950  0.87744  1.0000
  H   H27       1.0  0.25950  0.09895  0.87744  1.0000
  H   H28       1.0  0.24050  0.40105  0.87744  1.0000
  H   H29       1.0  0.90105  0.75950  0.12256  1.0000
  H   H30       1.0  0.59895  0.74050  0.12256  1.0000
  H   H31       1.0  0.74050  0.90105  0.12256  1.0000
  H   H32       1.0  0.75950  0.59895  0.12256  1.0000
  O   O25       1.0  0.11650  0.34050  0.72080  1.0000
  O   O26       1.0  0.38350  0.15950  0.72080  1.0000
  O   O27       1.0  0.15950  0.11650  0.72080  1.0000
  O   O28       1.0  0.34050  0.38350  0.72080  1.0000
  O   O29       1.0  0.88350  0.65950  0.27920  1.0000
  O   O30       1.0  0.61650  0.84050  0.27920  1.0000
  O   O31       1.0  0.84050  0.88350  0.27920  1.0000
  O   O32       1.0  0.65950  0.61650  0.27920  1.0000
  C   C25       1.0  0.08350  0.34020  0.82800  1.0000
  C   C26       1.0  0.41650  0.15980  0.82800  1.0000
  C   C27       1.0  0.15980  0.08350  0.82800  1.0000
  C   C28       1.0  0.34020  0.41650  0.82800  1.0000
  C   C29       1.0  0.91650  0.65980  0.17200  1.0000
  C   C30       1.0  0.58350  0.84020  0.17200  1.0000
  C   C31       1.0  0.84020  0.91650  0.17200  1.0000
  C   C32       1.0  0.65980  0.58350  0.17200  1.0000
  O   O33       1.0  0.90240  0.28080  0.44140  1.0000
  O   O34       1.0  0.59760  0.21920  0.44140  1.0000
  O   O35       1.0  0.21920  0.90240  0.44140  1.0000
  O   O36       1.0  0.28080  0.59760  0.44140  1.0000
  O   O37       1.0  0.09760  0.71920  0.55860  1.0000
  O   O38       1.0  0.40240  0.78080  0.55860  1.0000
  O   O39       1.0  0.78080  0.09760  0.55860  1.0000
  O   O40       1.0  0.71920  0.40240  0.55860  1.0000
  C   C33       1.0  0.98100  0.37090  0.40920  1.0000
  C   C34       1.0  0.51900  0.12910  0.40920  1.0000
  C   C35       1.0  0.12910  0.98100  0.40920  1.0000
  C   C36       1.0  0.37090  0.51900  0.40920  1.0000
  C   C37       1.0  0.01900  0.62910  0.59080  1.0000
  C   C38       1.0  0.48100  0.87090  0.59080  1.0000
  C   C39       1.0  0.87090  0.01900  0.59080  1.0000
  C   C40       1.0  0.62910  0.48100  0.59080  1.0000
  H   H33       1.0  0.95596  0.40818  0.45600  1.0000
  H   H34       1.0  0.54404  0.09182  0.45600  1.0000
  H   H35       1.0  0.09182  0.95596  0.45600  1.0000
  H   H36       1.0  0.40818  0.54404  0.45600  1.0000
  H   H37       1.0  0.04404  0.59182  0.54400  1.0000
  H   H38       1.0  0.45596  0.90818  0.54400  1.0000
  H   H39       1.0  0.90818  0.04404  0.54400  1.0000
  H   H40       1.0  0.59182  0.45596  0.54400  1.0000
  H   H41       1.0  0.00991  0.34753  0.47764  1.0000
  H   H42       1.0  0.49009  0.15247  0.47764  1.0000
  H   H43       1.0  0.15247  0.00991  0.47764  1.0000
  H   H44       1.0  0.34753  0.49009  0.47764  1.0000
  H   H45       1.0  0.99009  0.65247  0.52236  1.0000
  H   H46       1.0  0.50991  0.84753  0.52236  1.0000
  H   H47       1.0  0.84753  0.99009  0.52236  1.0000
  H   H48       1.0  0.65247  0.50991  0.52236  1.0000
  O   O41       1.0  0.91680  0.31890  0.22790  1.0000
  O   O42       1.0  0.58320  0.18110  0.22790  1.0000
  O   O43       1.0  0.18110  0.91680  0.22790  1.0000
  O   O44       1.0  0.31890  0.58320  0.22790  1.0000
  O   O45       1.0  0.08320  0.68110  0.77210  1.0000
  O   O46       1.0  0.41680  0.81890  0.77210  1.0000
  O   O47       1.0  0.81890  0.08320  0.77210  1.0000
  O   O48       1.0  0.68110  0.41680  0.77210  1.0000
  C   C41       1.0  0.92960  0.32010  0.35370  1.0000
  C   C42       1.0  0.57040  0.17990  0.35370  1.0000
  C   C43       1.0  0.17990  0.92960  0.35370  1.0000
  C   C44       1.0  0.32010  0.57040  0.35370  1.0000
  C   C45       1.0  0.07040  0.67990  0.64630  1.0000
  C   C46       1.0  0.42960  0.82010  0.64630  1.0000
  C   C47       1.0  0.82010  0.07040  0.64630  1.0000
  C   C48       1.0  0.67990  0.42960  0.64630  1.0000
  O   O49       1.0  0.07470  0.57590  0.22250  1.0000
  O   O50       1.0  0.42530  0.92410  0.22250  1.0000
  O   O51       1.0  0.92410  0.07470  0.22250  1.0000
  O   O52       1.0  0.57590  0.42530  0.22250  1.0000
  O   O53       1.0  0.92530  0.42410  0.77750  1.0000
  O   O54       1.0  0.57470  0.07590  0.77750  1.0000
  O   O55       1.0  0.07590  0.92530  0.77750  1.0000
  O   O56       1.0  0.42410  0.57470  0.77750  1.0000
  C   C49       1.0  0.03800  0.47400  0.33310  1.0000
  C   C50       1.0  0.46200  0.02600  0.33310  1.0000
  C   C51       1.0  0.02600  0.03800  0.33310  1.0000
  C   C52       1.0  0.47400  0.46200  0.33310  1.0000
  C   C53       1.0  0.96200  0.52600  0.66690  1.0000
  C   C54       1.0  0.53800  0.97400  0.66690  1.0000
  C   C55       1.0  0.97400  0.96200  0.66690  1.0000
  C   C56       1.0  0.52600  0.53800  0.66690  1.0000
  H   H49       1.0  0.07615  0.47814  0.39873  1.0000
  H   H50       1.0  0.42385  0.02186  0.39873  1.0000
  H   H51       1.0  0.02186  0.07615  0.39873  1.0000
  H   H52       1.0  0.47814  0.42385  0.39873  1.0000
  H   H53       1.0  0.92385  0.52186  0.60127  1.0000
  H   H54       1.0  0.57615  0.97814  0.60127  1.0000
  H   H55       1.0  0.97814  0.92385  0.60127  1.0000
  H   H56       1.0  0.52186  0.57615  0.60127  1.0000
  H   H57       1.0  0.99647  0.49342  0.37631  1.0000
  H   H58       1.0  0.50353  0.00658  0.37631  1.0000
  H   H59       1.0  0.00658  0.99647  0.37631  1.0000
  H   H60       1.0  0.49342  0.50353  0.37631  1.0000
  H   H61       1.0  0.00353  0.50658  0.62369  1.0000
  H   H62       1.0  0.49647  0.99342  0.62369  1.0000
  H   H63       1.0  0.99342  0.00353  0.62369  1.0000
  H   H64       1.0  0.50658  0.49647  0.62369  1.0000
  O   O57       1.0  0.04650  0.48910  0.09470  1.0000
  O   O58       1.0  0.45350  0.01090  0.09470  1.0000
  O   O59       1.0  0.01090  0.04650  0.09470  1.0000
  O   O60       1.0  0.48910  0.45350  0.09470  1.0000
  O   O61       1.0  0.95350  0.51090  0.90530  1.0000
  O   O62       1.0  0.54650  0.98910  0.90530  1.0000
  O   O63       1.0  0.98910  0.95350  0.90530  1.0000
  O   O64       1.0  0.51090  0.54650  0.90530  1.0000
  O   O65       1.0  0.90010  0.48140  0.19670  1.0000
  O   O66       1.0  0.59990  0.01860  0.19670  1.0000
  O   O67       1.0  0.01860  0.90010  0.19670  1.0000
  O   O68       1.0  0.48140  0.59990  0.19670  1.0000
  O   O69       1.0  0.09990  0.51860  0.80330  1.0000
  O   O70       1.0  0.40010  0.98140  0.80330  1.0000
  O   O71       1.0  0.98140  0.09990  0.80330  1.0000
  O   O72       1.0  0.51860  0.40010  0.80330  1.0000
  H   H65       1.0  0.90100  0.51500  0.14600  1.0000
  H   H66       1.0  0.59900  0.98500  0.14600  1.0000
  H   H67       1.0  0.98500  0.90100  0.14600  1.0000
  H   H68       1.0  0.51500  0.59900  0.14600  1.0000
  H   H69       1.0  0.09900  0.48500  0.85400  1.0000
  H   H70       1.0  0.40100  0.01500  0.85400  1.0000
  H   H71       1.0  0.01500  0.09900  0.85400  1.0000
  H   H72       1.0  0.48500  0.40100  0.85400  1.0000
  C   C57       1.0  0.05470  0.51530  0.20950  1.0000
  C   C58       1.0  0.44530  0.98470  0.20950  1.0000
  C   C59       1.0  0.98470  0.05470  0.20950  1.0000
  C   C60       1.0  0.51530  0.44530  0.20950  1.0000
  C   C61       1.0  0.94530  0.48470  0.79050  1.0000
  C   C62       1.0  0.55470  0.01530  0.79050  1.0000
  C   C63       1.0  0.01530  0.94530  0.79050  1.0000
  C   C64       1.0  0.48470  0.55470  0.79050  1.0000
  C   C65       1.0  0.10300  0.27790  0.11130  1.0000
  C   C66       1.0  0.39700  0.22210  0.11130  1.0000
  C   C67       1.0  0.22210  0.10300  0.11130  1.0000
  C   C68       1.0  0.27790  0.39700  0.11130  1.0000
  C   C69       1.0  0.89700  0.72210  0.88870  1.0000
  C   C70       1.0  0.60300  0.77790  0.88870  1.0000
  C   C71       1.0  0.77790  0.89700  0.88870  1.0000
  C   C72       1.0  0.72210  0.60300  0.88870  1.0000
  H   H73       1.0  0.13446  0.31271  0.07312  1.0000
  H   H74       1.0  0.36554  0.18729  0.07312  1.0000
  H   H75       1.0  0.18729  0.13446  0.07312  1.0000
  H   H76       1.0  0.31271  0.36554  0.07312  1.0000
  H   H77       1.0  0.86554  0.68729  0.92688  1.0000
  H   H78       1.0  0.63446  0.81271  0.92688  1.0000
  H   H79       1.0  0.81271  0.86554  0.92688  1.0000
  H   H80       1.0  0.68729  0.63446  0.92688  1.0000
  H   H81       1.0  0.12543  0.23273  0.10105  1.0000
  H   H82       1.0  0.37457  0.26727  0.10105  1.0000
  H   H83       1.0  0.26727  0.12543  0.10105  1.0000
  H   H84       1.0  0.23273  0.37457  0.10105  1.0000
  H   H85       1.0  0.87457  0.76727  0.89895  1.0000
  H   H86       1.0  0.62543  0.73273  0.89895  1.0000
  H   H87       1.0  0.73273  0.87457  0.89895  1.0000
  H   H88       1.0  0.76727  0.62543  0.89895  1.0000
  C   C73       1.0  0.09470  0.29220  0.26100  1.0000
  C   C74       1.0  0.40530  0.20780  0.26100  1.0000
  C   C75       1.0  0.20780  0.09470  0.26100  1.0000
  C   C76       1.0  0.29220  0.40530  0.26100  1.0000
  C   C77       1.0  0.90530  0.70780  0.73900  1.0000
  C   C78       1.0  0.59470  0.79220  0.73900  1.0000
  C   C79       1.0  0.79220  0.90530  0.73900  1.0000
  C   C80       1.0  0.70780  0.59470  0.73900  1.0000
  H   H89       1.0  0.13305  0.26982  0.30974  1.0000
  H   H90       1.0  0.36695  0.23018  0.30974  1.0000
  H   H91       1.0  0.23018  0.13305  0.30974  1.0000
  H   H92       1.0  0.26982  0.36695  0.30974  1.0000
  H   H93       1.0  0.86695  0.73018  0.69026  1.0000
  H   H94       1.0  0.63305  0.76982  0.69026  1.0000
  H   H95       1.0  0.76982  0.86695  0.69026  1.0000
  H   H96       1.0  0.73018  0.63305  0.69026  1.0000
  H   H97       1.0  0.05181  0.27010  0.29206  1.0000
  H   H98       1.0  0.44819  0.22990  0.29206  1.0000
  H   H99       1.0  0.22990  0.05181  0.29206  1.0000
  H   H100      1.0  0.27010  0.44819  0.29206  1.0000
  H   H101      1.0  0.94819  0.72990  0.70794  1.0000
  H   H102      1.0  0.55181  0.77010  0.70794  1.0000
  H   H103      1.0  0.77010  0.94819  0.70794  1.0000
  H   H104      1.0  0.72990  0.55181  0.70794  1.0000
  C   C81       1.0  0.09270  0.36660  0.30280  1.0000
  C   C82       1.0  0.40730  0.13340  0.30280  1.0000
  C   C83       1.0  0.13340  0.09270  0.30280  1.0000
  C   C84       1.0  0.36660  0.40730  0.30280  1.0000
  C   C85       1.0  0.90730  0.63340  0.69720  1.0000
  C   C86       1.0  0.59270  0.86660  0.69720  1.0000
  C   C87       1.0  0.86660  0.90730  0.69720  1.0000
  C   C88       1.0  0.63340  0.59270  0.69720  1.0000
  H   H105      1.0  0.11261  0.37008  0.39496  1.0000
  H   H106      1.0  0.38739  0.12992  0.39496  1.0000
  H   H107      1.0  0.12992  0.11261  0.39496  1.0000
  H   H108      1.0  0.37008  0.38739  0.39496  1.0000
  H   H109      1.0  0.88739  0.62992  0.60504  1.0000
  H   H110      1.0  0.61261  0.87008  0.60504  1.0000
  H   H111      1.0  0.87008  0.88739  0.60504  1.0000
  H   H112      1.0  0.62992  0.61261  0.60504  1.0000
  H   H113      1.0  0.12316  0.39240  0.24080  1.0000
  H   H114      1.0  0.37684  0.10760  0.24080  1.0000
  H   H115      1.0  0.10760  0.12316  0.24080  1.0000
  H   H116      1.0  0.39240  0.37684  0.24080  1.0000
  H   H117      1.0  0.87684  0.60760  0.75920  1.0000
  H   H118      1.0  0.62316  0.89240  0.75920  1.0000
  H   H119      1.0  0.89240  0.87684  0.75920  1.0000
  H   H120      1.0  0.60760  0.62316  0.75920  1.0000
  H   H121      1.0  0.86150  0.46410  0.20300  1.0000
  H   H122      1.0  0.63850  0.03590  0.20300  1.0000
  H   H123      1.0  0.03590  0.86150  0.20300  1.0000
  H   H124      1.0  0.46410  0.63850  0.20300  1.0000
  H   H125      1.0  0.13850  0.53590  0.79700  1.0000
  H   H126      1.0  0.36150  0.96410  0.79700  1.0000
  H   H127      1.0  0.96410  0.13850  0.79700  1.0000
  H   H128      1.0  0.53590  0.36150  0.79700  1.0000
