data_image0
_chemical_formula_structural       Ce8C8H16C16H16C16H16C16H16C16H16C8H16C8H16N16O72H16
_chemical_formula_sum              "Ce8 C88 H128 N16 O72"
_cell_length_a       19.4161
_cell_length_b       19.4161
_cell_length_c       9.9444
_cell_angle_alpha    90
_cell_angle_beta     90
_cell_angle_gamma    90

_space_group_name_H-M_alt    "P 1"
_space_group_IT_number       1

loop_
  _space_group_symop_operation_xyz
  'x, y, z'

loop_
  _atom_site_type_symbol
  _atom_site_label
  _atom_site_symmetry_multiplicity
  _atom_site_fract_x
  _atom_site_fract_y
  _atom_site_fract_z
  _atom_site_occupancy
  Ce  Ce1       1.0  0.45676  0.60542  0.04134  1.0000
  Ce  Ce2       1.0  0.04324  0.89458  0.04134  1.0000
  Ce  Ce3       1.0  0.89458  0.45676  0.04134  1.0000
  Ce  Ce4       1.0  0.60542  0.04324  0.04134  1.0000
  Ce  Ce5       1.0  0.54324  0.39458  0.95866  1.0000
  Ce  Ce6       1.0  0.95676  0.10542  0.95866  1.0000
  Ce  Ce7       1.0  0.10542  0.54324  0.95866  1.0000
  Ce  Ce8       1.0  0.39458  0.95676  0.95866  1.0000
  C   C1        1.0  0.53910  0.52500  0.33130  1.0000
  C   C2        1.0  0.96090  0.97500  0.33130  1.0000
  C   C3        1.0  0.97500  0.53910  0.33130  1.0000
  C   C4        1.0  0.52500  0.96090  0.33130  1.0000
  C   C5        1.0  0.46090  0.47500  0.66870  1.0000
  C   C6        1.0  0.03910  0.02500  0.66870  1.0000
  C   C7        1.0  0.02500  0.46090  0.66870  1.0000
  C   C8        1.0  0.47500  0.03910  0.66870  1.0000
  H   H1        1.0  0.49740  0.50544  0.37377  1.0000
  H   H2        1.0  0.00260  0.99456  0.37377  1.0000
  H   H3        1.0  0.99456  0.49740  0.37377  1.0000
  H   H4        1.0  0.50544  0.00260  0.37377  1.0000
  H   H5        1.0  0.50260  0.49456  0.62623  1.0000
  H   H6        1.0  0.99740  0.00544  0.62623  1.0000
  H   H7        1.0  0.00544  0.50260  0.62623  1.0000
  H   H8        1.0  0.49456  0.99740  0.62623  1.0000
  H   H9        1.0  0.57734  0.52141  0.39682  1.0000
  H   H10       1.0  0.92266  0.97859  0.39682  1.0000
  H   H11       1.0  0.97859  0.57734  0.39682  1.0000
  H   H12       1.0  0.52141  0.92266  0.39682  1.0000
  H   H13       1.0  0.42266  0.47859  0.60318  1.0000
  H   H14       1.0  0.07734  0.02141  0.60318  1.0000
  H   H15       1.0  0.02141  0.42266  0.60318  1.0000
  H   H16       1.0  0.47859  0.07734  0.60318  1.0000
  C   C9        1.0  0.55680  0.48300  0.20850  1.0000
  C   C10       1.0  0.94320  0.01700  0.20850  1.0000
  C   C11       1.0  0.01700  0.55680  0.20850  1.0000
  C   C12       1.0  0.48300  0.94320  0.20850  1.0000
  C   C13       1.0  0.44320  0.51700  0.79150  1.0000
  C   C14       1.0  0.05680  0.98300  0.79150  1.0000
  C   C15       1.0  0.98300  0.44320  0.79150  1.0000
  C   C16       1.0  0.51700  0.05680  0.79150  1.0000
  C   C17       1.0  0.48210  0.62880  0.40470  1.0000
  C   C18       1.0  0.01790  0.87120  0.40470  1.0000
  C   C19       1.0  0.87120  0.48210  0.40470  1.0000
  C   C20       1.0  0.62880  0.01790  0.40470  1.0000
  C   C21       1.0  0.51790  0.37120  0.59530  1.0000
  C   C22       1.0  0.98210  0.12880  0.59530  1.0000
  C   C23       1.0  0.12880  0.51790  0.59530  1.0000
  C   C24       1.0  0.37120  0.98210  0.59530  1.0000
  H   H17       1.0  0.51135  0.65185  0.47269  1.0000
  H   H18       1.0  0.98865  0.84815  0.47269  1.0000
  H   H19       1.0  0.84815  0.51135  0.47269  1.0000
  H   H20       1.0  0.65185  0.98865  0.47269  1.0000
  H   H21       1.0  0.48865  0.34815  0.52731  1.0000
  H   H22       1.0  0.01135  0.15185  0.52731  1.0000
  H   H23       1.0  0.15185  0.48865  0.52731  1.0000
  H   H24       1.0  0.34815  0.01135  0.52731  1.0000
  H   H25       1.0  0.45640  0.59157  0.45077  1.0000
  H   H26       1.0  0.04360  0.90843  0.45077  1.0000
  H   H27       1.0  0.90843  0.45640  0.45077  1.0000
  H   H28       1.0  0.59157  0.04360  0.45077  1.0000
  H   H29       1.0  0.54360  0.40843  0.54923  1.0000
  H   H30       1.0  0.95640  0.09157  0.54923  1.0000
  H   H31       1.0  0.09157  0.54360  0.54923  1.0000
  H   H32       1.0  0.40843  0.95640  0.54923  1.0000
  C   C25       1.0  0.43130  0.68030  0.34980  1.0000
  C   C26       1.0  0.06870  0.81970  0.34980  1.0000
  C   C27       1.0  0.81970  0.43130  0.34980  1.0000
  C   C28       1.0  0.68030  0.06870  0.34980  1.0000
  C   C29       1.0  0.56870  0.31970  0.65020  1.0000
  C   C30       1.0  0.93130  0.18030  0.65020  1.0000
  C   C31       1.0  0.18030  0.56870  0.65020  1.0000
  C   C32       1.0  0.31970  0.93130  0.65020  1.0000
  C   C33       1.0  0.49680  0.78230  0.05780  1.0000
  C   C34       1.0  0.00320  0.71770  0.05780  1.0000
  C   C35       1.0  0.71770  0.49680  0.05780  1.0000
  C   C36       1.0  0.78230  0.00320  0.05780  1.0000
  C   C37       1.0  0.50320  0.21770  0.94220  1.0000
  C   C38       1.0  0.99680  0.28230  0.94220  1.0000
  C   C39       1.0  0.28230  0.50320  0.94220  1.0000
  C   C40       1.0  0.21770  0.99680  0.94220  1.0000
  H   H33       1.0  0.52009  0.82492  0.02718  1.0000
  H   H34       1.0  0.97991  0.67508  0.02718  1.0000
  H   H35       1.0  0.67508  0.52009  0.02718  1.0000
  H   H36       1.0  0.82492  0.97991  0.02718  1.0000
  H   H37       1.0  0.47991  0.17508  0.97282  1.0000
  H   H38       1.0  0.02009  0.32492  0.97282  1.0000
  H   H39       1.0  0.32492  0.47991  0.97282  1.0000
  H   H40       1.0  0.17508  0.02009  0.97282  1.0000
  H   H41       1.0  0.48990  0.78564  0.15621  1.0000
  H   H42       1.0  0.01010  0.71436  0.15621  1.0000
  H   H43       1.0  0.71436  0.48990  0.15621  1.0000
  H   H44       1.0  0.78564  0.01010  0.15621  1.0000
  H   H45       1.0  0.51010  0.21436  0.84379  1.0000
  H   H46       1.0  0.98990  0.28564  0.84379  1.0000
  H   H47       1.0  0.28564  0.51010  0.84379  1.0000
  H   H48       1.0  0.21436  0.98990  0.84379  1.0000
  C   C41       1.0  0.42810  0.77550  0.98850  1.0000
  C   C42       1.0  0.07190  0.72450  0.98850  1.0000
  C   C43       1.0  0.72450  0.42810  0.98850  1.0000
  C   C44       1.0  0.77550  0.07190  0.98850  1.0000
  C   C45       1.0  0.57190  0.22450  0.01150  1.0000
  C   C46       1.0  0.92810  0.27550  0.01150  1.0000
  C   C47       1.0  0.27550  0.57190  0.01150  1.0000
  C   C48       1.0  0.22450  0.92810  0.01150  1.0000
  C   C49       1.0  0.56110  0.72650  0.88390  1.0000
  C   C50       1.0  0.93890  0.77350  0.88390  1.0000
  C   C51       1.0  0.77350  0.56110  0.88390  1.0000
  C   C52       1.0  0.72650  0.93890  0.88390  1.0000
  C   C53       1.0  0.43890  0.27350  0.11610  1.0000
  C   C54       1.0  0.06110  0.22650  0.11610  1.0000
  C   C55       1.0  0.22650  0.43890  0.11610  1.0000
  C   C56       1.0  0.27350  0.06110  0.11610  1.0000
  H   H49       1.0  0.59998  0.75926  0.87566  1.0000
  H   H50       1.0  0.90002  0.74074  0.87566  1.0000
  H   H51       1.0  0.74074  0.59998  0.87566  1.0000
  H   H52       1.0  0.75926  0.90002  0.87566  1.0000
  H   H53       1.0  0.40002  0.24074  0.12434  1.0000
  H   H54       1.0  0.09998  0.25926  0.12434  1.0000
  H   H55       1.0  0.25926  0.40002  0.12434  1.0000
  H   H56       1.0  0.24074  0.09998  0.12434  1.0000
  H   H57       1.0  0.52212  0.74506  0.83089  1.0000
  H   H58       1.0  0.97788  0.75494  0.83089  1.0000
  H   H59       1.0  0.75494  0.52212  0.83089  1.0000
  H   H60       1.0  0.74506  0.97788  0.83089  1.0000
  H   H61       1.0  0.47788  0.25494  0.16911  1.0000
  H   H62       1.0  0.02212  0.24506  0.16911  1.0000
  H   H63       1.0  0.24506  0.47788  0.16911  1.0000
  H   H64       1.0  0.25494  0.02212  0.16911  1.0000
  C   C57       1.0  0.58240  0.65780  0.82570  1.0000
  C   C58       1.0  0.91760  0.84220  0.82570  1.0000
  C   C59       1.0  0.84220  0.58240  0.82570  1.0000
  C   C60       1.0  0.65780  0.91760  0.82570  1.0000
  C   C61       1.0  0.41760  0.34220  0.17430  1.0000
  C   C62       1.0  0.08240  0.15780  0.17430  1.0000
  C   C63       1.0  0.15780  0.41760  0.17430  1.0000
  C   C64       1.0  0.34220  0.08240  0.17430  1.0000
  C   C65       1.0  0.59520  0.63190  0.30000  1.0000
  C   C66       1.0  0.90480  0.86810  0.30000  1.0000
  C   C67       1.0  0.86810  0.59520  0.30000  1.0000
  C   C68       1.0  0.63190  0.90480  0.30000  1.0000
  C   C69       1.0  0.40480  0.36810  0.70000  1.0000
  C   C70       1.0  0.09520  0.13190  0.70000  1.0000
  C   C71       1.0  0.13190  0.40480  0.70000  1.0000
  C   C72       1.0  0.36810  0.09520  0.70000  1.0000
  H   H65       1.0  0.62570  0.60582  0.23857  1.0000
  H   H66       1.0  0.87430  0.89418  0.23857  1.0000
  H   H67       1.0  0.89418  0.62570  0.23857  1.0000
  H   H68       1.0  0.60582  0.87430  0.23857  1.0000
  H   H69       1.0  0.37430  0.39418  0.76143  1.0000
  H   H70       1.0  0.12570  0.10582  0.76143  1.0000
  H   H71       1.0  0.10582  0.37430  0.76143  1.0000
  H   H72       1.0  0.39418  0.12570  0.76143  1.0000
  H   H73       1.0  0.61511  0.62845  0.39136  1.0000
  H   H74       1.0  0.88489  0.87155  0.39136  1.0000
  H   H75       1.0  0.87155  0.61511  0.39136  1.0000
  H   H76       1.0  0.62845  0.88489  0.39136  1.0000
  H   H77       1.0  0.38489  0.37155  0.60864  1.0000
  H   H78       1.0  0.11511  0.12845  0.60864  1.0000
  H   H79       1.0  0.12845  0.38489  0.60864  1.0000
  H   H80       1.0  0.37155  0.11511  0.60864  1.0000
  C   C73       1.0  0.59660  0.70800  0.25740  1.0000
  C   C74       1.0  0.90340  0.79200  0.25740  1.0000
  C   C75       1.0  0.79200  0.59660  0.25740  1.0000
  C   C76       1.0  0.70800  0.90340  0.25740  1.0000
  C   C77       1.0  0.40340  0.29200  0.74260  1.0000
  C   C78       1.0  0.09660  0.20800  0.74260  1.0000
  C   C79       1.0  0.20800  0.40340  0.74260  1.0000
  C   C80       1.0  0.29200  0.09660  0.74260  1.0000
  H   H81       1.0  0.55345  0.72985  0.28895  1.0000
  H   H82       1.0  0.94655  0.77015  0.28895  1.0000
  H   H83       1.0  0.77015  0.55345  0.28895  1.0000
  H   H84       1.0  0.72985  0.94655  0.28895  1.0000
  H   H85       1.0  0.44655  0.27015  0.71105  1.0000
  H   H86       1.0  0.05345  0.22985  0.71105  1.0000
  H   H87       1.0  0.22985  0.44655  0.71105  1.0000
  H   H88       1.0  0.27015  0.05345  0.71105  1.0000
  H   H89       1.0  0.63515  0.73072  0.30501  1.0000
  H   H90       1.0  0.86485  0.76928  0.30501  1.0000
  H   H91       1.0  0.76928  0.63515  0.30501  1.0000
  H   H92       1.0  0.73072  0.86485  0.30501  1.0000
  H   H93       1.0  0.36485  0.26928  0.69499  1.0000
  H   H94       1.0  0.13515  0.23072  0.69499  1.0000
  H   H95       1.0  0.23072  0.36485  0.69499  1.0000
  H   H96       1.0  0.26928  0.13515  0.69499  1.0000
  C   C81       1.0  0.60410  0.72280  0.10850  1.0000
  C   C82       1.0  0.89590  0.77720  0.10850  1.0000
  C   C83       1.0  0.77720  0.60410  0.10850  1.0000
  C   C84       1.0  0.72280  0.89590  0.10850  1.0000
  C   C85       1.0  0.39590  0.27720  0.89150  1.0000
  C   C86       1.0  0.10410  0.22280  0.89150  1.0000
  C   C87       1.0  0.22280  0.39590  0.89150  1.0000
  C   C88       1.0  0.27720  0.10410  0.89150  1.0000
  H   H97       1.0  0.62570  0.76869  0.09851  1.0000
  H   H98       1.0  0.87430  0.73131  0.09851  1.0000
  H   H99       1.0  0.73131  0.62570  0.09851  1.0000
  H   H100      1.0  0.76869  0.87430  0.09851  1.0000
  H   H101      1.0  0.37430  0.23131  0.90149  1.0000
  H   H102      1.0  0.12570  0.26869  0.90149  1.0000
  H   H103      1.0  0.26869  0.37430  0.90149  1.0000
  H   H104      1.0  0.23131  0.12570  0.90149  1.0000
  H   H105      1.0  0.63645  0.68859  0.07023  1.0000
  H   H106      1.0  0.86355  0.81141  0.07023  1.0000
  H   H107      1.0  0.81141  0.63645  0.07023  1.0000
  H   H108      1.0  0.68859  0.86355  0.07023  1.0000
  H   H109      1.0  0.36355  0.31141  0.92977  1.0000
  H   H110      1.0  0.13645  0.18859  0.92977  1.0000
  H   H111      1.0  0.18859  0.36355  0.92977  1.0000
  H   H112      1.0  0.31141  0.13645  0.92977  1.0000
  N   N1        1.0  0.52690  0.59780  0.30120  1.0000
  N   N2        1.0  0.97310  0.90220  0.30120  1.0000
  N   N3        1.0  0.90220  0.52690  0.30120  1.0000
  N   N4        1.0  0.59780  0.97310  0.30120  1.0000
  N   N5        1.0  0.47310  0.40220  0.69880  1.0000
  N   N6        1.0  0.02690  0.09780  0.69880  1.0000
  N   N7        1.0  0.09780  0.47310  0.69880  1.0000
  N   N8        1.0  0.40220  0.02690  0.69880  1.0000
  N   N9        1.0  0.54050  0.72180  0.02650  1.0000
  N   N10       1.0  0.95950  0.77820  0.02650  1.0000
  N   N11       1.0  0.77820  0.54050  0.02650  1.0000
  N   N12       1.0  0.72180  0.95950  0.02650  1.0000
  N   N13       1.0  0.45950  0.27820  0.97350  1.0000
  N   N14       1.0  0.04050  0.22180  0.97350  1.0000
  N   N15       1.0  0.22180  0.45950  0.97350  1.0000
  N   N16       1.0  0.27820  0.04050  0.97350  1.0000
  O   O1        1.0  0.54620  0.51050  0.09340  1.0000
  O   O2        1.0  0.95380  0.98950  0.09340  1.0000
  O   O3        1.0  0.98950  0.54620  0.09340  1.0000
  O   O4        1.0  0.51050  0.95380  0.09340  1.0000
  O   O5        1.0  0.45380  0.48950  0.90660  1.0000
  O   O6        1.0  0.04620  0.01050  0.90660  1.0000
  O   O7        1.0  0.01050  0.45380  0.90660  1.0000
  O   O8        1.0  0.48950  0.04620  0.90660  1.0000
  O   O9        1.0  0.57600  0.42220  0.21970  1.0000
  O   O10       1.0  0.92400  0.07780  0.21970  1.0000
  O   O11       1.0  0.07780  0.57600  0.21970  1.0000
  O   O12       1.0  0.42220  0.92400  0.21970  1.0000
  O   O13       1.0  0.42400  0.57780  0.78030  1.0000
  O   O14       1.0  0.07600  0.92220  0.78030  1.0000
  O   O15       1.0  0.92220  0.42400  0.78030  1.0000
  O   O16       1.0  0.57780  0.07600  0.78030  1.0000
  O   O17       1.0  0.41840  0.67970  0.22570  1.0000
  O   O18       1.0  0.08160  0.82030  0.22570  1.0000
  O   O19       1.0  0.82030  0.41840  0.22570  1.0000
  O   O20       1.0  0.67970  0.08160  0.22570  1.0000
  O   O21       1.0  0.58160  0.32030  0.77430  1.0000
  O   O22       1.0  0.91840  0.17970  0.77430  1.0000
  O   O23       1.0  0.17970  0.58160  0.77430  1.0000
  O   O24       1.0  0.32030  0.91840  0.77430  1.0000
  O   O25       1.0  0.40170  0.71740  0.43490  1.0000
  O   O26       1.0  0.09830  0.78260  0.43490  1.0000
  O   O27       1.0  0.78260  0.40170  0.43490  1.0000
  O   O28       1.0  0.71740  0.09830  0.43490  1.0000
  O   O29       1.0  0.59830  0.28260  0.56510  1.0000
  O   O30       1.0  0.90170  0.21740  0.56510  1.0000
  O   O31       1.0  0.21740  0.59830  0.56510  1.0000
  O   O32       1.0  0.28260  0.90170  0.56510  1.0000
  O   O33       1.0  0.41210  0.71720  0.94290  1.0000
  O   O34       1.0  0.08790  0.78280  0.94290  1.0000
  O   O35       1.0  0.78280  0.41210  0.94290  1.0000
  O   O36       1.0  0.71720  0.08790  0.94290  1.0000
  O   O37       1.0  0.58790  0.28280  0.05710  1.0000
  O   O38       1.0  0.91210  0.21720  0.05710  1.0000
  O   O39       1.0  0.21720  0.58790  0.05710  1.0000
  O   O40       1.0  0.28280  0.91210  0.05710  1.0000
  O   O41       1.0  0.38980  0.82720  0.98380  1.0000
  O   O42       1.0  0.11020  0.67280  0.98380  1.0000
  O   O43       1.0  0.67280  0.38980  0.98380  1.0000
  O   O44       1.0  0.82720  0.11020  0.98380  1.0000
  O   O45       1.0  0.61020  0.17280  0.01620  1.0000
  O   O46       1.0  0.88980  0.32720  0.01620  1.0000
  O   O47       1.0  0.32720  0.61020  0.01620  1.0000
  O   O48       1.0  0.17280  0.88980  0.01620  1.0000
  O   O49       1.0  0.56250  0.60490  0.88810  1.0000
  O   O50       1.0  0.93750  0.89510  0.88810  1.0000
  O   O51       1.0  0.89510  0.56250  0.88810  1.0000
  O   O52       1.0  0.60490  0.93750  0.88810  1.0000
  O   O53       1.0  0.43750  0.39510  0.11190  1.0000
  O   O54       1.0  0.06250  0.10490  0.11190  1.0000
  O   O55       1.0  0.10490  0.43750  0.11190  1.0000
  O   O56       1.0  0.39510  0.06250  0.11190  1.0000
  O   O57       1.0  0.61630  0.65730  0.72090  1.0000
  O   O58       1.0  0.88370  0.84270  0.72090  1.0000
  O   O59       1.0  0.84270  0.61630  0.72090  1.0000
  O   O60       1.0  0.65730  0.88370  0.72090  1.0000
  O   O61       1.0  0.38370  0.34270  0.27910  1.0000
  O   O62       1.0  0.11630  0.15730  0.27910  1.0000
  O   O63       1.0  0.15730  0.38370  0.27910  1.0000
  O   O64       1.0  0.34270  0.11630  0.27910  1.0000
  O   O65       1.0  0.39980  0.52010  0.19310  1.0000
  O   O66       1.0  0.10020  0.97990  0.19310  1.0000
  O   O67       1.0  0.97990  0.39980  0.19310  1.0000
  O   O68       1.0  0.52010  0.10020  0.19310  1.0000
  O   O69       1.0  0.60020  0.47990  0.80690  1.0000
  O   O70       1.0  0.89980  0.02010  0.80690  1.0000
  O   O71       1.0  0.02010  0.60020  0.80690  1.0000
  O   O72       1.0  0.47990  0.89980  0.80690  1.0000
  H   H113      1.0  0.41724  0.47772  0.17935  1.0000
  H   H114      1.0  0.08276  0.02228  0.17935  1.0000
  H   H115      1.0  0.02228  0.41724  0.17935  1.0000
  H   H116      1.0  0.47772  0.08276  0.17935  1.0000
  H   H117      1.0  0.58276  0.52228  0.82065  1.0000
  H   H118      1.0  0.91724  0.97772  0.82065  1.0000
  H   H119      1.0  0.97772  0.58276  0.82065  1.0000
  H   H120      1.0  0.52228  0.91724  0.82065  1.0000
  H   H121      1.0  0.40642  0.53105  0.28025  1.0000
  H   H122      1.0  0.09358  0.96895  0.28025  1.0000
  H   H123      1.0  0.96895  0.40642  0.28025  1.0000
  H   H124      1.0  0.53105  0.09358  0.28025  1.0000
  H   H125      1.0  0.59358  0.46895  0.71975  1.0000
  H   H126      1.0  0.90642  0.03105  0.71975  1.0000
  H   H127      1.0  0.03105  0.59358  0.71975  1.0000
  H   H128      1.0  0.46895  0.90642  0.71975  1.0000
