data_image0
_chemical_formula_structural       Zn12O8C12H4C4H4C8H4C4H4C8H4C4H4C8H4C4H4C4O16C12H4C4H4C8H4C4H4C8H4C4H4C8H4C4H4C4O16C12H4C4H4C8H4C4H4C8H4C4H4C8H4C4H4C4O16C12H4C4H4C8H4C4H4C8H4C4H4C8H4C4H4C4O8
_chemical_formula_sum              "Zn12 O64 C224 H128"
_cell_length_a       24.6744
_cell_length_b       14.5575
_cell_length_c       22.4021
_cell_angle_alpha    90
_cell_angle_beta     90
_cell_angle_gamma    90

_space_group_name_H-M_alt    "P 1"
_space_group_IT_number       1

loop_
  _space_group_symop_operation_xyz
  'x, y, z'

loop_
  _atom_site_type_symbol
  _atom_site_label
  _atom_site_symmetry_multiplicity
  _atom_site_fract_x
  _atom_site_fract_y
  _atom_site_fract_z
  _atom_site_occupancy
  Zn  Zn1       1.0  0.65617  0.04083  0.61322  1.0000
  Zn  Zn2       1.0  0.34383  0.95917  0.11322  1.0000
  Zn  Zn3       1.0  0.84383  0.54083  0.11322  1.0000
  Zn  Zn4       1.0  0.15617  0.45917  0.61322  1.0000
  Zn  Zn5       1.0  0.65597  0.00357  0.77098  1.0000
  Zn  Zn6       1.0  0.34403  0.99643  0.27098  1.0000
  Zn  Zn7       1.0  0.84403  0.50357  0.27098  1.0000
  Zn  Zn8       1.0  0.15597  0.49643  0.77098  1.0000
  Zn  Zn9       1.0  0.66028  0.96078  0.93518  1.0000
  Zn  Zn10      1.0  0.33972  0.03922  0.43518  1.0000
  Zn  Zn11      1.0  0.83972  0.46078  0.43518  1.0000
  Zn  Zn12      1.0  0.16028  0.53922  0.93518  1.0000
  O   O1        1.0  0.65132  0.03415  0.52673  1.0000
  O   O2        1.0  0.34868  0.96585  0.02673  1.0000
  O   O3        1.0  0.84868  0.53415  0.02673  1.0000
  O   O4        1.0  0.15132  0.46585  0.52673  1.0000
  O   O5        1.0  0.73147  0.10132  0.51110  1.0000
  O   O6        1.0  0.26853  0.89868  0.01110  1.0000
  O   O7        1.0  0.76853  0.60132  0.01110  1.0000
  O   O8        1.0  0.23147  0.39868  0.51110  1.0000
  C   C1        1.0  0.69009  0.06170  0.49399  1.0000
  C   C2        1.0  0.30991  0.93830  0.99399  1.0000
  C   C3        1.0  0.80991  0.56170  0.99399  1.0000
  C   C4        1.0  0.19009  0.43830  0.49399  1.0000
  C   C5        1.0  0.68285  0.04070  0.42810  1.0000
  C   C6        1.0  0.31715  0.95930  0.92810  1.0000
  C   C7        1.0  0.81715  0.54070  0.92810  1.0000
  C   C8        1.0  0.18285  0.45930  0.42810  1.0000
  C   C9        1.0  0.64082  0.98600  0.40892  1.0000
  C   C10       1.0  0.35918  0.01400  0.90892  1.0000
  C   C11       1.0  0.85918  0.48600  0.90892  1.0000
  C   C12       1.0  0.14082  0.51400  0.40892  1.0000
  H   H1        1.0  0.61540  0.96290  0.43700  1.0000
  H   H2        1.0  0.38460  0.03710  0.93700  1.0000
  H   H3        1.0  0.88460  0.46290  0.93700  1.0000
  H   H4        1.0  0.11540  0.53710  0.43700  1.0000
  C   C13       1.0  0.63534  0.96440  0.34942  1.0000
  C   C14       1.0  0.36466  0.03560  0.84942  1.0000
  C   C15       1.0  0.86466  0.46440  0.84942  1.0000
  C   C16       1.0  0.13534  0.53560  0.34942  1.0000
  H   H5        1.0  0.60600  0.92670  0.33700  1.0000
  H   H6        1.0  0.39400  0.07330  0.83700  1.0000
  H   H7        1.0  0.89400  0.42670  0.83700  1.0000
  H   H8        1.0  0.10600  0.57330  0.33700  1.0000
  C   C17       1.0  0.67192  0.99670  0.30694  1.0000
  C   C18       1.0  0.32808  0.00330  0.80694  1.0000
  C   C19       1.0  0.82808  0.49670  0.80694  1.0000
  C   C20       1.0  0.17192  0.50330  0.30694  1.0000
  C   C21       1.0  0.71524  0.05060  0.32674  1.0000
  C   C22       1.0  0.28476  0.94940  0.82674  1.0000
  C   C23       1.0  0.78476  0.55060  0.82674  1.0000
  C   C24       1.0  0.21524  0.44940  0.32674  1.0000
  H   H9        1.0  0.74120  0.07230  0.29880  1.0000
  H   H10       1.0  0.25880  0.92770  0.79880  1.0000
  H   H11       1.0  0.75880  0.57230  0.79880  1.0000
  H   H12       1.0  0.24120  0.42770  0.29880  1.0000
  C   C25       1.0  0.72088  0.07320  0.38709  1.0000
  C   C26       1.0  0.27912  0.92680  0.88709  1.0000
  C   C27       1.0  0.77912  0.57320  0.88709  1.0000
  C   C28       1.0  0.22088  0.42680  0.38709  1.0000
  H   H13       1.0  0.75030  0.11020  0.40010  1.0000
  H   H14       1.0  0.24970  0.88980  0.90010  1.0000
  H   H15       1.0  0.74970  0.61020  0.90010  1.0000
  H   H16       1.0  0.25030  0.38980  0.40010  1.0000
  C   C29       1.0  0.66523  0.97530  0.24238  1.0000
  C   C30       1.0  0.33477  0.02470  0.74238  1.0000
  C   C31       1.0  0.83477  0.47530  0.74238  1.0000
  C   C32       1.0  0.16523  0.52470  0.24238  1.0000
  C   C33       1.0  0.61371  0.95630  0.21928  1.0000
  C   C34       1.0  0.38629  0.04370  0.71928  1.0000
  C   C35       1.0  0.88629  0.45630  0.71928  1.0000
  C   C36       1.0  0.11371  0.54370  0.21928  1.0000
  H   H17       1.0  0.58350  0.95440  0.24550  1.0000
  H   H18       1.0  0.41650  0.04560  0.74550  1.0000
  H   H19       1.0  0.91650  0.45440  0.74550  1.0000
  H   H20       1.0  0.08350  0.54560  0.24550  1.0000
  C   C37       1.0  0.60607  0.94020  0.15933  1.0000
  C   C38       1.0  0.39393  0.05980  0.65933  1.0000
  C   C39       1.0  0.89393  0.44020  0.65933  1.0000
  C   C40       1.0  0.10607  0.55980  0.15933  1.0000
  H   H21       1.0  0.57100  0.92520  0.14480  1.0000
  H   H22       1.0  0.42900  0.07480  0.64480  1.0000
  H   H23       1.0  0.92900  0.42520  0.64480  1.0000
  H   H24       1.0  0.07100  0.57480  0.14480  1.0000
  C   C41       1.0  0.64918  0.94570  0.12011  1.0000
  C   C42       1.0  0.35082  0.05430  0.62011  1.0000
  C   C43       1.0  0.85082  0.44570  0.62011  1.0000
  C   C44       1.0  0.14918  0.55430  0.12011  1.0000
  C   C45       1.0  0.70067  0.96100  0.14272  1.0000
  C   C46       1.0  0.29933  0.03900  0.64272  1.0000
  C   C47       1.0  0.79933  0.46100  0.64272  1.0000
  C   C48       1.0  0.20067  0.53900  0.14272  1.0000
  H   H25       1.0  0.73090  0.96230  0.11640  1.0000
  H   H26       1.0  0.26910  0.03770  0.61640  1.0000
  H   H27       1.0  0.76910  0.46230  0.61640  1.0000
  H   H28       1.0  0.23090  0.53770  0.11640  1.0000
  C   C49       1.0  0.70850  0.97460  0.20383  1.0000
  C   C50       1.0  0.29150  0.02540  0.70383  1.0000
  C   C51       1.0  0.79150  0.47460  0.70383  1.0000
  C   C52       1.0  0.20850  0.52540  0.20383  1.0000
  H   H29       1.0  0.74410  0.98340  0.21890  1.0000
  H   H30       1.0  0.25590  0.01660  0.71890  1.0000
  H   H31       1.0  0.75590  0.48340  0.71890  1.0000
  H   H32       1.0  0.24410  0.51660  0.21890  1.0000
  C   C53       1.0  0.63907  0.93670  0.05411  1.0000
  C   C54       1.0  0.36093  0.06330  0.55411  1.0000
  C   C55       1.0  0.86093  0.43670  0.55411  1.0000
  C   C56       1.0  0.13907  0.56330  0.05411  1.0000
  O   O9        1.0  0.59489  0.90890  0.03601  1.0000
  O   O10       1.0  0.40511  0.09110  0.53601  1.0000
  O   O11       1.0  0.90511  0.40890  0.53601  1.0000
  O   O12       1.0  0.09489  0.59110  0.03601  1.0000
  O   O13       1.0  0.67835  0.95846  0.02030  1.0000
  O   O14       1.0  0.32165  0.04154  0.52030  1.0000
  O   O15       1.0  0.82165  0.45846  0.52030  1.0000
  O   O16       1.0  0.17835  0.54154  0.02030  1.0000
  O   O17       1.0  0.59150  0.96888  0.62985  1.0000
  O   O18       1.0  0.40850  0.03112  0.12985  1.0000
  O   O19       1.0  0.90850  0.46888  0.12985  1.0000
  O   O20       1.0  0.09150  0.53112  0.62985  1.0000
  O   O21       1.0  0.58202  0.99810  0.72784  1.0000
  O   O22       1.0  0.41798  0.00190  0.22784  1.0000
  O   O23       1.0  0.91798  0.49810  0.22784  1.0000
  O   O24       1.0  0.08202  0.50190  0.72784  1.0000
  C   C57       1.0  0.56765  0.96260  0.67993  1.0000
  C   C58       1.0  0.43235  0.03740  0.17993  1.0000
  C   C59       1.0  0.93235  0.46260  0.17993  1.0000
  C   C60       1.0  0.06765  0.53740  0.67993  1.0000
  C   C61       1.0  0.51619  0.90600  0.67999  1.0000
  C   C62       1.0  0.48381  0.09400  0.17999  1.0000
  C   C63       1.0  0.98381  0.40600  0.17999  1.0000
  C   C64       1.0  0.01619  0.59400  0.67999  1.0000
  C   C65       1.0  0.49105  0.88350  0.62651  1.0000
  C   C66       1.0  0.50895  0.11650  0.12651  1.0000
  C   C67       1.0  0.00895  0.38350  0.12651  1.0000
  C   C68       1.0  0.99105  0.61650  0.62651  1.0000
  H   H33       1.0  0.50630  0.90350  0.58980  1.0000
  H   H34       1.0  0.49370  0.09650  0.08980  1.0000
  H   H35       1.0  0.99370  0.40350  0.08980  1.0000
  H   H36       1.0  0.00630  0.59650  0.58980  1.0000
  C   C69       1.0  0.44416  0.83230  0.62630  1.0000
  C   C70       1.0  0.55584  0.16770  0.12630  1.0000
  C   C71       1.0  0.05584  0.33230  0.12630  1.0000
  C   C72       1.0  0.94416  0.66770  0.62630  1.0000
  H   H37       1.0  0.42680  0.81850  0.58950  1.0000
  H   H38       1.0  0.57320  0.18150  0.08950  1.0000
  H   H39       1.0  0.07320  0.31850  0.08950  1.0000
  H   H40       1.0  0.92680  0.68150  0.58950  1.0000
  C   C73       1.0  0.42181  0.80030  0.67999  1.0000
  C   C74       1.0  0.57819  0.19970  0.17999  1.0000
  C   C75       1.0  0.07819  0.30030  0.17999  1.0000
  C   C76       1.0  0.92181  0.69970  0.67999  1.0000
  C   C77       1.0  0.44787  0.82210  0.73331  1.0000
  C   C78       1.0  0.55213  0.17790  0.23331  1.0000
  C   C79       1.0  0.05213  0.32210  0.23331  1.0000
  C   C80       1.0  0.94787  0.67790  0.73331  1.0000
  H   H41       1.0  0.43380  0.80010  0.77010  1.0000
  H   H42       1.0  0.56620  0.19990  0.27010  1.0000
  H   H43       1.0  0.06620  0.30010  0.27010  1.0000
  H   H44       1.0  0.93380  0.69990  0.77010  1.0000
  C   C81       1.0  0.49419  0.87580  0.73288  1.0000
  C   C82       1.0  0.50581  0.12420  0.23288  1.0000
  C   C83       1.0  0.00581  0.37580  0.23288  1.0000
  C   C84       1.0  0.99419  0.62420  0.73288  1.0000
  H   H45       1.0  0.51100  0.89190  0.76960  1.0000
  H   H46       1.0  0.48900  0.10810  0.26960  1.0000
  H   H47       1.0  0.98900  0.39190  0.26960  1.0000
  H   H48       1.0  0.01100  0.60810  0.76960  1.0000
  C   C85       1.0  0.37198  0.74250  0.67905  1.0000
  C   C86       1.0  0.62802  0.25750  0.17905  1.0000
  C   C87       1.0  0.12802  0.24250  0.17905  1.0000
  C   C88       1.0  0.87198  0.75750  0.67905  1.0000
  C   C89       1.0  0.36275  0.68210  0.63102  1.0000
  C   C90       1.0  0.63725  0.31790  0.13102  1.0000
  C   C91       1.0  0.13725  0.18210  0.13102  1.0000
  C   C92       1.0  0.86275  0.81790  0.63102  1.0000
  H   H49       1.0  0.38820  0.67840  0.59930  1.0000
  H   H50       1.0  0.61180  0.32160  0.09930  1.0000
  H   H51       1.0  0.11180  0.17840  0.09930  1.0000
  H   H52       1.0  0.88820  0.82160  0.59930  1.0000
  C   C93       1.0  0.31667  0.62790  0.62996  1.0000
  C   C94       1.0  0.68333  0.37210  0.12996  1.0000
  C   C95       1.0  0.18333  0.12790  0.12996  1.0000
  C   C96       1.0  0.81667  0.87210  0.62996  1.0000
  H   H53       1.0  0.31100  0.58690  0.59760  1.0000
  H   H54       1.0  0.68900  0.41310  0.09760  1.0000
  H   H55       1.0  0.18900  0.08690  0.09760  1.0000
  H   H56       1.0  0.81100  0.91310  0.59760  1.0000
  C   C97       1.0  0.27870  0.63280  0.67538  1.0000
  C   C98       1.0  0.72130  0.36720  0.17538  1.0000
  C   C99       1.0  0.22130  0.13280  0.17538  1.0000
  C   C100      1.0  0.77870  0.86720  0.67538  1.0000
  C   C101      1.0  0.28737  0.69290  0.72297  1.0000
  C   C102      1.0  0.71263  0.30710  0.22297  1.0000
  C   C103      1.0  0.21263  0.19290  0.22297  1.0000
  C   C104      1.0  0.78737  0.80710  0.72297  1.0000
  H   H57       1.0  0.26160  0.69650  0.75430  1.0000
  H   H58       1.0  0.73840  0.30350  0.25430  1.0000
  H   H59       1.0  0.23840  0.19650  0.25430  1.0000
  H   H60       1.0  0.76160  0.80350  0.75430  1.0000
  C   C105      1.0  0.33384  0.74790  0.72473  1.0000
  C   C106      1.0  0.66616  0.25210  0.22473  1.0000
  C   C107      1.0  0.16616  0.24790  0.22473  1.0000
  C   C108      1.0  0.83384  0.75210  0.72473  1.0000
  H   H61       1.0  0.33940  0.78890  0.75710  1.0000
  H   H62       1.0  0.66060  0.21110  0.25710  1.0000
  H   H63       1.0  0.16060  0.28890  0.25710  1.0000
  H   H64       1.0  0.83940  0.71110  0.75710  1.0000
  C   C109      1.0  0.22839  0.57530  0.67267  1.0000
  C   C110      1.0  0.77161  0.42470  0.17267  1.0000
  C   C111      1.0  0.27161  0.07530  0.17267  1.0000
  C   C112      1.0  0.72839  0.92470  0.67267  1.0000
  O   O25       1.0  0.22595  0.51696  0.63025  1.0000
  O   O26       1.0  0.77405  0.48304  0.13025  1.0000
  O   O27       1.0  0.27405  0.01696  0.13025  1.0000
  O   O28       1.0  0.72595  0.98304  0.63025  1.0000
  O   O29       1.0  0.19221  0.58875  0.71039  1.0000
  O   O30       1.0  0.80779  0.41125  0.21039  1.0000
  O   O31       1.0  0.30779  0.08875  0.21039  1.0000
  O   O32       1.0  0.69221  0.91125  0.71039  1.0000
  O   O33       1.0  0.64380  0.16820  0.63659  1.0000
  O   O34       1.0  0.35620  0.83180  0.13659  1.0000
  O   O35       1.0  0.85620  0.66820  0.13659  1.0000
  O   O36       1.0  0.14380  0.33180  0.63659  1.0000
  O   O37       1.0  0.68059  0.12252  0.72257  1.0000
  O   O38       1.0  0.31941  0.87748  0.22257  1.0000
  O   O39       1.0  0.81941  0.62252  0.22257  1.0000
  O   O40       1.0  0.18059  0.37748  0.72257  1.0000
  C   C113      1.0  0.65856  0.18180  0.69070  1.0000
  C   C114      1.0  0.34144  0.81820  0.19070  1.0000
  C   C115      1.0  0.84144  0.68180  0.19070  1.0000
  C   C116      1.0  0.15856  0.31820  0.69070  1.0000
  C   C117      1.0  0.65152  0.27720  0.71488  1.0000
  C   C118      1.0  0.34848  0.72280  0.21488  1.0000
  C   C119      1.0  0.84848  0.77720  0.21488  1.0000
  C   C120      1.0  0.15152  0.22280  0.71488  1.0000
  C   C121      1.0  0.62846  0.34620  0.67993  1.0000
  C   C122      1.0  0.37154  0.65380  0.17993  1.0000
  C   C123      1.0  0.87154  0.84620  0.17993  1.0000
  C   C124      1.0  0.12846  0.15380  0.67993  1.0000
  H   H65       1.0  0.61620  0.33290  0.64070  1.0000
  H   H66       1.0  0.38380  0.66710  0.14070  1.0000
  H   H67       1.0  0.88380  0.83290  0.14070  1.0000
  H   H68       1.0  0.11620  0.16710  0.64070  1.0000
  C   C125      1.0  0.62350  0.43390  0.70266  1.0000
  C   C126      1.0  0.37650  0.56610  0.20266  1.0000
  C   C127      1.0  0.87650  0.93390  0.20266  1.0000
  C   C128      1.0  0.12350  0.06610  0.70266  1.0000
  H   H69       1.0  0.60830  0.48090  0.67850  1.0000
  H   H70       1.0  0.39170  0.51910  0.17850  1.0000
  H   H71       1.0  0.89170  0.98090  0.17850  1.0000
  H   H72       1.0  0.10830  0.01910  0.67850  1.0000
  C   C129      1.0  0.64043  0.45476  0.76042  1.0000
  C   C130      1.0  0.35957  0.54524  0.26042  1.0000
  C   C131      1.0  0.85957  0.95476  0.26042  1.0000
  C   C132      1.0  0.14043  0.04524  0.76042  1.0000
  C   C133      1.0  0.66324  0.38490  0.79543  1.0000
  C   C134      1.0  0.33676  0.61510  0.29543  1.0000
  C   C135      1.0  0.83676  0.88490  0.29543  1.0000
  C   C136      1.0  0.16324  0.11510  0.79543  1.0000
  H   H73       1.0  0.67530  0.39760  0.83490  1.0000
  H   H74       1.0  0.32470  0.60240  0.33490  1.0000
  H   H75       1.0  0.82470  0.89760  0.33490  1.0000
  H   H76       1.0  0.17530  0.10240  0.83490  1.0000
  C   C137      1.0  0.66806  0.29710  0.77197  1.0000
  C   C138      1.0  0.33194  0.70290  0.27197  1.0000
  C   C139      1.0  0.83194  0.79710  0.27197  1.0000
  C   C140      1.0  0.16806  0.20290  0.77197  1.0000
  H   H77       1.0  0.68310  0.24970  0.79590  1.0000
  H   H78       1.0  0.31690  0.75030  0.29590  1.0000
  H   H79       1.0  0.81690  0.74970  0.29590  1.0000
  H   H80       1.0  0.18310  0.25030  0.79590  1.0000
  C   C141      1.0  0.63644  0.55020  0.78454  1.0000
  C   C142      1.0  0.36356  0.44980  0.28454  1.0000
  C   C143      1.0  0.86356  0.05020  0.28454  1.0000
  C   C144      1.0  0.13644  0.94980  0.78454  1.0000
  C   C145      1.0  0.63928  0.62520  0.74741  1.0000
  C   C146      1.0  0.36072  0.37480  0.24741  1.0000
  C   C147      1.0  0.86072  0.12520  0.24741  1.0000
  C   C148      1.0  0.13928  0.87480  0.74741  1.0000
  H   H81       1.0  0.64160  0.61540  0.70560  1.0000
  H   H82       1.0  0.35840  0.38460  0.20560  1.0000
  H   H83       1.0  0.85840  0.11540  0.20560  1.0000
  H   H84       1.0  0.14160  0.88460  0.70560  1.0000
  C   C149      1.0  0.63883  0.71480  0.76872  1.0000
  C   C150      1.0  0.36117  0.28520  0.26872  1.0000
  C   C151      1.0  0.86117  0.21480  0.26872  1.0000
  C   C152      1.0  0.13883  0.78520  0.76872  1.0000
  H   H85       1.0  0.63960  0.76540  0.74200  1.0000
  H   H86       1.0  0.36040  0.23460  0.24200  1.0000
  H   H87       1.0  0.86040  0.26540  0.24200  1.0000
  H   H88       1.0  0.13960  0.73460  0.74200  1.0000
  C   C153      1.0  0.63722  0.72880  0.83038  1.0000
  C   C154      1.0  0.36278  0.27120  0.33038  1.0000
  C   C155      1.0  0.86278  0.22880  0.33038  1.0000
  C   C156      1.0  0.13722  0.77120  0.83038  1.0000
  C   C157      1.0  0.63428  0.65440  0.86821  1.0000
  C   C158      1.0  0.36572  0.34560  0.36821  1.0000
  C   C159      1.0  0.86572  0.15440  0.36821  1.0000
  C   C160      1.0  0.13428  0.84560  0.86821  1.0000
  H   H89       1.0  0.63320  0.66400  0.91010  1.0000
  H   H90       1.0  0.36680  0.33600  0.41010  1.0000
  H   H91       1.0  0.86680  0.16400  0.41010  1.0000
  H   H92       1.0  0.13320  0.83600  0.91010  1.0000
  C   C161      1.0  0.63290  0.56570  0.84598  1.0000
  C   C162      1.0  0.36710  0.43430  0.34598  1.0000
  C   C163      1.0  0.86710  0.06570  0.34598  1.0000
  C   C164      1.0  0.13290  0.93430  0.84598  1.0000
  H   H93       1.0  0.62950  0.51520  0.87260  1.0000
  H   H94       1.0  0.37050  0.48480  0.37260  1.0000
  H   H95       1.0  0.87050  0.01520  0.37260  1.0000
  H   H96       1.0  0.12950  0.98480  0.87260  1.0000
  C   C165      1.0  0.63964  0.82420  0.85455  1.0000
  C   C166      1.0  0.36036  0.17580  0.35455  1.0000
  C   C167      1.0  0.86036  0.32420  0.35455  1.0000
  C   C168      1.0  0.13964  0.67580  0.85455  1.0000
  O   O41       1.0  0.62917  0.88950  0.82003  1.0000
  O   O42       1.0  0.37083  0.11050  0.32003  1.0000
  O   O43       1.0  0.87083  0.38950  0.32003  1.0000
  O   O44       1.0  0.12917  0.61050  0.82003  1.0000
  O   O45       1.0  0.65149  0.83349  0.90893  1.0000
  O   O46       1.0  0.34851  0.16651  0.40893  1.0000
  O   O47       1.0  0.84851  0.33349  0.40893  1.0000
  O   O48       1.0  0.15149  0.66651  0.90893  1.0000
  O   O49       1.0  0.73119  0.00993  0.80991  1.0000
  O   O50       1.0  0.26881  0.99007  0.30991  1.0000
  O   O51       1.0  0.76881  0.50993  0.30991  1.0000
  O   O52       1.0  0.23119  0.49007  0.80991  1.0000
  O   O53       1.0  0.72770  0.01906  0.90990  1.0000
  O   O54       1.0  0.27230  0.98094  0.40990  1.0000
  O   O55       1.0  0.77230  0.51906  0.40990  1.0000
  O   O56       1.0  0.22770  0.48094  0.90990  1.0000
  C   C169      1.0  0.74865  0.03490  0.85947  1.0000
  C   C170      1.0  0.25135  0.96510  0.35947  1.0000
  C   C171      1.0  0.75135  0.53490  0.35947  1.0000
  C   C172      1.0  0.24865  0.46510  0.85947  1.0000
  C   C173      1.0  0.79978  0.09020  0.86135  1.0000
  C   C174      1.0  0.20022  0.90980  0.36135  1.0000
  C   C175      1.0  0.70022  0.59020  0.36135  1.0000
  C   C176      1.0  0.29978  0.40980  0.86135  1.0000
  C   C177      1.0  0.81427  0.14410  0.81244  1.0000
  C   C178      1.0  0.18573  0.85590  0.31244  1.0000
  C   C179      1.0  0.68573  0.64410  0.31244  1.0000
  C   C180      1.0  0.31427  0.35590  0.81244  1.0000
  H   H97       1.0  0.79250  0.14410  0.77750  1.0000
  H   H98       1.0  0.20750  0.85590  0.27750  1.0000
  H   H99       1.0  0.70750  0.64410  0.27750  1.0000
  H   H100      1.0  0.29250  0.35590  0.77750  1.0000
  C   C181      1.0  0.86088  0.19780  0.81524  1.0000
  C   C182      1.0  0.13912  0.80220  0.31524  1.0000
  C   C183      1.0  0.63912  0.69780  0.31524  1.0000
  C   C184      1.0  0.36088  0.30220  0.81524  1.0000
  H   H101      1.0  0.87050  0.23540  0.78220  1.0000
  H   H102      1.0  0.12950  0.76460  0.28220  1.0000
  H   H103      1.0  0.62950  0.73540  0.28220  1.0000
  H   H104      1.0  0.37050  0.26460  0.78220  1.0000
  C   C185      1.0  0.89361  0.19720  0.86585  1.0000
  C   C186      1.0  0.10639  0.80280  0.36585  1.0000
  C   C187      1.0  0.60639  0.69720  0.36585  1.0000
  C   C188      1.0  0.39361  0.30280  0.86585  1.0000
  C   C189      1.0  0.87887  0.14210  0.91361  1.0000
  C   C190      1.0  0.12113  0.85790  0.41361  1.0000
  C   C191      1.0  0.62113  0.64210  0.41361  1.0000
  C   C192      1.0  0.37887  0.35790  0.91361  1.0000
  H   H105      1.0  0.90130  0.14020  0.94800  1.0000
  H   H106      1.0  0.09870  0.85980  0.44800  1.0000
  H   H107      1.0  0.59870  0.64020  0.44800  1.0000
  H   H108      1.0  0.40130  0.35980  0.94800  1.0000
  C   C193      1.0  0.83249  0.09040  0.91213  1.0000
  C   C194      1.0  0.16751  0.90960  0.41213  1.0000
  C   C195      1.0  0.66751  0.59040  0.41213  1.0000
  C   C196      1.0  0.33249  0.40960  0.91213  1.0000
  H   H109      1.0  0.82260  0.05450  0.94580  1.0000
  H   H110      1.0  0.17740  0.94550  0.44580  1.0000
  H   H111      1.0  0.67740  0.55450  0.44580  1.0000
  H   H112      1.0  0.32260  0.44550  0.94580  1.0000
  C   C197      1.0  0.94379  0.25250  0.86813  1.0000
  C   C198      1.0  0.05621  0.74750  0.36813  1.0000
  C   C199      1.0  0.55621  0.75250  0.36813  1.0000
  C   C200      1.0  0.44379  0.24750  0.86813  1.0000
  C   C201      1.0  0.97539  0.26840  0.81721  1.0000
  C   C202      1.0  0.02461  0.73160  0.31721  1.0000
  C   C203      1.0  0.52461  0.76840  0.31721  1.0000
  C   C204      1.0  0.47539  0.23160  0.81721  1.0000
  H   H113      1.0  0.96390  0.24400  0.78000  1.0000
  H   H114      1.0  0.03610  0.75600  0.28000  1.0000
  H   H115      1.0  0.53610  0.74400  0.28000  1.0000
  H   H116      1.0  0.46390  0.25600  0.78000  1.0000
  C   C205      1.0  0.02299  0.31890  0.81977  1.0000
  C   C206      1.0  0.97701  0.68110  0.31977  1.0000
  C   C207      1.0  0.47701  0.81890  0.31977  1.0000
  C   C208      1.0  0.52299  0.18110  0.81977  1.0000
  H   H117      1.0  0.04460  0.32650  0.78510  1.0000
  H   H118      1.0  0.95540  0.67350  0.28510  1.0000
  H   H119      1.0  0.45540  0.82650  0.28510  1.0000
  H   H120      1.0  0.54460  0.17350  0.78510  1.0000
  C   C209      1.0  0.03900  0.35890  0.87439  1.0000
  C   C210      1.0  0.96100  0.64110  0.37439  1.0000
  C   C211      1.0  0.46100  0.85890  0.37439  1.0000
  C   C212      1.0  0.53900  0.14110  0.87439  1.0000
  C   C213      1.0  0.00759  0.34510  0.92453  1.0000
  C   C214      1.0  0.99241  0.65490  0.42453  1.0000
  C   C215      1.0  0.49241  0.84510  0.42453  1.0000
  C   C216      1.0  0.50759  0.15490  0.92453  1.0000
  H   H121      1.0  0.01820  0.37190  0.96140  1.0000
  H   H122      1.0  0.98180  0.62810  0.46140  1.0000
  H   H123      1.0  0.48180  0.87190  0.46140  1.0000
  H   H124      1.0  0.51820  0.12810  0.96140  1.0000
  C   C217      1.0  0.96083  0.29280  0.92208  1.0000
  C   C218      1.0  0.03917  0.70720  0.42208  1.0000
  C   C219      1.0  0.53917  0.79280  0.42208  1.0000
  C   C220      1.0  0.46083  0.20720  0.92208  1.0000
  H   H125      1.0  0.93990  0.28400  0.95720  1.0000
  H   H126      1.0  0.06010  0.71600  0.45720  1.0000
  H   H127      1.0  0.56010  0.78400  0.45720  1.0000
  H   H128      1.0  0.43990  0.21600  0.95720  1.0000
  C   C221      1.0  0.09007  0.41488  0.87653  1.0000
  C   C222      1.0  0.90993  0.58512  0.37653  1.0000
  C   C223      1.0  0.40993  0.91488  0.37653  1.0000
  C   C224      1.0  0.59007  0.08512  0.87653  1.0000
  O   O57       1.0  0.12255  0.40765  0.83425  1.0000
  O   O58       1.0  0.87745  0.59235  0.33425  1.0000
  O   O59       1.0  0.37745  0.90765  0.33425  1.0000
  O   O60       1.0  0.62255  0.09235  0.83425  1.0000
  O   O61       1.0  0.09628  0.46312  0.92298  1.0000
  O   O62       1.0  0.90372  0.53688  0.42298  1.0000
  O   O63       1.0  0.40372  0.96312  0.42298  1.0000
  O   O64       1.0  0.59628  0.03688  0.92298  1.0000
