data_image0
_chemical_formula_structural       In32O128C96H32C32H32C64H32C32H32C64H32C32H32C64H32C32H32C32O128C96H32C32H32C64H32C32H32C64H32C32H32C64H32C32H32C32
_chemical_formula_sum              "In32 O256 C896 H512"
_cell_length_a       23.76
_cell_length_b       39.331
_cell_length_c       40.61
_cell_angle_alpha    90
_cell_angle_beta     90
_cell_angle_gamma    90

_space_group_name_H-M_alt    "P 1"
_space_group_IT_number       1

loop_
  _space_group_symop_operation_xyz
  'x, y, z'

loop_
  _atom_site_type_symbol
  _atom_site_label
  _atom_site_symmetry_multiplicity
  _atom_site_fract_x
  _atom_site_fract_y
  _atom_site_fract_z
  _atom_site_occupancy
  In  In1       1.0  0.12500  0.49722  0.12500  1.0000
  In  In2       1.0  0.62500  0.25278  0.12500  1.0000
  In  In3       1.0  0.62500  0.49722  0.62500  1.0000
  In  In4       1.0  0.12500  0.25278  0.62500  1.0000
  In  In5       1.0  0.12500  0.99722  0.62500  1.0000
  In  In6       1.0  0.62500  0.75278  0.62500  1.0000
  In  In7       1.0  0.62500  0.99722  0.12500  1.0000
  In  In8       1.0  0.12500  0.75278  0.12500  1.0000
  In  In9       1.0  0.87500  0.50278  0.87500  1.0000
  In  In10      1.0  0.37500  0.74722  0.87500  1.0000
  In  In11      1.0  0.37500  0.50278  0.37500  1.0000
  In  In12      1.0  0.87500  0.74722  0.37500  1.0000
  In  In13      1.0  0.87500  0.00278  0.37500  1.0000
  In  In14      1.0  0.37500  0.24722  0.37500  1.0000
  In  In15      1.0  0.37500  0.00278  0.87500  1.0000
  In  In16      1.0  0.87500  0.24722  0.87500  1.0000
  In  In17      1.0  0.87500  0.37500  0.13665  1.0000
  In  In18      1.0  0.87500  0.37500  0.61335  1.0000
  In  In19      1.0  0.87500  0.87500  0.63665  1.0000
  In  In20      1.0  0.87500  0.87500  0.11335  1.0000
  In  In21      1.0  0.37500  0.37500  0.63665  1.0000
  In  In22      1.0  0.37500  0.37500  0.11335  1.0000
  In  In23      1.0  0.37500  0.87500  0.13665  1.0000
  In  In24      1.0  0.37500  0.87500  0.61335  1.0000
  In  In25      1.0  0.12500  0.62500  0.86335  1.0000
  In  In26      1.0  0.12500  0.62500  0.38665  1.0000
  In  In27      1.0  0.12500  0.12500  0.36335  1.0000
  In  In28      1.0  0.12500  0.12500  0.88665  1.0000
  In  In29      1.0  0.62500  0.62500  0.36335  1.0000
  In  In30      1.0  0.62500  0.62500  0.88665  1.0000
  In  In31      1.0  0.62500  0.12500  0.86335  1.0000
  In  In32      1.0  0.62500  0.12500  0.38665  1.0000
  O   O1        1.0  0.13660  0.45797  0.08330  1.0000
  O   O2        1.0  0.61340  0.29203  0.08330  1.0000
  O   O3        1.0  0.61340  0.45797  0.66670  1.0000
  O   O4        1.0  0.13660  0.29203  0.66670  1.0000
  O   O5        1.0  0.13660  0.95797  0.58330  1.0000
  O   O6        1.0  0.61340  0.79203  0.58330  1.0000
  O   O7        1.0  0.61340  0.95797  0.16670  1.0000
  O   O8        1.0  0.13660  0.79203  0.16670  1.0000
  O   O9        1.0  0.63660  0.45797  0.58330  1.0000
  O   O10       1.0  0.11340  0.29203  0.58330  1.0000
  O   O11       1.0  0.11340  0.45797  0.16670  1.0000
  O   O12       1.0  0.63660  0.29203  0.16670  1.0000
  O   O13       1.0  0.63660  0.95797  0.08330  1.0000
  O   O14       1.0  0.11340  0.79203  0.08330  1.0000
  O   O15       1.0  0.11340  0.95797  0.66670  1.0000
  O   O16       1.0  0.63660  0.79203  0.66670  1.0000
  O   O17       1.0  0.86340  0.54203  0.91670  1.0000
  O   O18       1.0  0.38660  0.70797  0.91670  1.0000
  O   O19       1.0  0.38660  0.54203  0.33330  1.0000
  O   O20       1.0  0.86340  0.70797  0.33330  1.0000
  O   O21       1.0  0.86340  0.04203  0.41670  1.0000
  O   O22       1.0  0.38660  0.20797  0.41670  1.0000
  O   O23       1.0  0.38660  0.04203  0.83330  1.0000
  O   O24       1.0  0.86340  0.20797  0.83330  1.0000
  O   O25       1.0  0.36340  0.54203  0.41670  1.0000
  O   O26       1.0  0.88660  0.70797  0.41670  1.0000
  O   O27       1.0  0.88660  0.54203  0.83330  1.0000
  O   O28       1.0  0.36340  0.70797  0.83330  1.0000
  O   O29       1.0  0.36340  0.04203  0.91670  1.0000
  O   O30       1.0  0.88660  0.20797  0.91670  1.0000
  O   O31       1.0  0.88660  0.04203  0.33330  1.0000
  O   O32       1.0  0.36340  0.20797  0.33330  1.0000
  O   O33       1.0  0.05454  0.46945  0.10110  1.0000
  O   O34       1.0  0.69546  0.28055  0.10110  1.0000
  O   O35       1.0  0.69546  0.46945  0.64890  1.0000
  O   O36       1.0  0.05454  0.28055  0.64890  1.0000
  O   O37       1.0  0.05454  0.96945  0.60110  1.0000
  O   O38       1.0  0.69546  0.78055  0.60110  1.0000
  O   O39       1.0  0.69546  0.96945  0.14890  1.0000
  O   O40       1.0  0.05454  0.78055  0.14890  1.0000
  O   O41       1.0  0.55454  0.46945  0.60110  1.0000
  O   O42       1.0  0.19546  0.28055  0.60110  1.0000
  O   O43       1.0  0.19546  0.46945  0.14890  1.0000
  O   O44       1.0  0.55454  0.28055  0.14890  1.0000
  O   O45       1.0  0.55454  0.96945  0.10110  1.0000
  O   O46       1.0  0.19546  0.78055  0.10110  1.0000
  O   O47       1.0  0.19546  0.96945  0.64890  1.0000
  O   O48       1.0  0.55454  0.78055  0.64890  1.0000
  O   O49       1.0  0.94546  0.53055  0.89890  1.0000
  O   O50       1.0  0.30454  0.71945  0.89890  1.0000
  O   O51       1.0  0.30454  0.53055  0.35110  1.0000
  O   O52       1.0  0.94546  0.71945  0.35110  1.0000
  O   O53       1.0  0.94546  0.03055  0.39890  1.0000
  O   O54       1.0  0.30454  0.21945  0.39890  1.0000
  O   O55       1.0  0.30454  0.03055  0.85110  1.0000
  O   O56       1.0  0.94546  0.21945  0.85110  1.0000
  O   O57       1.0  0.44546  0.53055  0.39890  1.0000
  O   O58       1.0  0.80454  0.71945  0.39890  1.0000
  O   O59       1.0  0.80454  0.53055  0.85110  1.0000
  O   O60       1.0  0.44546  0.71945  0.85110  1.0000
  O   O61       1.0  0.44546  0.03055  0.89890  1.0000
  O   O62       1.0  0.80454  0.21945  0.89890  1.0000
  O   O63       1.0  0.80454  0.03055  0.35110  1.0000
  O   O64       1.0  0.44546  0.21945  0.35110  1.0000
  O   O65       1.0  0.86530  0.28550  0.91792  1.0000
  O   O66       1.0  0.88470  0.46450  0.91792  1.0000
  O   O67       1.0  0.88470  0.28550  0.83208  1.0000
  O   O68       1.0  0.86530  0.46450  0.83208  1.0000
  O   O69       1.0  0.86530  0.78550  0.41792  1.0000
  O   O70       1.0  0.88470  0.96450  0.41792  1.0000
  O   O71       1.0  0.88470  0.78550  0.33208  1.0000
  O   O72       1.0  0.86530  0.96450  0.33208  1.0000
  O   O73       1.0  0.36530  0.28550  0.41792  1.0000
  O   O74       1.0  0.38470  0.46450  0.41792  1.0000
  O   O75       1.0  0.38470  0.28550  0.33208  1.0000
  O   O76       1.0  0.36530  0.46450  0.33208  1.0000
  O   O77       1.0  0.36530  0.78550  0.91792  1.0000
  O   O78       1.0  0.38470  0.96450  0.91792  1.0000
  O   O79       1.0  0.38470  0.78550  0.83208  1.0000
  O   O80       1.0  0.36530  0.96450  0.83208  1.0000
  O   O81       1.0  0.13470  0.71450  0.08208  1.0000
  O   O82       1.0  0.11530  0.53550  0.08208  1.0000
  O   O83       1.0  0.11530  0.71450  0.16792  1.0000
  O   O84       1.0  0.13470  0.53550  0.16792  1.0000
  O   O85       1.0  0.13470  0.21450  0.58208  1.0000
  O   O86       1.0  0.11530  0.03550  0.58208  1.0000
  O   O87       1.0  0.11530  0.21450  0.66792  1.0000
  O   O88       1.0  0.13470  0.03550  0.66792  1.0000
  O   O89       1.0  0.63470  0.71450  0.58208  1.0000
  O   O90       1.0  0.61530  0.53550  0.58208  1.0000
  O   O91       1.0  0.61530  0.71450  0.66792  1.0000
  O   O92       1.0  0.63470  0.53550  0.66792  1.0000
  O   O93       1.0  0.63470  0.21450  0.08208  1.0000
  O   O94       1.0  0.61530  0.03550  0.08208  1.0000
  O   O95       1.0  0.61530  0.21450  0.16792  1.0000
  O   O96       1.0  0.63470  0.03550  0.16792  1.0000
  O   O97       1.0  0.94720  0.27690  0.89596  1.0000
  O   O98       1.0  0.80280  0.47310  0.89596  1.0000
  O   O99       1.0  0.80280  0.27690  0.85404  1.0000
  O   O100      1.0  0.94720  0.47310  0.85404  1.0000
  O   O101      1.0  0.94720  0.77690  0.39596  1.0000
  O   O102      1.0  0.80280  0.97310  0.39596  1.0000
  O   O103      1.0  0.80280  0.77690  0.35404  1.0000
  O   O104      1.0  0.94720  0.97310  0.35404  1.0000
  O   O105      1.0  0.44720  0.27690  0.39596  1.0000
  O   O106      1.0  0.30280  0.47310  0.39596  1.0000
  O   O107      1.0  0.30280  0.27690  0.35404  1.0000
  O   O108      1.0  0.44720  0.47310  0.35404  1.0000
  O   O109      1.0  0.44720  0.77690  0.89596  1.0000
  O   O110      1.0  0.30280  0.97310  0.89596  1.0000
  O   O111      1.0  0.30280  0.77690  0.85404  1.0000
  O   O112      1.0  0.44720  0.97310  0.85404  1.0000
  O   O113      1.0  0.05280  0.72310  0.10404  1.0000
  O   O114      1.0  0.19720  0.52690  0.10404  1.0000
  O   O115      1.0  0.19720  0.72310  0.14596  1.0000
  O   O116      1.0  0.05280  0.52690  0.14596  1.0000
  O   O117      1.0  0.05280  0.22310  0.60404  1.0000
  O   O118      1.0  0.19720  0.02690  0.60404  1.0000
  O   O119      1.0  0.19720  0.22310  0.64596  1.0000
  O   O120      1.0  0.05280  0.02690  0.64596  1.0000
  O   O121      1.0  0.55280  0.72310  0.60404  1.0000
  O   O122      1.0  0.69720  0.52690  0.60404  1.0000
  O   O123      1.0  0.69720  0.72310  0.64596  1.0000
  O   O124      1.0  0.55280  0.52690  0.64596  1.0000
  O   O125      1.0  0.55280  0.22310  0.10404  1.0000
  O   O126      1.0  0.69720  0.02690  0.10404  1.0000
  O   O127      1.0  0.69720  0.22310  0.14596  1.0000
  O   O128      1.0  0.55280  0.02690  0.14596  1.0000
  C   C1        1.0  0.08440  0.45391  0.08222  1.0000
  C   C2        1.0  0.66560  0.29609  0.08222  1.0000
  C   C3        1.0  0.66560  0.45391  0.66778  1.0000
  C   C4        1.0  0.08440  0.29609  0.66778  1.0000
  C   C5        1.0  0.08440  0.95391  0.58222  1.0000
  C   C6        1.0  0.66560  0.79609  0.58222  1.0000
  C   C7        1.0  0.66560  0.95391  0.16778  1.0000
  C   C8        1.0  0.08440  0.79609  0.16778  1.0000
  C   C9        1.0  0.58440  0.45391  0.58222  1.0000
  C   C10       1.0  0.16560  0.29609  0.58222  1.0000
  C   C11       1.0  0.16560  0.45391  0.16778  1.0000
  C   C12       1.0  0.58440  0.29609  0.16778  1.0000
  C   C13       1.0  0.58440  0.95391  0.08222  1.0000
  C   C14       1.0  0.16560  0.79609  0.08222  1.0000
  C   C15       1.0  0.16560  0.95391  0.66778  1.0000
  C   C16       1.0  0.58440  0.79609  0.66778  1.0000
  C   C17       1.0  0.91560  0.54609  0.91778  1.0000
  C   C18       1.0  0.33440  0.70391  0.91778  1.0000
  C   C19       1.0  0.33440  0.54609  0.33222  1.0000
  C   C20       1.0  0.91560  0.70391  0.33222  1.0000
  C   C21       1.0  0.91560  0.04609  0.41778  1.0000
  C   C22       1.0  0.33440  0.20391  0.41778  1.0000
  C   C23       1.0  0.33440  0.04609  0.83222  1.0000
  C   C24       1.0  0.91560  0.20391  0.83222  1.0000
  C   C25       1.0  0.41560  0.54609  0.41778  1.0000
  C   C26       1.0  0.83440  0.70391  0.41778  1.0000
  C   C27       1.0  0.83440  0.54609  0.83222  1.0000
  C   C28       1.0  0.41560  0.70391  0.83222  1.0000
  C   C29       1.0  0.41560  0.04609  0.91778  1.0000
  C   C30       1.0  0.83440  0.20391  0.91778  1.0000
  C   C31       1.0  0.83440  0.04609  0.33222  1.0000
  C   C32       1.0  0.41560  0.20391  0.33222  1.0000
  C   C33       1.0  0.06120  0.43006  0.05701  1.0000
  C   C34       1.0  0.68880  0.31994  0.05701  1.0000
  C   C35       1.0  0.68880  0.43006  0.69299  1.0000
  C   C36       1.0  0.06120  0.31994  0.69299  1.0000
  C   C37       1.0  0.06120  0.93006  0.55701  1.0000
  C   C38       1.0  0.68880  0.81994  0.55701  1.0000
  C   C39       1.0  0.68880  0.93006  0.19299  1.0000
  C   C40       1.0  0.06120  0.81994  0.19299  1.0000
  C   C41       1.0  0.56120  0.43006  0.55701  1.0000
  C   C42       1.0  0.18880  0.31994  0.55701  1.0000
  C   C43       1.0  0.18880  0.43006  0.19299  1.0000
  C   C44       1.0  0.56120  0.31994  0.19299  1.0000
  C   C45       1.0  0.56120  0.93006  0.05701  1.0000
  C   C46       1.0  0.18880  0.81994  0.05701  1.0000
  C   C47       1.0  0.18880  0.93006  0.69299  1.0000
  C   C48       1.0  0.56120  0.81994  0.69299  1.0000
  C   C49       1.0  0.93880  0.56994  0.94299  1.0000
  C   C50       1.0  0.31120  0.68006  0.94299  1.0000
  C   C51       1.0  0.31120  0.56994  0.30701  1.0000
  C   C52       1.0  0.93880  0.68006  0.30701  1.0000
  C   C53       1.0  0.93880  0.06994  0.44299  1.0000
  C   C54       1.0  0.31120  0.18006  0.44299  1.0000
  C   C55       1.0  0.31120  0.06994  0.80701  1.0000
  C   C56       1.0  0.93880  0.18006  0.80701  1.0000
  C   C57       1.0  0.43880  0.56994  0.44299  1.0000
  C   C58       1.0  0.81120  0.68006  0.44299  1.0000
  C   C59       1.0  0.81120  0.56994  0.80701  1.0000
  C   C60       1.0  0.43880  0.68006  0.80701  1.0000
  C   C61       1.0  0.43880  0.06994  0.94299  1.0000
  C   C62       1.0  0.81120  0.18006  0.94299  1.0000
  C   C63       1.0  0.81120  0.06994  0.30701  1.0000
  C   C64       1.0  0.43880  0.18006  0.30701  1.0000
  C   C65       1.0  0.09340  0.41730  0.03110  1.0000
  C   C66       1.0  0.65660  0.33270  0.03110  1.0000
  C   C67       1.0  0.65660  0.41730  0.71890  1.0000
  C   C68       1.0  0.09340  0.33270  0.71890  1.0000
  C   C69       1.0  0.09340  0.91730  0.53110  1.0000
  C   C70       1.0  0.65660  0.83270  0.53110  1.0000
  C   C71       1.0  0.65660  0.91730  0.21890  1.0000
  C   C72       1.0  0.09340  0.83270  0.21890  1.0000
  C   C73       1.0  0.59340  0.41730  0.53110  1.0000
  C   C74       1.0  0.15660  0.33270  0.53110  1.0000
  C   C75       1.0  0.15660  0.41730  0.21890  1.0000
  C   C76       1.0  0.59340  0.33270  0.21890  1.0000
  C   C77       1.0  0.59340  0.91730  0.03110  1.0000
  C   C78       1.0  0.15660  0.83270  0.03110  1.0000
  C   C79       1.0  0.15660  0.91730  0.71890  1.0000
  C   C80       1.0  0.59340  0.83270  0.71890  1.0000
  C   C81       1.0  0.90660  0.58270  0.96890  1.0000
  C   C82       1.0  0.34340  0.66730  0.96890  1.0000
  C   C83       1.0  0.34340  0.58270  0.28110  1.0000
  C   C84       1.0  0.90660  0.66730  0.28110  1.0000
  C   C85       1.0  0.90660  0.08270  0.46890  1.0000
  C   C86       1.0  0.34340  0.16730  0.46890  1.0000
  C   C87       1.0  0.34340  0.08270  0.78110  1.0000
  C   C88       1.0  0.90660  0.16730  0.78110  1.0000
  C   C89       1.0  0.40660  0.58270  0.46890  1.0000
  C   C90       1.0  0.84340  0.66730  0.46890  1.0000
  C   C91       1.0  0.84340  0.58270  0.78110  1.0000
  C   C92       1.0  0.40660  0.66730  0.78110  1.0000
  C   C93       1.0  0.40660  0.08270  0.96890  1.0000
  C   C94       1.0  0.84340  0.16730  0.96890  1.0000
  C   C95       1.0  0.84340  0.08270  0.28110  1.0000
  C   C96       1.0  0.40660  0.16730  0.28110  1.0000
  H   H1        1.0  0.13050  0.42430  0.02870  1.0000
  H   H2        1.0  0.61950  0.32570  0.02870  1.0000
  H   H3        1.0  0.61950  0.42430  0.72130  1.0000
  H   H4        1.0  0.13050  0.32570  0.72130  1.0000
  H   H5        1.0  0.13050  0.92430  0.52870  1.0000
  H   H6        1.0  0.61950  0.82570  0.52870  1.0000
  H   H7        1.0  0.61950  0.92430  0.22130  1.0000
  H   H8        1.0  0.13050  0.82570  0.22130  1.0000
  H   H9        1.0  0.63050  0.42430  0.52870  1.0000
  H   H10       1.0  0.11950  0.32570  0.52870  1.0000
  H   H11       1.0  0.11950  0.42430  0.22130  1.0000
  H   H12       1.0  0.63050  0.32570  0.22130  1.0000
  H   H13       1.0  0.63050  0.92430  0.02870  1.0000
  H   H14       1.0  0.11950  0.82570  0.02870  1.0000
  H   H15       1.0  0.11950  0.92430  0.72130  1.0000
  H   H16       1.0  0.63050  0.82570  0.72130  1.0000
  H   H17       1.0  0.86950  0.57570  0.97130  1.0000
  H   H18       1.0  0.38050  0.67430  0.97130  1.0000
  H   H19       1.0  0.38050  0.57570  0.27870  1.0000
  H   H20       1.0  0.86950  0.67430  0.27870  1.0000
  H   H21       1.0  0.86950  0.07570  0.47130  1.0000
  H   H22       1.0  0.38050  0.17430  0.47130  1.0000
  H   H23       1.0  0.38050  0.07570  0.77870  1.0000
  H   H24       1.0  0.86950  0.17430  0.77870  1.0000
  H   H25       1.0  0.36950  0.57570  0.47130  1.0000
  H   H26       1.0  0.88050  0.67430  0.47130  1.0000
  H   H27       1.0  0.88050  0.57570  0.77870  1.0000
  H   H28       1.0  0.36950  0.67430  0.77870  1.0000
  H   H29       1.0  0.36950  0.07570  0.97130  1.0000
  H   H30       1.0  0.88050  0.17430  0.97130  1.0000
  H   H31       1.0  0.88050  0.07570  0.27870  1.0000
  H   H32       1.0  0.36950  0.17430  0.27870  1.0000
  C   C97       1.0  0.07110  0.39474  0.00930  1.0000
  C   C98       1.0  0.67890  0.35526  0.00930  1.0000
  C   C99       1.0  0.67890  0.39474  0.74070  1.0000
  C   C100      1.0  0.07110  0.35526  0.74070  1.0000
  C   C101      1.0  0.07110  0.89474  0.50930  1.0000
  C   C102      1.0  0.67890  0.85526  0.50930  1.0000
  C   C103      1.0  0.67890  0.89474  0.24070  1.0000
  C   C104      1.0  0.07110  0.85526  0.24070  1.0000
  C   C105      1.0  0.57110  0.39474  0.50930  1.0000
  C   C106      1.0  0.17890  0.35526  0.50930  1.0000
  C   C107      1.0  0.17890  0.39474  0.24070  1.0000
  C   C108      1.0  0.57110  0.35526  0.24070  1.0000
  C   C109      1.0  0.57110  0.89474  0.00930  1.0000
  C   C110      1.0  0.17890  0.85526  0.00930  1.0000
  C   C111      1.0  0.17890  0.89474  0.74070  1.0000
  C   C112      1.0  0.57110  0.85526  0.74070  1.0000
  C   C113      1.0  0.92890  0.60526  0.99070  1.0000
  C   C114      1.0  0.32110  0.64474  0.99070  1.0000
  C   C115      1.0  0.32110  0.60526  0.25930  1.0000
  C   C116      1.0  0.92890  0.64474  0.25930  1.0000
  C   C117      1.0  0.92890  0.10526  0.49070  1.0000
  C   C118      1.0  0.32110  0.14474  0.49070  1.0000
  C   C119      1.0  0.32110  0.10526  0.75930  1.0000
  C   C120      1.0  0.92890  0.14474  0.75930  1.0000
  C   C121      1.0  0.42890  0.60526  0.49070  1.0000
  C   C122      1.0  0.82110  0.64474  0.49070  1.0000
  C   C123      1.0  0.82110  0.60526  0.75930  1.0000
  C   C124      1.0  0.42890  0.64474  0.75930  1.0000
  C   C125      1.0  0.42890  0.10526  0.99070  1.0000
  C   C126      1.0  0.82110  0.14474  0.99070  1.0000
  C   C127      1.0  0.82110  0.10526  0.25930  1.0000
  C   C128      1.0  0.42890  0.14474  0.25930  1.0000
  H   H33       1.0  0.09410  0.38580  0.99290  1.0000
  H   H34       1.0  0.65590  0.36420  0.99290  1.0000
  H   H35       1.0  0.65590  0.38580  0.75710  1.0000
  H   H36       1.0  0.09410  0.36420  0.75710  1.0000
  H   H37       1.0  0.09410  0.88580  0.49290  1.0000
  H   H38       1.0  0.65590  0.86420  0.49290  1.0000
  H   H39       1.0  0.65590  0.88580  0.25710  1.0000
  H   H40       1.0  0.09410  0.86420  0.25710  1.0000
  H   H41       1.0  0.59410  0.38580  0.49290  1.0000
  H   H42       1.0  0.15590  0.36420  0.49290  1.0000
  H   H43       1.0  0.15590  0.38580  0.25710  1.0000
  H   H44       1.0  0.59410  0.36420  0.25710  1.0000
  H   H45       1.0  0.59410  0.88580  0.99290  1.0000
  H   H46       1.0  0.15590  0.86420  0.99290  1.0000
  H   H47       1.0  0.15590  0.88580  0.75710  1.0000
  H   H48       1.0  0.59410  0.86420  0.75710  1.0000
  H   H49       1.0  0.90590  0.61420  0.00710  1.0000
  H   H50       1.0  0.34410  0.63580  0.00710  1.0000
  H   H51       1.0  0.34410  0.61420  0.24290  1.0000
  H   H52       1.0  0.90590  0.63580  0.24290  1.0000
  H   H53       1.0  0.90590  0.11420  0.50710  1.0000
  H   H54       1.0  0.34410  0.13580  0.50710  1.0000
  H   H55       1.0  0.34410  0.11420  0.74290  1.0000
  H   H56       1.0  0.90590  0.13580  0.74290  1.0000
  H   H57       1.0  0.40590  0.61420  0.50710  1.0000
  H   H58       1.0  0.84410  0.63580  0.50710  1.0000
  H   H59       1.0  0.84410  0.61420  0.74290  1.0000
  H   H60       1.0  0.40590  0.63580  0.74290  1.0000
  H   H61       1.0  0.40590  0.11420  0.00710  1.0000
  H   H62       1.0  0.84410  0.13580  0.00710  1.0000
  H   H63       1.0  0.84410  0.11420  0.24290  1.0000
  H   H64       1.0  0.40590  0.13580  0.24290  1.0000
  C   C129      1.0  0.01440  0.38435  0.01068  1.0000
  C   C130      1.0  0.73560  0.36565  0.01068  1.0000
  C   C131      1.0  0.73560  0.38435  0.73932  1.0000
  C   C132      1.0  0.01440  0.36565  0.73932  1.0000
  C   C133      1.0  0.01440  0.88435  0.51068  1.0000
  C   C134      1.0  0.73560  0.86565  0.51068  1.0000
  C   C135      1.0  0.73560  0.88435  0.23932  1.0000
  C   C136      1.0  0.01440  0.86565  0.23932  1.0000
  C   C137      1.0  0.51440  0.38435  0.51068  1.0000
  C   C138      1.0  0.23560  0.36565  0.51068  1.0000
  C   C139      1.0  0.23560  0.38435  0.23932  1.0000
  C   C140      1.0  0.51440  0.36565  0.23932  1.0000
  C   C141      1.0  0.51440  0.88435  0.01068  1.0000
  C   C142      1.0  0.23560  0.86565  0.01068  1.0000
  C   C143      1.0  0.23560  0.88435  0.73932  1.0000
  C   C144      1.0  0.51440  0.86565  0.73932  1.0000
  C   C145      1.0  0.98560  0.61565  0.98932  1.0000
  C   C146      1.0  0.26440  0.63435  0.98932  1.0000
  C   C147      1.0  0.26440  0.61565  0.26068  1.0000
  C   C148      1.0  0.98560  0.63435  0.26068  1.0000
  C   C149      1.0  0.98560  0.11565  0.48932  1.0000
  C   C150      1.0  0.26440  0.13435  0.48932  1.0000
  C   C151      1.0  0.26440  0.11565  0.76068  1.0000
  C   C152      1.0  0.98560  0.13435  0.76068  1.0000
  C   C153      1.0  0.48560  0.61565  0.48932  1.0000
  C   C154      1.0  0.76440  0.63435  0.48932  1.0000
  C   C155      1.0  0.76440  0.61565  0.76068  1.0000
  C   C156      1.0  0.48560  0.63435  0.76068  1.0000
  C   C157      1.0  0.48560  0.11565  0.98932  1.0000
  C   C158      1.0  0.76440  0.13435  0.98932  1.0000
  C   C159      1.0  0.76440  0.11565  0.26068  1.0000
  C   C160      1.0  0.48560  0.13435  0.26068  1.0000
  C   C161      1.0  0.98490  0.39653  0.03600  1.0000
  C   C162      1.0  0.76510  0.35347  0.03600  1.0000
  C   C163      1.0  0.76510  0.39653  0.71400  1.0000
  C   C164      1.0  0.98490  0.35347  0.71400  1.0000
  C   C165      1.0  0.98490  0.89653  0.53600  1.0000
  C   C166      1.0  0.76510  0.85347  0.53600  1.0000
  C   C167      1.0  0.76510  0.89653  0.21400  1.0000
  C   C168      1.0  0.98490  0.85347  0.21400  1.0000
  C   C169      1.0  0.48490  0.39653  0.53600  1.0000
  C   C170      1.0  0.26510  0.35347  0.53600  1.0000
  C   C171      1.0  0.26510  0.39653  0.21400  1.0000
  C   C172      1.0  0.48490  0.35347  0.21400  1.0000
  C   C173      1.0  0.48490  0.89653  0.03600  1.0000
  C   C174      1.0  0.26510  0.85347  0.03600  1.0000
  C   C175      1.0  0.26510  0.89653  0.71400  1.0000
  C   C176      1.0  0.48490  0.85347  0.71400  1.0000
  C   C177      1.0  0.01510  0.60347  0.96400  1.0000
  C   C178      1.0  0.23490  0.64653  0.96400  1.0000
  C   C179      1.0  0.23490  0.60347  0.28600  1.0000
  C   C180      1.0  0.01510  0.64653  0.28600  1.0000
  C   C181      1.0  0.01510  0.10347  0.46400  1.0000
  C   C182      1.0  0.23490  0.14653  0.46400  1.0000
  C   C183      1.0  0.23490  0.10347  0.78600  1.0000
  C   C184      1.0  0.01510  0.14653  0.78600  1.0000
  C   C185      1.0  0.51510  0.60347  0.46400  1.0000
  C   C186      1.0  0.73490  0.64653  0.46400  1.0000
  C   C187      1.0  0.73490  0.60347  0.78600  1.0000
  C   C188      1.0  0.51510  0.64653  0.78600  1.0000
  C   C189      1.0  0.51510  0.10347  0.96400  1.0000
  C   C190      1.0  0.73490  0.14653  0.96400  1.0000
  C   C191      1.0  0.73490  0.10347  0.28600  1.0000
  C   C192      1.0  0.51510  0.14653  0.28600  1.0000
  H   H65       1.0  0.94770  0.38950  0.03830  1.0000
  H   H66       1.0  0.80230  0.36050  0.03830  1.0000
  H   H67       1.0  0.80230  0.38950  0.71170  1.0000
  H   H68       1.0  0.94770  0.36050  0.71170  1.0000
  H   H69       1.0  0.94770  0.88950  0.53830  1.0000
  H   H70       1.0  0.80230  0.86050  0.53830  1.0000
  H   H71       1.0  0.80230  0.88950  0.21170  1.0000
  H   H72       1.0  0.94770  0.86050  0.21170  1.0000
  H   H73       1.0  0.44770  0.38950  0.53830  1.0000
  H   H74       1.0  0.30230  0.36050  0.53830  1.0000
  H   H75       1.0  0.30230  0.38950  0.21170  1.0000
  H   H76       1.0  0.44770  0.36050  0.21170  1.0000
  H   H77       1.0  0.44770  0.88950  0.03830  1.0000
  H   H78       1.0  0.30230  0.86050  0.03830  1.0000
  H   H79       1.0  0.30230  0.88950  0.71170  1.0000
  H   H80       1.0  0.44770  0.86050  0.71170  1.0000
  H   H81       1.0  0.05230  0.61050  0.96170  1.0000
  H   H82       1.0  0.19770  0.63950  0.96170  1.0000
  H   H83       1.0  0.19770  0.61050  0.28830  1.0000
  H   H84       1.0  0.05230  0.63950  0.28830  1.0000
  H   H85       1.0  0.05230  0.11050  0.46170  1.0000
  H   H86       1.0  0.19770  0.13950  0.46170  1.0000
  H   H87       1.0  0.19770  0.11050  0.78830  1.0000
  H   H88       1.0  0.05230  0.13950  0.78830  1.0000
  H   H89       1.0  0.55230  0.61050  0.46170  1.0000
  H   H90       1.0  0.69770  0.63950  0.46170  1.0000
  H   H91       1.0  0.69770  0.61050  0.78830  1.0000
  H   H92       1.0  0.55230  0.63950  0.78830  1.0000
  H   H93       1.0  0.55230  0.11050  0.96170  1.0000
  H   H94       1.0  0.69770  0.13950  0.96170  1.0000
  H   H95       1.0  0.69770  0.11050  0.28830  1.0000
  H   H96       1.0  0.55230  0.13950  0.28830  1.0000
  C   C193      1.0  0.00710  0.42010  0.06004  1.0000
  C   C194      1.0  0.74290  0.32990  0.06004  1.0000
  C   C195      1.0  0.74290  0.42010  0.68996  1.0000
  C   C196      1.0  0.00710  0.32990  0.68996  1.0000
  C   C197      1.0  0.00710  0.92010  0.56004  1.0000
  C   C198      1.0  0.74290  0.82990  0.56004  1.0000
  C   C199      1.0  0.74290  0.92010  0.18996  1.0000
  C   C200      1.0  0.00710  0.82990  0.18996  1.0000
  C   C201      1.0  0.50710  0.42010  0.56004  1.0000
  C   C202      1.0  0.24290  0.32990  0.56004  1.0000
  C   C203      1.0  0.24290  0.42010  0.18996  1.0000
  C   C204      1.0  0.50710  0.32990  0.18996  1.0000
  C   C205      1.0  0.50710  0.92010  0.06004  1.0000
  C   C206      1.0  0.24290  0.82990  0.06004  1.0000
  C   C207      1.0  0.24290  0.92010  0.68996  1.0000
  C   C208      1.0  0.50710  0.82990  0.68996  1.0000
  C   C209      1.0  0.99290  0.57990  0.93996  1.0000
  C   C210      1.0  0.25710  0.67010  0.93996  1.0000
  C   C211      1.0  0.25710  0.57990  0.31004  1.0000
  C   C212      1.0  0.99290  0.67010  0.31004  1.0000
  C   C213      1.0  0.99290  0.07990  0.43996  1.0000
  C   C214      1.0  0.25710  0.17010  0.43996  1.0000
  C   C215      1.0  0.25710  0.07990  0.81004  1.0000
  C   C216      1.0  0.99290  0.17010  0.81004  1.0000
  C   C217      1.0  0.49290  0.57990  0.43996  1.0000
  C   C218      1.0  0.75710  0.67010  0.43996  1.0000
  C   C219      1.0  0.75710  0.57990  0.81004  1.0000
  C   C220      1.0  0.49290  0.67010  0.81004  1.0000
  C   C221      1.0  0.49290  0.07990  0.93996  1.0000
  C   C222      1.0  0.75710  0.17010  0.93996  1.0000
  C   C223      1.0  0.75710  0.07990  0.31004  1.0000
  C   C224      1.0  0.49290  0.17010  0.31004  1.0000
  H   H97       1.0  0.98470  0.42820  0.07710  1.0000
  H   H98       1.0  0.76530  0.32180  0.07710  1.0000
  H   H99       1.0  0.76530  0.42820  0.67290  1.0000
  H   H100      1.0  0.98470  0.32180  0.67290  1.0000
  H   H101      1.0  0.98470  0.92820  0.57710  1.0000
  H   H102      1.0  0.76530  0.82180  0.57710  1.0000
  H   H103      1.0  0.76530  0.92820  0.17290  1.0000
  H   H104      1.0  0.98470  0.82180  0.17290  1.0000
  H   H105      1.0  0.48470  0.42820  0.57710  1.0000
  H   H106      1.0  0.26530  0.32180  0.57710  1.0000
  H   H107      1.0  0.26530  0.42820  0.17290  1.0000
  H   H108      1.0  0.48470  0.32180  0.17290  1.0000
  H   H109      1.0  0.48470  0.92820  0.07710  1.0000
  H   H110      1.0  0.26530  0.82180  0.07710  1.0000
  H   H111      1.0  0.26530  0.92820  0.67290  1.0000
  H   H112      1.0  0.48470  0.82180  0.67290  1.0000
  H   H113      1.0  0.01530  0.57180  0.92290  1.0000
  H   H114      1.0  0.23470  0.67820  0.92290  1.0000
  H   H115      1.0  0.23470  0.57180  0.32710  1.0000
  H   H116      1.0  0.01530  0.67820  0.32710  1.0000
  H   H117      1.0  0.01530  0.07180  0.42290  1.0000
  H   H118      1.0  0.23470  0.17820  0.42290  1.0000
  H   H119      1.0  0.23470  0.07180  0.82710  1.0000
  H   H120      1.0  0.01530  0.17820  0.82710  1.0000
  H   H121      1.0  0.51530  0.57180  0.42290  1.0000
  H   H122      1.0  0.73470  0.67820  0.42290  1.0000
  H   H123      1.0  0.73470  0.57180  0.82710  1.0000
  H   H124      1.0  0.51530  0.67820  0.82710  1.0000
  H   H125      1.0  0.51530  0.07180  0.92290  1.0000
  H   H126      1.0  0.73470  0.17820  0.92290  1.0000
  H   H127      1.0  0.73470  0.07180  0.32710  1.0000
  H   H128      1.0  0.51530  0.17820  0.32710  1.0000
  C   C225      1.0  0.98990  0.35985  0.98823  1.0000
  C   C226      1.0  0.76010  0.39015  0.98823  1.0000
  C   C227      1.0  0.76010  0.35985  0.76177  1.0000
  C   C228      1.0  0.98990  0.39015  0.76177  1.0000
  C   C229      1.0  0.98990  0.85985  0.48823  1.0000
  C   C230      1.0  0.76010  0.89015  0.48823  1.0000
  C   C231      1.0  0.76010  0.85985  0.26177  1.0000
  C   C232      1.0  0.98990  0.89015  0.26177  1.0000
  C   C233      1.0  0.48990  0.35985  0.48823  1.0000
  C   C234      1.0  0.26010  0.39015  0.48823  1.0000
  C   C235      1.0  0.26010  0.35985  0.26177  1.0000
  C   C236      1.0  0.48990  0.39015  0.26177  1.0000
  C   C237      1.0  0.48990  0.85985  0.98823  1.0000
  C   C238      1.0  0.26010  0.89015  0.98823  1.0000
  C   C239      1.0  0.26010  0.85985  0.76177  1.0000
  C   C240      1.0  0.48990  0.89015  0.76177  1.0000
  C   C241      1.0  0.01010  0.64015  0.01177  1.0000
  C   C242      1.0  0.23990  0.60985  0.01177  1.0000
  C   C243      1.0  0.23990  0.64015  0.23823  1.0000
  C   C244      1.0  0.01010  0.60985  0.23823  1.0000
  C   C245      1.0  0.01010  0.14015  0.51177  1.0000
  C   C246      1.0  0.23990  0.10985  0.51177  1.0000
  C   C247      1.0  0.23990  0.14015  0.73823  1.0000
  C   C248      1.0  0.01010  0.10985  0.73823  1.0000
  C   C249      1.0  0.51010  0.64015  0.51177  1.0000
  C   C250      1.0  0.73990  0.60985  0.51177  1.0000
  C   C251      1.0  0.73990  0.64015  0.73823  1.0000
  C   C252      1.0  0.51010  0.60985  0.73823  1.0000
  C   C253      1.0  0.51010  0.14015  0.01177  1.0000
  C   C254      1.0  0.73990  0.10985  0.01177  1.0000
  C   C255      1.0  0.73990  0.14015  0.23823  1.0000
  C   C256      1.0  0.51010  0.10985  0.23823  1.0000
  C   C257      1.0  0.93660  0.35050  0.98830  1.0000
  C   C258      1.0  0.81340  0.39950  0.98830  1.0000
  C   C259      1.0  0.81340  0.35050  0.76170  1.0000
  C   C260      1.0  0.93660  0.39950  0.76170  1.0000
  C   C261      1.0  0.93660  0.85050  0.48830  1.0000
  C   C262      1.0  0.81340  0.89950  0.48830  1.0000
  C   C263      1.0  0.81340  0.85050  0.26170  1.0000
  C   C264      1.0  0.93660  0.89950  0.26170  1.0000
  C   C265      1.0  0.43660  0.35050  0.48830  1.0000
  C   C266      1.0  0.31340  0.39950  0.48830  1.0000
  C   C267      1.0  0.31340  0.35050  0.26170  1.0000
  C   C268      1.0  0.43660  0.39950  0.26170  1.0000
  C   C269      1.0  0.43660  0.85050  0.98830  1.0000
  C   C270      1.0  0.31340  0.89950  0.98830  1.0000
  C   C271      1.0  0.31340  0.85050  0.76170  1.0000
  C   C272      1.0  0.43660  0.89950  0.76170  1.0000
  C   C273      1.0  0.06340  0.64950  0.01170  1.0000
  C   C274      1.0  0.18660  0.60050  0.01170  1.0000
  C   C275      1.0  0.18660  0.64950  0.23830  1.0000
  C   C276      1.0  0.06340  0.60050  0.23830  1.0000
  C   C277      1.0  0.06340  0.14950  0.51170  1.0000
  C   C278      1.0  0.18660  0.10050  0.51170  1.0000
  C   C279      1.0  0.18660  0.14950  0.73830  1.0000
  C   C280      1.0  0.06340  0.10050  0.73830  1.0000
  C   C281      1.0  0.56340  0.64950  0.51170  1.0000
  C   C282      1.0  0.68660  0.60050  0.51170  1.0000
  C   C283      1.0  0.68660  0.64950  0.73830  1.0000
  C   C284      1.0  0.56340  0.60050  0.73830  1.0000
  C   C285      1.0  0.56340  0.14950  0.01170  1.0000
  C   C286      1.0  0.68660  0.10050  0.01170  1.0000
  C   C287      1.0  0.68660  0.14950  0.23830  1.0000
  C   C288      1.0  0.56340  0.10050  0.23830  1.0000
  H   H129      1.0  0.91340  0.36020  0.00420  1.0000
  H   H130      1.0  0.83660  0.38980  0.00420  1.0000
  H   H131      1.0  0.83660  0.36020  0.74580  1.0000
  H   H132      1.0  0.91340  0.38980  0.74580  1.0000
  H   H133      1.0  0.91340  0.86020  0.50420  1.0000
  H   H134      1.0  0.83660  0.88980  0.50420  1.0000
  H   H135      1.0  0.83660  0.86020  0.24580  1.0000
  H   H136      1.0  0.91340  0.88980  0.24580  1.0000
  H   H137      1.0  0.41340  0.36020  0.50420  1.0000
  H   H138      1.0  0.33660  0.38980  0.50420  1.0000
  H   H139      1.0  0.33660  0.36020  0.24580  1.0000
  H   H140      1.0  0.41340  0.38980  0.24580  1.0000
  H   H141      1.0  0.41340  0.86020  0.00420  1.0000
  H   H142      1.0  0.33660  0.88980  0.00420  1.0000
  H   H143      1.0  0.33660  0.86020  0.74580  1.0000
  H   H144      1.0  0.41340  0.88980  0.74580  1.0000
  H   H145      1.0  0.08660  0.63980  0.99580  1.0000
  H   H146      1.0  0.16340  0.61020  0.99580  1.0000
  H   H147      1.0  0.16340  0.63980  0.25420  1.0000
  H   H148      1.0  0.08660  0.61020  0.25420  1.0000
  H   H149      1.0  0.08660  0.13980  0.49580  1.0000
  H   H150      1.0  0.16340  0.11020  0.49580  1.0000
  H   H151      1.0  0.16340  0.13980  0.75420  1.0000
  H   H152      1.0  0.08660  0.11020  0.75420  1.0000
  H   H153      1.0  0.58660  0.63980  0.49580  1.0000
  H   H154      1.0  0.66340  0.61020  0.49580  1.0000
  H   H155      1.0  0.66340  0.63980  0.75420  1.0000
  H   H156      1.0  0.58660  0.61020  0.75420  1.0000
  H   H157      1.0  0.58660  0.13980  0.99580  1.0000
  H   H158      1.0  0.66340  0.11020  0.99580  1.0000
  H   H159      1.0  0.66340  0.13980  0.25420  1.0000
  H   H160      1.0  0.58660  0.11020  0.25420  1.0000
  C   C289      1.0  0.91280  0.32840  0.96740  1.0000
  C   C290      1.0  0.83720  0.42160  0.96740  1.0000
  C   C291      1.0  0.83720  0.32840  0.78260  1.0000
  C   C292      1.0  0.91280  0.42160  0.78260  1.0000
  C   C293      1.0  0.91280  0.82840  0.46740  1.0000
  C   C294      1.0  0.83720  0.92160  0.46740  1.0000
  C   C295      1.0  0.83720  0.82840  0.28260  1.0000
  C   C296      1.0  0.91280  0.92160  0.28260  1.0000
  C   C297      1.0  0.41280  0.32840  0.46740  1.0000
  C   C298      1.0  0.33720  0.42160  0.46740  1.0000
  C   C299      1.0  0.33720  0.32840  0.28260  1.0000
  C   C300      1.0  0.41280  0.42160  0.28260  1.0000
  C   C301      1.0  0.41280  0.82840  0.96740  1.0000
  C   C302      1.0  0.33720  0.92160  0.96740  1.0000
  C   C303      1.0  0.33720  0.82840  0.78260  1.0000
  C   C304      1.0  0.41280  0.92160  0.78260  1.0000
  C   C305      1.0  0.08720  0.67160  0.03260  1.0000
  C   C306      1.0  0.16280  0.57840  0.03260  1.0000
  C   C307      1.0  0.16280  0.67160  0.21740  1.0000
  C   C308      1.0  0.08720  0.57840  0.21740  1.0000
  C   C309      1.0  0.08720  0.17160  0.53260  1.0000
  C   C310      1.0  0.16280  0.07840  0.53260  1.0000
  C   C311      1.0  0.16280  0.17160  0.71740  1.0000
  C   C312      1.0  0.08720  0.07840  0.71740  1.0000
  C   C313      1.0  0.58720  0.67160  0.53260  1.0000
  C   C314      1.0  0.66280  0.57840  0.53260  1.0000
  C   C315      1.0  0.66280  0.67160  0.71740  1.0000
  C   C316      1.0  0.58720  0.57840  0.71740  1.0000
  C   C317      1.0  0.58720  0.17160  0.03260  1.0000
  C   C318      1.0  0.66280  0.07840  0.03260  1.0000
  C   C319      1.0  0.66280  0.17160  0.21740  1.0000
  C   C320      1.0  0.58720  0.07840  0.21740  1.0000
  H   H161      1.0  0.87520  0.32250  0.97000  1.0000
  H   H162      1.0  0.87480  0.42750  0.97000  1.0000
  H   H163      1.0  0.87480  0.32250  0.78000  1.0000
  H   H164      1.0  0.87520  0.42750  0.78000  1.0000
  H   H165      1.0  0.87520  0.82250  0.47000  1.0000
  H   H166      1.0  0.87480  0.92750  0.47000  1.0000
  H   H167      1.0  0.87480  0.82250  0.28000  1.0000
  H   H168      1.0  0.87520  0.92750  0.28000  1.0000
  H   H169      1.0  0.37520  0.32250  0.47000  1.0000
  H   H170      1.0  0.37480  0.42750  0.47000  1.0000
  H   H171      1.0  0.37480  0.32250  0.28000  1.0000
  H   H172      1.0  0.37520  0.42750  0.28000  1.0000
  H   H173      1.0  0.37520  0.82250  0.97000  1.0000
  H   H174      1.0  0.37480  0.92750  0.97000  1.0000
  H   H175      1.0  0.37480  0.82250  0.78000  1.0000
  H   H176      1.0  0.37520  0.92750  0.78000  1.0000
  H   H177      1.0  0.12480  0.67750  0.03000  1.0000
  H   H178      1.0  0.12520  0.57250  0.03000  1.0000
  H   H179      1.0  0.12520  0.67750  0.22000  1.0000
  H   H180      1.0  0.12480  0.57250  0.22000  1.0000
  H   H181      1.0  0.12480  0.17750  0.53000  1.0000
  H   H182      1.0  0.12520  0.07250  0.53000  1.0000
  H   H183      1.0  0.12520  0.17750  0.72000  1.0000
  H   H184      1.0  0.12480  0.07250  0.72000  1.0000
  H   H185      1.0  0.62480  0.67750  0.53000  1.0000
  H   H186      1.0  0.62520  0.57250  0.53000  1.0000
  H   H187      1.0  0.62520  0.67750  0.72000  1.0000
  H   H188      1.0  0.62480  0.57250  0.72000  1.0000
  H   H189      1.0  0.62480  0.17750  0.03000  1.0000
  H   H190      1.0  0.62520  0.07250  0.03000  1.0000
  H   H191      1.0  0.62520  0.17750  0.22000  1.0000
  H   H192      1.0  0.62480  0.07250  0.22000  1.0000
  C   C321      1.0  0.94290  0.31483  0.94282  1.0000
  C   C322      1.0  0.80710  0.43517  0.94282  1.0000
  C   C323      1.0  0.80710  0.31483  0.80718  1.0000
  C   C324      1.0  0.94290  0.43517  0.80718  1.0000
  C   C325      1.0  0.94290  0.81483  0.44282  1.0000
  C   C326      1.0  0.80710  0.93517  0.44282  1.0000
  C   C327      1.0  0.80710  0.81483  0.30718  1.0000
  C   C328      1.0  0.94290  0.93517  0.30718  1.0000
  C   C329      1.0  0.44290  0.31483  0.44282  1.0000
  C   C330      1.0  0.30710  0.43517  0.44282  1.0000
  C   C331      1.0  0.30710  0.31483  0.30718  1.0000
  C   C332      1.0  0.44290  0.43517  0.30718  1.0000
  C   C333      1.0  0.44290  0.81483  0.94282  1.0000
  C   C334      1.0  0.30710  0.93517  0.94282  1.0000
  C   C335      1.0  0.30710  0.81483  0.80718  1.0000
  C   C336      1.0  0.44290  0.93517  0.80718  1.0000
  C   C337      1.0  0.05710  0.68517  0.05718  1.0000
  C   C338      1.0  0.19290  0.56483  0.05718  1.0000
  C   C339      1.0  0.19290  0.68517  0.19282  1.0000
  C   C340      1.0  0.05710  0.56483  0.19282  1.0000
  C   C341      1.0  0.05710  0.18517  0.55718  1.0000
  C   C342      1.0  0.19290  0.06483  0.55718  1.0000
  C   C343      1.0  0.19290  0.18517  0.69282  1.0000
  C   C344      1.0  0.05710  0.06483  0.69282  1.0000
  C   C345      1.0  0.55710  0.68517  0.55718  1.0000
  C   C346      1.0  0.69290  0.56483  0.55718  1.0000
  C   C347      1.0  0.69290  0.68517  0.69282  1.0000
  C   C348      1.0  0.55710  0.56483  0.69282  1.0000
  C   C349      1.0  0.55710  0.18517  0.05718  1.0000
  C   C350      1.0  0.69290  0.06483  0.05718  1.0000
  C   C351      1.0  0.69290  0.18517  0.19282  1.0000
  C   C352      1.0  0.55710  0.06483  0.19282  1.0000
  C   C353      1.0  0.99750  0.32110  0.94360  1.0000
  C   C354      1.0  0.75250  0.42890  0.94360  1.0000
  C   C355      1.0  0.75250  0.32110  0.80640  1.0000
  C   C356      1.0  0.99750  0.42890  0.80640  1.0000
  C   C357      1.0  0.99750  0.82110  0.44360  1.0000
  C   C358      1.0  0.75250  0.92890  0.44360  1.0000
  C   C359      1.0  0.75250  0.82110  0.30640  1.0000
  C   C360      1.0  0.99750  0.92890  0.30640  1.0000
  C   C361      1.0  0.49750  0.32110  0.44360  1.0000
  C   C362      1.0  0.25250  0.42890  0.44360  1.0000
  C   C363      1.0  0.25250  0.32110  0.30640  1.0000
  C   C364      1.0  0.49750  0.42890  0.30640  1.0000
  C   C365      1.0  0.49750  0.82110  0.94360  1.0000
  C   C366      1.0  0.25250  0.92890  0.94360  1.0000
  C   C367      1.0  0.25250  0.82110  0.80640  1.0000
  C   C368      1.0  0.49750  0.92890  0.80640  1.0000
  C   C369      1.0  0.00250  0.67890  0.05640  1.0000
  C   C370      1.0  0.24750  0.57110  0.05640  1.0000
  C   C371      1.0  0.24750  0.67890  0.19360  1.0000
  C   C372      1.0  0.00250  0.57110  0.19360  1.0000
  C   C373      1.0  0.00250  0.17890  0.55640  1.0000
  C   C374      1.0  0.24750  0.07110  0.55640  1.0000
  C   C375      1.0  0.24750  0.17890  0.69360  1.0000
  C   C376      1.0  0.00250  0.07110  0.69360  1.0000
  C   C377      1.0  0.50250  0.67890  0.55640  1.0000
  C   C378      1.0  0.74750  0.57110  0.55640  1.0000
  C   C379      1.0  0.74750  0.67890  0.69360  1.0000
  C   C380      1.0  0.50250  0.57110  0.69360  1.0000
  C   C381      1.0  0.50250  0.17890  0.05640  1.0000
  C   C382      1.0  0.74750  0.07110  0.05640  1.0000
  C   C383      1.0  0.74750  0.17890  0.19360  1.0000
  C   C384      1.0  0.50250  0.07110  0.19360  1.0000
  H   H193      1.0  0.02060  0.30980  0.92870  1.0000
  H   H194      1.0  0.72940  0.44020  0.92870  1.0000
  H   H195      1.0  0.72940  0.30980  0.82130  1.0000
  H   H196      1.0  0.02060  0.44020  0.82130  1.0000
  H   H197      1.0  0.02060  0.80980  0.42870  1.0000
  H   H198      1.0  0.72940  0.94020  0.42870  1.0000
  H   H199      1.0  0.72940  0.80980  0.32130  1.0000
  H   H200      1.0  0.02060  0.94020  0.32130  1.0000
  H   H201      1.0  0.52060  0.30980  0.42870  1.0000
  H   H202      1.0  0.22940  0.44020  0.42870  1.0000
  H   H203      1.0  0.22940  0.30980  0.32130  1.0000
  H   H204      1.0  0.52060  0.44020  0.32130  1.0000
  H   H205      1.0  0.52060  0.80980  0.92870  1.0000
  H   H206      1.0  0.22940  0.94020  0.92870  1.0000
  H   H207      1.0  0.22940  0.80980  0.82130  1.0000
  H   H208      1.0  0.52060  0.94020  0.82130  1.0000
  H   H209      1.0  0.97940  0.69020  0.07130  1.0000
  H   H210      1.0  0.27060  0.55980  0.07130  1.0000
  H   H211      1.0  0.27060  0.69020  0.17870  1.0000
  H   H212      1.0  0.97940  0.55980  0.17870  1.0000
  H   H213      1.0  0.97940  0.19020  0.57130  1.0000
  H   H214      1.0  0.27060  0.05980  0.57130  1.0000
  H   H215      1.0  0.27060  0.19020  0.67870  1.0000
  H   H216      1.0  0.97940  0.05980  0.67870  1.0000
  H   H217      1.0  0.47940  0.69020  0.57130  1.0000
  H   H218      1.0  0.77060  0.55980  0.57130  1.0000
  H   H219      1.0  0.77060  0.69020  0.67870  1.0000
  H   H220      1.0  0.47940  0.55980  0.67870  1.0000
  H   H221      1.0  0.47940  0.19020  0.07130  1.0000
  H   H222      1.0  0.77060  0.05980  0.07130  1.0000
  H   H223      1.0  0.77060  0.19020  0.17870  1.0000
  H   H224      1.0  0.47940  0.05980  0.17870  1.0000
  C   C385      1.0  0.02120  0.34320  0.96500  1.0000
  C   C386      1.0  0.72880  0.40680  0.96500  1.0000
  C   C387      1.0  0.72880  0.34320  0.78500  1.0000
  C   C388      1.0  0.02120  0.40680  0.78500  1.0000
  C   C389      1.0  0.02120  0.84320  0.46500  1.0000
  C   C390      1.0  0.72880  0.90680  0.46500  1.0000
  C   C391      1.0  0.72880  0.84320  0.28500  1.0000
  C   C392      1.0  0.02120  0.90680  0.28500  1.0000
  C   C393      1.0  0.52120  0.34320  0.46500  1.0000
  C   C394      1.0  0.22880  0.40680  0.46500  1.0000
  C   C395      1.0  0.22880  0.34320  0.28500  1.0000
  C   C396      1.0  0.52120  0.40680  0.28500  1.0000
  C   C397      1.0  0.52120  0.84320  0.96500  1.0000
  C   C398      1.0  0.22880  0.90680  0.96500  1.0000
  C   C399      1.0  0.22880  0.84320  0.78500  1.0000
  C   C400      1.0  0.52120  0.90680  0.78500  1.0000
  C   C401      1.0  0.97880  0.65680  0.03500  1.0000
  C   C402      1.0  0.27120  0.59320  0.03500  1.0000
  C   C403      1.0  0.27120  0.65680  0.21500  1.0000
  C   C404      1.0  0.97880  0.59320  0.21500  1.0000
  C   C405      1.0  0.97880  0.15680  0.53500  1.0000
  C   C406      1.0  0.27120  0.09320  0.53500  1.0000
  C   C407      1.0  0.27120  0.15680  0.71500  1.0000
  C   C408      1.0  0.97880  0.09320  0.71500  1.0000
  C   C409      1.0  0.47880  0.65680  0.53500  1.0000
  C   C410      1.0  0.77120  0.59320  0.53500  1.0000
  C   C411      1.0  0.77120  0.65680  0.71500  1.0000
  C   C412      1.0  0.47880  0.59320  0.71500  1.0000
  C   C413      1.0  0.47880  0.15680  0.03500  1.0000
  C   C414      1.0  0.77120  0.09320  0.03500  1.0000
  C   C415      1.0  0.77120  0.15680  0.21500  1.0000
  C   C416      1.0  0.47880  0.09320  0.21500  1.0000
  H   H225      1.0  0.05970  0.34720  0.96380  1.0000
  H   H226      1.0  0.69030  0.40280  0.96380  1.0000
  H   H227      1.0  0.69030  0.34720  0.78620  1.0000
  H   H228      1.0  0.05970  0.40280  0.78620  1.0000
  H   H229      1.0  0.05970  0.84720  0.46380  1.0000
  H   H230      1.0  0.69030  0.90280  0.46380  1.0000
  H   H231      1.0  0.69030  0.84720  0.28620  1.0000
  H   H232      1.0  0.05970  0.90280  0.28620  1.0000
  H   H233      1.0  0.55970  0.34720  0.46380  1.0000
  H   H234      1.0  0.19030  0.40280  0.46380  1.0000
  H   H235      1.0  0.19030  0.34720  0.28620  1.0000
  H   H236      1.0  0.55970  0.40280  0.28620  1.0000
  H   H237      1.0  0.55970  0.84720  0.96380  1.0000
  H   H238      1.0  0.19030  0.90280  0.96380  1.0000
  H   H239      1.0  0.19030  0.84720  0.78620  1.0000
  H   H240      1.0  0.55970  0.90280  0.78620  1.0000
  H   H241      1.0  0.94030  0.65280  0.03620  1.0000
  H   H242      1.0  0.30970  0.59720  0.03620  1.0000
  H   H243      1.0  0.30970  0.65280  0.21380  1.0000
  H   H244      1.0  0.94030  0.59720  0.21380  1.0000
  H   H245      1.0  0.94030  0.15280  0.53620  1.0000
  H   H246      1.0  0.30970  0.09720  0.53620  1.0000
  H   H247      1.0  0.30970  0.15280  0.71380  1.0000
  H   H248      1.0  0.94030  0.09720  0.71380  1.0000
  H   H249      1.0  0.44030  0.65280  0.53620  1.0000
  H   H250      1.0  0.80970  0.59720  0.53620  1.0000
  H   H251      1.0  0.80970  0.65280  0.71380  1.0000
  H   H252      1.0  0.44030  0.59720  0.71380  1.0000
  H   H253      1.0  0.44030  0.15280  0.03620  1.0000
  H   H254      1.0  0.80970  0.09720  0.03620  1.0000
  H   H255      1.0  0.80970  0.15280  0.21380  1.0000
  H   H256      1.0  0.44030  0.09720  0.21380  1.0000
  C   C417      1.0  0.91830  0.29096  0.91710  1.0000
  C   C418      1.0  0.83170  0.45904  0.91710  1.0000
  C   C419      1.0  0.83170  0.29096  0.83290  1.0000
  C   C420      1.0  0.91830  0.45904  0.83290  1.0000
  C   C421      1.0  0.91830  0.79096  0.41710  1.0000
  C   C422      1.0  0.83170  0.95904  0.41710  1.0000
  C   C423      1.0  0.83170  0.79096  0.33290  1.0000
  C   C424      1.0  0.91830  0.95904  0.33290  1.0000
  C   C425      1.0  0.41830  0.29096  0.41710  1.0000
  C   C426      1.0  0.33170  0.45904  0.41710  1.0000
  C   C427      1.0  0.33170  0.29096  0.33290  1.0000
  C   C428      1.0  0.41830  0.45904  0.33290  1.0000
  C   C429      1.0  0.41830  0.79096  0.91710  1.0000
  C   C430      1.0  0.33170  0.95904  0.91710  1.0000
  C   C431      1.0  0.33170  0.79096  0.83290  1.0000
  C   C432      1.0  0.41830  0.95904  0.83290  1.0000
  C   C433      1.0  0.08170  0.70904  0.08290  1.0000
  C   C434      1.0  0.16830  0.54096  0.08290  1.0000
  C   C435      1.0  0.16830  0.70904  0.16710  1.0000
  C   C436      1.0  0.08170  0.54096  0.16710  1.0000
  C   C437      1.0  0.08170  0.20904  0.58290  1.0000
  C   C438      1.0  0.16830  0.04096  0.58290  1.0000
  C   C439      1.0  0.16830  0.20904  0.66710  1.0000
  C   C440      1.0  0.08170  0.04096  0.66710  1.0000
  C   C441      1.0  0.58170  0.70904  0.58290  1.0000
  C   C442      1.0  0.66830  0.54096  0.58290  1.0000
  C   C443      1.0  0.66830  0.70904  0.66710  1.0000
  C   C444      1.0  0.58170  0.54096  0.66710  1.0000
  C   C445      1.0  0.58170  0.20904  0.08290  1.0000
  C   C446      1.0  0.66830  0.04096  0.08290  1.0000
  C   C447      1.0  0.66830  0.20904  0.16710  1.0000
  C   C448      1.0  0.58170  0.04096  0.16710  1.0000
  O   O129      1.0  0.79530  0.39897  0.11434  1.0000
  O   O130      1.0  0.95470  0.35103  0.11434  1.0000
  O   O131      1.0  0.95470  0.39897  0.63566  1.0000
  O   O132      1.0  0.79530  0.35103  0.63566  1.0000
  O   O133      1.0  0.79530  0.89897  0.61434  1.0000
  O   O134      1.0  0.95470  0.85103  0.61434  1.0000
  O   O135      1.0  0.95470  0.89897  0.13566  1.0000
  O   O136      1.0  0.79530  0.85103  0.13566  1.0000
  O   O137      1.0  0.29530  0.39897  0.61434  1.0000
  O   O138      1.0  0.45470  0.35103  0.61434  1.0000
  O   O139      1.0  0.45470  0.39897  0.13566  1.0000
  O   O140      1.0  0.29530  0.35103  0.13566  1.0000
  O   O141      1.0  0.29530  0.89897  0.11434  1.0000
  O   O142      1.0  0.45470  0.85103  0.11434  1.0000
  O   O143      1.0  0.45470  0.89897  0.63566  1.0000
  O   O144      1.0  0.29530  0.85103  0.63566  1.0000
  O   O145      1.0  0.20470  0.60103  0.88566  1.0000
  O   O146      1.0  0.04530  0.64897  0.88566  1.0000
  O   O147      1.0  0.04530  0.60103  0.36434  1.0000
  O   O148      1.0  0.20470  0.64897  0.36434  1.0000
  O   O149      1.0  0.20470  0.10103  0.38566  1.0000
  O   O150      1.0  0.04530  0.14897  0.38566  1.0000
  O   O151      1.0  0.04530  0.10103  0.86434  1.0000
  O   O152      1.0  0.20470  0.14897  0.86434  1.0000
  O   O153      1.0  0.70470  0.60103  0.38566  1.0000
  O   O154      1.0  0.54530  0.64897  0.38566  1.0000
  O   O155      1.0  0.54530  0.60103  0.86434  1.0000
  O   O156      1.0  0.70470  0.64897  0.86434  1.0000
  O   O157      1.0  0.70470  0.10103  0.88566  1.0000
  O   O158      1.0  0.54530  0.14897  0.88566  1.0000
  O   O159      1.0  0.54530  0.10103  0.36434  1.0000
  O   O160      1.0  0.70470  0.14897  0.36434  1.0000
  O   O161      1.0  0.87860  0.41492  0.09661  1.0000
  O   O162      1.0  0.87140  0.33508  0.09661  1.0000
  O   O163      1.0  0.87140  0.41492  0.65339  1.0000
  O   O164      1.0  0.87860  0.33508  0.65339  1.0000
  O   O165      1.0  0.87860  0.91492  0.59661  1.0000
  O   O166      1.0  0.87140  0.83508  0.59661  1.0000
  O   O167      1.0  0.87140  0.91492  0.15339  1.0000
  O   O168      1.0  0.87860  0.83508  0.15339  1.0000
  O   O169      1.0  0.37860  0.41492  0.59661  1.0000
  O   O170      1.0  0.37140  0.33508  0.59661  1.0000
  O   O171      1.0  0.37140  0.41492  0.15339  1.0000
  O   O172      1.0  0.37860  0.33508  0.15339  1.0000
  O   O173      1.0  0.37860  0.91492  0.09661  1.0000
  O   O174      1.0  0.37140  0.83508  0.09661  1.0000
  O   O175      1.0  0.37140  0.91492  0.65339  1.0000
  O   O176      1.0  0.37860  0.83508  0.65339  1.0000
  O   O177      1.0  0.12140  0.58508  0.90339  1.0000
  O   O178      1.0  0.12860  0.66492  0.90339  1.0000
  O   O179      1.0  0.12860  0.58508  0.34661  1.0000
  O   O180      1.0  0.12140  0.66492  0.34661  1.0000
  O   O181      1.0  0.12140  0.08508  0.40339  1.0000
  O   O182      1.0  0.12860  0.16492  0.40339  1.0000
  O   O183      1.0  0.12860  0.08508  0.84661  1.0000
  O   O184      1.0  0.12140  0.16492  0.84661  1.0000
  O   O185      1.0  0.62140  0.58508  0.40339  1.0000
  O   O186      1.0  0.62860  0.66492  0.40339  1.0000
  O   O187      1.0  0.62860  0.58508  0.84661  1.0000
  O   O188      1.0  0.62140  0.66492  0.84661  1.0000
  O   O189      1.0  0.62140  0.08508  0.90339  1.0000
  O   O190      1.0  0.62860  0.16492  0.90339  1.0000
  O   O191      1.0  0.62860  0.08508  0.34661  1.0000
  O   O192      1.0  0.62140  0.16492  0.34661  1.0000
  O   O193      1.0  0.68850  0.59369  0.91165  1.0000
  O   O194      1.0  0.06150  0.15631  0.91165  1.0000
  O   O195      1.0  0.06150  0.59369  0.83835  1.0000
  O   O196      1.0  0.68850  0.15631  0.83835  1.0000
  O   O197      1.0  0.68850  0.09369  0.41165  1.0000
  O   O198      1.0  0.06150  0.65631  0.41165  1.0000
  O   O199      1.0  0.06150  0.09369  0.33835  1.0000
  O   O200      1.0  0.68850  0.65631  0.33835  1.0000
  O   O201      1.0  0.18850  0.59369  0.41165  1.0000
  O   O202      1.0  0.56150  0.15631  0.41165  1.0000
  O   O203      1.0  0.56150  0.59369  0.33835  1.0000
  O   O204      1.0  0.18850  0.15631  0.33835  1.0000
  O   O205      1.0  0.18850  0.09369  0.91165  1.0000
  O   O206      1.0  0.56150  0.65631  0.91165  1.0000
  O   O207      1.0  0.56150  0.09369  0.83835  1.0000
  O   O208      1.0  0.18850  0.65631  0.83835  1.0000
  O   O209      1.0  0.31150  0.40631  0.08835  1.0000
  O   O210      1.0  0.93850  0.84369  0.08835  1.0000
  O   O211      1.0  0.93850  0.40631  0.16165  1.0000
  O   O212      1.0  0.31150  0.84369  0.16165  1.0000
  O   O213      1.0  0.31150  0.90631  0.58835  1.0000
  O   O214      1.0  0.93850  0.34369  0.58835  1.0000
  O   O215      1.0  0.93850  0.90631  0.66165  1.0000
  O   O216      1.0  0.31150  0.34369  0.66165  1.0000
  O   O217      1.0  0.81150  0.40631  0.58835  1.0000
  O   O218      1.0  0.43850  0.84369  0.58835  1.0000
  O   O219      1.0  0.43850  0.40631  0.66165  1.0000
  O   O220      1.0  0.81150  0.84369  0.66165  1.0000
  O   O221      1.0  0.81150  0.90631  0.08835  1.0000
  O   O222      1.0  0.43850  0.34369  0.08835  1.0000
  O   O223      1.0  0.43850  0.90631  0.16165  1.0000
  O   O224      1.0  0.81150  0.34369  0.16165  1.0000
  O   O225      1.0  0.60420  0.58543  0.93014  1.0000
  O   O226      1.0  0.14580  0.16457  0.93014  1.0000
  O   O227      1.0  0.14580  0.58543  0.81986  1.0000
  O   O228      1.0  0.60420  0.16457  0.81986  1.0000
  O   O229      1.0  0.60420  0.08543  0.43014  1.0000
  O   O230      1.0  0.14580  0.66457  0.43014  1.0000
  O   O231      1.0  0.14580  0.08543  0.31986  1.0000
  O   O232      1.0  0.60420  0.66457  0.31986  1.0000
  O   O233      1.0  0.10420  0.58543  0.43014  1.0000
  O   O234      1.0  0.64580  0.16457  0.43014  1.0000
  O   O235      1.0  0.64580  0.58543  0.31986  1.0000
  O   O236      1.0  0.10420  0.16457  0.31986  1.0000
  O   O237      1.0  0.10420  0.08543  0.93014  1.0000
  O   O238      1.0  0.64580  0.66457  0.93014  1.0000
  O   O239      1.0  0.64580  0.08543  0.81986  1.0000
  O   O240      1.0  0.10420  0.66457  0.81986  1.0000
  O   O241      1.0  0.39580  0.41457  0.06986  1.0000
  O   O242      1.0  0.85420  0.83543  0.06986  1.0000
  O   O243      1.0  0.85420  0.41457  0.18014  1.0000
  O   O244      1.0  0.39580  0.83543  0.18014  1.0000
  O   O245      1.0  0.39580  0.91457  0.56986  1.0000
  O   O246      1.0  0.85420  0.33543  0.56986  1.0000
  O   O247      1.0  0.85420  0.91457  0.68014  1.0000
  O   O248      1.0  0.39580  0.33543  0.68014  1.0000
  O   O249      1.0  0.89580  0.41457  0.56986  1.0000
  O   O250      1.0  0.35420  0.83543  0.56986  1.0000
  O   O251      1.0  0.35420  0.41457  0.68014  1.0000
  O   O252      1.0  0.89580  0.83543  0.68014  1.0000
  O   O253      1.0  0.89580  0.91457  0.06986  1.0000
  O   O254      1.0  0.35420  0.33543  0.06986  1.0000
  O   O255      1.0  0.35420  0.91457  0.18014  1.0000
  O   O256      1.0  0.89580  0.33543  0.18014  1.0000
  C   C449      1.0  0.82660  0.41697  0.09579  1.0000
  C   C450      1.0  0.92340  0.33303  0.09579  1.0000
  C   C451      1.0  0.92340  0.41697  0.65421  1.0000
  C   C452      1.0  0.82660  0.33303  0.65421  1.0000
  C   C453      1.0  0.82660  0.91697  0.59579  1.0000
  C   C454      1.0  0.92340  0.83303  0.59579  1.0000
  C   C455      1.0  0.92340  0.91697  0.15421  1.0000
  C   C456      1.0  0.82660  0.83303  0.15421  1.0000
  C   C457      1.0  0.32660  0.41697  0.59579  1.0000
  C   C458      1.0  0.42340  0.33303  0.59579  1.0000
  C   C459      1.0  0.42340  0.41697  0.15421  1.0000
  C   C460      1.0  0.32660  0.33303  0.15421  1.0000
  C   C461      1.0  0.32660  0.91697  0.09579  1.0000
  C   C462      1.0  0.42340  0.83303  0.09579  1.0000
  C   C463      1.0  0.42340  0.91697  0.65421  1.0000
  C   C464      1.0  0.32660  0.83303  0.65421  1.0000
  C   C465      1.0  0.17340  0.58303  0.90421  1.0000
  C   C466      1.0  0.07660  0.66697  0.90421  1.0000
  C   C467      1.0  0.07660  0.58303  0.34579  1.0000
  C   C468      1.0  0.17340  0.66697  0.34579  1.0000
  C   C469      1.0  0.17340  0.08303  0.40421  1.0000
  C   C470      1.0  0.07660  0.16697  0.40421  1.0000
  C   C471      1.0  0.07660  0.08303  0.84579  1.0000
  C   C472      1.0  0.17340  0.16697  0.84579  1.0000
  C   C473      1.0  0.67340  0.58303  0.40421  1.0000
  C   C474      1.0  0.57660  0.66697  0.40421  1.0000
  C   C475      1.0  0.57660  0.58303  0.84579  1.0000
  C   C476      1.0  0.67340  0.66697  0.84579  1.0000
  C   C477      1.0  0.67340  0.08303  0.90421  1.0000
  C   C478      1.0  0.57660  0.16697  0.90421  1.0000
  C   C479      1.0  0.57660  0.08303  0.34579  1.0000
  C   C480      1.0  0.67340  0.16697  0.34579  1.0000
  C   C481      1.0  0.79750  0.44099  0.07183  1.0000
  C   C482      1.0  0.95250  0.30901  0.07183  1.0000
  C   C483      1.0  0.95250  0.44099  0.67817  1.0000
  C   C484      1.0  0.79750  0.30901  0.67817  1.0000
  C   C485      1.0  0.79750  0.94099  0.57183  1.0000
  C   C486      1.0  0.95250  0.80901  0.57183  1.0000
  C   C487      1.0  0.95250  0.94099  0.17817  1.0000
  C   C488      1.0  0.79750  0.80901  0.17817  1.0000
  C   C489      1.0  0.29750  0.44099  0.57183  1.0000
  C   C490      1.0  0.45250  0.30901  0.57183  1.0000
  C   C491      1.0  0.45250  0.44099  0.17817  1.0000
  C   C492      1.0  0.29750  0.30901  0.17817  1.0000
  C   C493      1.0  0.29750  0.94099  0.07183  1.0000
  C   C494      1.0  0.45250  0.80901  0.07183  1.0000
  C   C495      1.0  0.45250  0.94099  0.67817  1.0000
  C   C496      1.0  0.29750  0.80901  0.67817  1.0000
  C   C497      1.0  0.20250  0.55901  0.92817  1.0000
  C   C498      1.0  0.04750  0.69099  0.92817  1.0000
  C   C499      1.0  0.04750  0.55901  0.32183  1.0000
  C   C500      1.0  0.20250  0.69099  0.32183  1.0000
  C   C501      1.0  0.20250  0.05901  0.42817  1.0000
  C   C502      1.0  0.04750  0.19099  0.42817  1.0000
  C   C503      1.0  0.04750  0.05901  0.82183  1.0000
  C   C504      1.0  0.20250  0.19099  0.82183  1.0000
  C   C505      1.0  0.70250  0.55901  0.42817  1.0000
  C   C506      1.0  0.54750  0.69099  0.42817  1.0000
  C   C507      1.0  0.54750  0.55901  0.82183  1.0000
  C   C508      1.0  0.70250  0.69099  0.82183  1.0000
  C   C509      1.0  0.70250  0.05901  0.92817  1.0000
  C   C510      1.0  0.54750  0.19099  0.92817  1.0000
  C   C511      1.0  0.54750  0.05901  0.32183  1.0000
  C   C512      1.0  0.70250  0.19099  0.32183  1.0000
  C   C513      1.0  0.74100  0.44095  0.06614  1.0000
  C   C514      1.0  0.00900  0.30905  0.06614  1.0000
  C   C515      1.0  0.00900  0.44095  0.68386  1.0000
  C   C516      1.0  0.74100  0.30905  0.68386  1.0000
  C   C517      1.0  0.74100  0.94095  0.56614  1.0000
  C   C518      1.0  0.00900  0.80905  0.56614  1.0000
  C   C519      1.0  0.00900  0.94095  0.18386  1.0000
  C   C520      1.0  0.74100  0.80905  0.18386  1.0000
  C   C521      1.0  0.24100  0.44095  0.56614  1.0000
  C   C522      1.0  0.50900  0.30905  0.56614  1.0000
  C   C523      1.0  0.50900  0.44095  0.18386  1.0000
  C   C524      1.0  0.24100  0.30905  0.18386  1.0000
  C   C525      1.0  0.24100  0.94095  0.06614  1.0000
  C   C526      1.0  0.50900  0.80905  0.06614  1.0000
  C   C527      1.0  0.50900  0.94095  0.68386  1.0000
  C   C528      1.0  0.24100  0.80905  0.68386  1.0000
  C   C529      1.0  0.25900  0.55905  0.93386  1.0000
  C   C530      1.0  0.99100  0.69095  0.93386  1.0000
  C   C531      1.0  0.99100  0.55905  0.31614  1.0000
  C   C532      1.0  0.25900  0.69095  0.31614  1.0000
  C   C533      1.0  0.25900  0.05905  0.43386  1.0000
  C   C534      1.0  0.99100  0.19095  0.43386  1.0000
  C   C535      1.0  0.99100  0.05905  0.81614  1.0000
  C   C536      1.0  0.25900  0.19095  0.81614  1.0000
  C   C537      1.0  0.75900  0.55905  0.43386  1.0000
  C   C538      1.0  0.49100  0.69095  0.43386  1.0000
  C   C539      1.0  0.49100  0.55905  0.81614  1.0000
  C   C540      1.0  0.75900  0.69095  0.81614  1.0000
  C   C541      1.0  0.75900  0.05905  0.93386  1.0000
  C   C542      1.0  0.49100  0.19095  0.93386  1.0000
  C   C543      1.0  0.49100  0.05905  0.31614  1.0000
  C   C544      1.0  0.75900  0.19095  0.31614  1.0000
  H   H257      1.0  0.71830  0.42600  0.07790  1.0000
  H   H258      1.0  0.03170  0.32400  0.07790  1.0000
  H   H259      1.0  0.03170  0.42600  0.67210  1.0000
  H   H260      1.0  0.71830  0.32400  0.67210  1.0000
  H   H261      1.0  0.71830  0.92600  0.57790  1.0000
  H   H262      1.0  0.03170  0.82400  0.57790  1.0000
  H   H263      1.0  0.03170  0.92600  0.17210  1.0000
  H   H264      1.0  0.71830  0.82400  0.17210  1.0000
  H   H265      1.0  0.21830  0.42600  0.57790  1.0000
  H   H266      1.0  0.53170  0.32400  0.57790  1.0000
  H   H267      1.0  0.53170  0.42600  0.17210  1.0000
  H   H268      1.0  0.21830  0.32400  0.17210  1.0000
  H   H269      1.0  0.21830  0.92600  0.07790  1.0000
  H   H270      1.0  0.53170  0.82400  0.07790  1.0000
  H   H271      1.0  0.53170  0.92600  0.67210  1.0000
  H   H272      1.0  0.21830  0.82400  0.67210  1.0000
  H   H273      1.0  0.28170  0.57400  0.92210  1.0000
  H   H274      1.0  0.96830  0.67600  0.92210  1.0000
  H   H275      1.0  0.96830  0.57400  0.32790  1.0000
  H   H276      1.0  0.28170  0.67600  0.32790  1.0000
  H   H277      1.0  0.28170  0.07400  0.42210  1.0000
  H   H278      1.0  0.96830  0.17600  0.42210  1.0000
  H   H279      1.0  0.96830  0.07400  0.82790  1.0000
  H   H280      1.0  0.28170  0.17600  0.82790  1.0000
  H   H281      1.0  0.78170  0.57400  0.42210  1.0000
  H   H282      1.0  0.46830  0.67600  0.42210  1.0000
  H   H283      1.0  0.46830  0.57400  0.82790  1.0000
  H   H284      1.0  0.78170  0.67600  0.82790  1.0000
  H   H285      1.0  0.78170  0.07400  0.92210  1.0000
  H   H286      1.0  0.46830  0.17600  0.92210  1.0000
  H   H287      1.0  0.46830  0.07400  0.32790  1.0000
  H   H288      1.0  0.78170  0.17600  0.32790  1.0000
  C   C545      1.0  0.71680  0.46220  0.04380  1.0000
  C   C546      1.0  0.03320  0.28780  0.04380  1.0000
  C   C547      1.0  0.03320  0.46220  0.70620  1.0000
  C   C548      1.0  0.71680  0.28780  0.70620  1.0000
  C   C549      1.0  0.71680  0.96220  0.54380  1.0000
  C   C550      1.0  0.03320  0.78780  0.54380  1.0000
  C   C551      1.0  0.03320  0.96220  0.20620  1.0000
  C   C552      1.0  0.71680  0.78780  0.20620  1.0000
  C   C553      1.0  0.21680  0.46220  0.54380  1.0000
  C   C554      1.0  0.53320  0.28780  0.54380  1.0000
  C   C555      1.0  0.53320  0.46220  0.20620  1.0000
  C   C556      1.0  0.21680  0.28780  0.20620  1.0000
  C   C557      1.0  0.21680  0.96220  0.04380  1.0000
  C   C558      1.0  0.53320  0.78780  0.04380  1.0000
  C   C559      1.0  0.53320  0.96220  0.70620  1.0000
  C   C560      1.0  0.21680  0.78780  0.70620  1.0000
  C   C561      1.0  0.28320  0.53780  0.95620  1.0000
  C   C562      1.0  0.96680  0.71220  0.95620  1.0000
  C   C563      1.0  0.96680  0.53780  0.29380  1.0000
  C   C564      1.0  0.28320  0.71220  0.29380  1.0000
  C   C565      1.0  0.28320  0.03780  0.45620  1.0000
  C   C566      1.0  0.96680  0.21220  0.45620  1.0000
  C   C567      1.0  0.96680  0.03780  0.79380  1.0000
  C   C568      1.0  0.28320  0.21220  0.79380  1.0000
  C   C569      1.0  0.78320  0.53780  0.45620  1.0000
  C   C570      1.0  0.46680  0.71220  0.45620  1.0000
  C   C571      1.0  0.46680  0.53780  0.79380  1.0000
  C   C572      1.0  0.78320  0.71220  0.79380  1.0000
  C   C573      1.0  0.78320  0.03780  0.95620  1.0000
  C   C574      1.0  0.46680  0.21220  0.95620  1.0000
  C   C575      1.0  0.46680  0.03780  0.29380  1.0000
  C   C576      1.0  0.78320  0.21220  0.29380  1.0000
  H   H289      1.0  0.67820  0.46140  0.04010  1.0000
  H   H290      1.0  0.07180  0.28860  0.04010  1.0000
  H   H291      1.0  0.07180  0.46140  0.70990  1.0000
  H   H292      1.0  0.67820  0.28860  0.70990  1.0000
  H   H293      1.0  0.67820  0.96140  0.54010  1.0000
  H   H294      1.0  0.07180  0.78860  0.54010  1.0000
  H   H295      1.0  0.07180  0.96140  0.20990  1.0000
  H   H296      1.0  0.67820  0.78860  0.20990  1.0000
  H   H297      1.0  0.17820  0.46140  0.54010  1.0000
  H   H298      1.0  0.57180  0.28860  0.54010  1.0000
  H   H299      1.0  0.57180  0.46140  0.20990  1.0000
  H   H300      1.0  0.17820  0.28860  0.20990  1.0000
  H   H301      1.0  0.17820  0.96140  0.04010  1.0000
  H   H302      1.0  0.57180  0.78860  0.04010  1.0000
  H   H303      1.0  0.57180  0.96140  0.70990  1.0000
  H   H304      1.0  0.17820  0.78860  0.70990  1.0000
  H   H305      1.0  0.32180  0.53860  0.95990  1.0000
  H   H306      1.0  0.92820  0.71140  0.95990  1.0000
  H   H307      1.0  0.92820  0.53860  0.29010  1.0000
  H   H308      1.0  0.32180  0.71140  0.29010  1.0000
  H   H309      1.0  0.32180  0.03860  0.45990  1.0000
  H   H310      1.0  0.92820  0.21140  0.45990  1.0000
  H   H311      1.0  0.92820  0.03860  0.79010  1.0000
  H   H312      1.0  0.32180  0.21140  0.79010  1.0000
  H   H313      1.0  0.82180  0.53860  0.45990  1.0000
  H   H314      1.0  0.42820  0.71140  0.45990  1.0000
  H   H315      1.0  0.42820  0.53860  0.79010  1.0000
  H   H316      1.0  0.82180  0.71140  0.79010  1.0000
  H   H317      1.0  0.82180  0.03860  0.95990  1.0000
  H   H318      1.0  0.42820  0.21140  0.95990  1.0000
  H   H319      1.0  0.42820  0.03860  0.29010  1.0000
  H   H320      1.0  0.82180  0.21140  0.29010  1.0000
  C   C577      1.0  0.75020  0.48515  0.02628  1.0000
  C   C578      1.0  0.99980  0.26485  0.02628  1.0000
  C   C579      1.0  0.99980  0.48515  0.72372  1.0000
  C   C580      1.0  0.75020  0.26485  0.72372  1.0000
  C   C581      1.0  0.75020  0.98515  0.52628  1.0000
  C   C582      1.0  0.99980  0.76485  0.52628  1.0000
  C   C583      1.0  0.99980  0.98515  0.22372  1.0000
  C   C584      1.0  0.75020  0.76485  0.22372  1.0000
  C   C585      1.0  0.25020  0.48515  0.52628  1.0000
  C   C586      1.0  0.49980  0.26485  0.52628  1.0000
  C   C587      1.0  0.49980  0.48515  0.22372  1.0000
  C   C588      1.0  0.25020  0.26485  0.22372  1.0000
  C   C589      1.0  0.25020  0.98515  0.02628  1.0000
  C   C590      1.0  0.49980  0.76485  0.02628  1.0000
  C   C591      1.0  0.49980  0.98515  0.72372  1.0000
  C   C592      1.0  0.25020  0.76485  0.72372  1.0000
  C   C593      1.0  0.24980  0.51485  0.97372  1.0000
  C   C594      1.0  0.00020  0.73515  0.97372  1.0000
  C   C595      1.0  0.00020  0.51485  0.27628  1.0000
  C   C596      1.0  0.24980  0.73515  0.27628  1.0000
  C   C597      1.0  0.24980  0.01485  0.47372  1.0000
  C   C598      1.0  0.00020  0.23515  0.47372  1.0000
  C   C599      1.0  0.00020  0.01485  0.77628  1.0000
  C   C600      1.0  0.24980  0.23515  0.77628  1.0000
  C   C601      1.0  0.74980  0.51485  0.47372  1.0000
  C   C602      1.0  0.50020  0.73515  0.47372  1.0000
  C   C603      1.0  0.50020  0.51485  0.77628  1.0000
  C   C604      1.0  0.74980  0.73515  0.77628  1.0000
  C   C605      1.0  0.74980  0.01485  0.97372  1.0000
  C   C606      1.0  0.50020  0.23515  0.97372  1.0000
  C   C607      1.0  0.50020  0.01485  0.27628  1.0000
  C   C608      1.0  0.74980  0.23515  0.27628  1.0000
  C   C609      1.0  0.80830  0.48480  0.03110  1.0000
  C   C610      1.0  0.94170  0.26520  0.03110  1.0000
  C   C611      1.0  0.94170  0.48480  0.71890  1.0000
  C   C612      1.0  0.80830  0.26520  0.71890  1.0000
  C   C613      1.0  0.80830  0.98480  0.53110  1.0000
  C   C614      1.0  0.94170  0.76520  0.53110  1.0000
  C   C615      1.0  0.94170  0.98480  0.21890  1.0000
  C   C616      1.0  0.80830  0.76520  0.21890  1.0000
  C   C617      1.0  0.30830  0.48480  0.53110  1.0000
  C   C618      1.0  0.44170  0.26520  0.53110  1.0000
  C   C619      1.0  0.44170  0.48480  0.21890  1.0000
  C   C620      1.0  0.30830  0.26520  0.21890  1.0000
  C   C621      1.0  0.30830  0.98480  0.03110  1.0000
  C   C622      1.0  0.44170  0.76520  0.03110  1.0000
  C   C623      1.0  0.44170  0.98480  0.71890  1.0000
  C   C624      1.0  0.30830  0.76520  0.71890  1.0000
  C   C625      1.0  0.19170  0.51520  0.96890  1.0000
  C   C626      1.0  0.05830  0.73480  0.96890  1.0000
  C   C627      1.0  0.05830  0.51520  0.28110  1.0000
  C   C628      1.0  0.19170  0.73480  0.28110  1.0000
  C   C629      1.0  0.19170  0.01520  0.46890  1.0000
  C   C630      1.0  0.05830  0.23480  0.46890  1.0000
  C   C631      1.0  0.05830  0.01520  0.78110  1.0000
  C   C632      1.0  0.19170  0.23480  0.78110  1.0000
  C   C633      1.0  0.69170  0.51520  0.46890  1.0000
  C   C634      1.0  0.55830  0.73480  0.46890  1.0000
  C   C635      1.0  0.55830  0.51520  0.78110  1.0000
  C   C636      1.0  0.69170  0.73480  0.78110  1.0000
  C   C637      1.0  0.69170  0.01520  0.96890  1.0000
  C   C638      1.0  0.55830  0.23480  0.96890  1.0000
  C   C639      1.0  0.55830  0.01520  0.28110  1.0000
  C   C640      1.0  0.69170  0.23480  0.28110  1.0000
  H   H321      1.0  0.83150  0.49890  0.01870  1.0000
  H   H322      1.0  0.91850  0.25110  0.01870  1.0000
  H   H323      1.0  0.91850  0.49890  0.73130  1.0000
  H   H324      1.0  0.83150  0.25110  0.73130  1.0000
  H   H325      1.0  0.83150  0.99890  0.51870  1.0000
  H   H326      1.0  0.91850  0.75110  0.51870  1.0000
  H   H327      1.0  0.91850  0.99890  0.23130  1.0000
  H   H328      1.0  0.83150  0.75110  0.23130  1.0000
  H   H329      1.0  0.33150  0.49890  0.51870  1.0000
  H   H330      1.0  0.41850  0.25110  0.51870  1.0000
  H   H331      1.0  0.41850  0.49890  0.23130  1.0000
  H   H332      1.0  0.33150  0.25110  0.23130  1.0000
  H   H333      1.0  0.33150  0.99890  0.01870  1.0000
  H   H334      1.0  0.41850  0.75110  0.01870  1.0000
  H   H335      1.0  0.41850  0.99890  0.73130  1.0000
  H   H336      1.0  0.33150  0.75110  0.73130  1.0000
  H   H337      1.0  0.16850  0.50110  0.98130  1.0000
  H   H338      1.0  0.08150  0.74890  0.98130  1.0000
  H   H339      1.0  0.08150  0.50110  0.26870  1.0000
  H   H340      1.0  0.16850  0.74890  0.26870  1.0000
  H   H341      1.0  0.16850  0.00110  0.48130  1.0000
  H   H342      1.0  0.08150  0.24890  0.48130  1.0000
  H   H343      1.0  0.08150  0.00110  0.76870  1.0000
  H   H344      1.0  0.16850  0.24890  0.76870  1.0000
  H   H345      1.0  0.66850  0.50110  0.48130  1.0000
  H   H346      1.0  0.58150  0.74890  0.48130  1.0000
  H   H347      1.0  0.58150  0.50110  0.76870  1.0000
  H   H348      1.0  0.66850  0.74890  0.76870  1.0000
  H   H349      1.0  0.66850  0.00110  0.98130  1.0000
  H   H350      1.0  0.58150  0.24890  0.98130  1.0000
  H   H351      1.0  0.58150  0.00110  0.26870  1.0000
  H   H352      1.0  0.66850  0.24890  0.26870  1.0000
  C   C641      1.0  0.83060  0.46390  0.05380  1.0000
  C   C642      1.0  0.91940  0.28610  0.05380  1.0000
  C   C643      1.0  0.91940  0.46390  0.69620  1.0000
  C   C644      1.0  0.83060  0.28610  0.69620  1.0000
  C   C645      1.0  0.83060  0.96390  0.55380  1.0000
  C   C646      1.0  0.91940  0.78610  0.55380  1.0000
  C   C647      1.0  0.91940  0.96390  0.19620  1.0000
  C   C648      1.0  0.83060  0.78610  0.19620  1.0000
  C   C649      1.0  0.33060  0.46390  0.55380  1.0000
  C   C650      1.0  0.41940  0.28610  0.55380  1.0000
  C   C651      1.0  0.41940  0.46390  0.19620  1.0000
  C   C652      1.0  0.33060  0.28610  0.19620  1.0000
  C   C653      1.0  0.33060  0.96390  0.05380  1.0000
  C   C654      1.0  0.41940  0.78610  0.05380  1.0000
  C   C655      1.0  0.41940  0.96390  0.69620  1.0000
  C   C656      1.0  0.33060  0.78610  0.69620  1.0000
  C   C657      1.0  0.16940  0.53610  0.94620  1.0000
  C   C658      1.0  0.08060  0.71390  0.94620  1.0000
  C   C659      1.0  0.08060  0.53610  0.30380  1.0000
  C   C660      1.0  0.16940  0.71390  0.30380  1.0000
  C   C661      1.0  0.16940  0.03610  0.44620  1.0000
  C   C662      1.0  0.08060  0.21390  0.44620  1.0000
  C   C663      1.0  0.08060  0.03610  0.80380  1.0000
  C   C664      1.0  0.16940  0.21390  0.80380  1.0000
  C   C665      1.0  0.66940  0.53610  0.44620  1.0000
  C   C666      1.0  0.58060  0.71390  0.44620  1.0000
  C   C667      1.0  0.58060  0.53610  0.80380  1.0000
  C   C668      1.0  0.66940  0.71390  0.80380  1.0000
  C   C669      1.0  0.66940  0.03610  0.94620  1.0000
  C   C670      1.0  0.58060  0.21390  0.94620  1.0000
  C   C671      1.0  0.58060  0.03610  0.30380  1.0000
  C   C672      1.0  0.66940  0.21390  0.30380  1.0000
  H   H353      1.0  0.86910  0.46470  0.05770  1.0000
  H   H354      1.0  0.88090  0.28530  0.05770  1.0000
  H   H355      1.0  0.88090  0.46470  0.69230  1.0000
  H   H356      1.0  0.86910  0.28530  0.69230  1.0000
  H   H357      1.0  0.86910  0.96470  0.55770  1.0000
  H   H358      1.0  0.88090  0.78530  0.55770  1.0000
  H   H359      1.0  0.88090  0.96470  0.19230  1.0000
  H   H360      1.0  0.86910  0.78530  0.19230  1.0000
  H   H361      1.0  0.36910  0.46470  0.55770  1.0000
  H   H362      1.0  0.38090  0.28530  0.55770  1.0000
  H   H363      1.0  0.38090  0.46470  0.19230  1.0000
  H   H364      1.0  0.36910  0.28530  0.19230  1.0000
  H   H365      1.0  0.36910  0.96470  0.05770  1.0000
  H   H366      1.0  0.38090  0.78530  0.05770  1.0000
  H   H367      1.0  0.38090  0.96470  0.69230  1.0000
  H   H368      1.0  0.36910  0.78530  0.69230  1.0000
  H   H369      1.0  0.13090  0.53530  0.94230  1.0000
  H   H370      1.0  0.11910  0.71470  0.94230  1.0000
  H   H371      1.0  0.11910  0.53530  0.30770  1.0000
  H   H372      1.0  0.13090  0.71470  0.30770  1.0000
  H   H373      1.0  0.13090  0.03530  0.44230  1.0000
  H   H374      1.0  0.11910  0.21470  0.44230  1.0000
  H   H375      1.0  0.11910  0.03530  0.80770  1.0000
  H   H376      1.0  0.13090  0.21470  0.80770  1.0000
  H   H377      1.0  0.63090  0.53530  0.44230  1.0000
  H   H378      1.0  0.61910  0.71470  0.44230  1.0000
  H   H379      1.0  0.61910  0.53530  0.80770  1.0000
  H   H380      1.0  0.63090  0.71470  0.80770  1.0000
  H   H381      1.0  0.63090  0.03530  0.94230  1.0000
  H   H382      1.0  0.61910  0.21470  0.94230  1.0000
  H   H383      1.0  0.61910  0.03530  0.30770  1.0000
  H   H384      1.0  0.63090  0.21470  0.30770  1.0000
  C   C673      1.0  0.72510  0.50957  0.00160  1.0000
  C   C674      1.0  0.02490  0.24043  0.00160  1.0000
  C   C675      1.0  0.02490  0.50957  0.74840  1.0000
  C   C676      1.0  0.72510  0.24043  0.74840  1.0000
  C   C677      1.0  0.72510  0.00957  0.50160  1.0000
  C   C678      1.0  0.02490  0.74043  0.50160  1.0000
  C   C679      1.0  0.02490  0.00957  0.24840  1.0000
  C   C680      1.0  0.72510  0.74043  0.24840  1.0000
  C   C681      1.0  0.22510  0.50957  0.50160  1.0000
  C   C682      1.0  0.52490  0.24043  0.50160  1.0000
  C   C683      1.0  0.52490  0.50957  0.24840  1.0000
  C   C684      1.0  0.22510  0.24043  0.24840  1.0000
  C   C685      1.0  0.22510  0.00957  0.00160  1.0000
  C   C686      1.0  0.52490  0.74043  0.00160  1.0000
  C   C687      1.0  0.52490  0.00957  0.74840  1.0000
  C   C688      1.0  0.22510  0.74043  0.74840  1.0000
  C   C689      1.0  0.27490  0.49043  0.99840  1.0000
  C   C690      1.0  0.97510  0.75957  0.99840  1.0000
  C   C691      1.0  0.97510  0.49043  0.25160  1.0000
  C   C692      1.0  0.27490  0.75957  0.25160  1.0000
  C   C693      1.0  0.27490  0.99043  0.49840  1.0000
  C   C694      1.0  0.97510  0.25957  0.49840  1.0000
  C   C695      1.0  0.97510  0.99043  0.75160  1.0000
  C   C696      1.0  0.27490  0.25957  0.75160  1.0000
  C   C697      1.0  0.77490  0.49043  0.49840  1.0000
  C   C698      1.0  0.47510  0.75957  0.49840  1.0000
  C   C699      1.0  0.47510  0.49043  0.75160  1.0000
  C   C700      1.0  0.77490  0.75957  0.75160  1.0000
  C   C701      1.0  0.77490  0.99043  0.99840  1.0000
  C   C702      1.0  0.47510  0.25957  0.99840  1.0000
  C   C703      1.0  0.47510  0.99043  0.25160  1.0000
  C   C704      1.0  0.77490  0.25957  0.25160  1.0000
  C   C705      1.0  0.66860  0.51950  0.00420  1.0000
  C   C706      1.0  0.08140  0.23050  0.00420  1.0000
  C   C707      1.0  0.08140  0.51950  0.74580  1.0000
  C   C708      1.0  0.66860  0.23050  0.74580  1.0000
  C   C709      1.0  0.66860  0.01950  0.50420  1.0000
  C   C710      1.0  0.08140  0.73050  0.50420  1.0000
  C   C711      1.0  0.08140  0.01950  0.24580  1.0000
  C   C712      1.0  0.66860  0.73050  0.24580  1.0000
  C   C713      1.0  0.16860  0.51950  0.50420  1.0000
  C   C714      1.0  0.58140  0.23050  0.50420  1.0000
  C   C715      1.0  0.58140  0.51950  0.24580  1.0000
  C   C716      1.0  0.16860  0.23050  0.24580  1.0000
  C   C717      1.0  0.16860  0.01950  0.00420  1.0000
  C   C718      1.0  0.58140  0.73050  0.00420  1.0000
  C   C719      1.0  0.58140  0.01950  0.74580  1.0000
  C   C720      1.0  0.16860  0.73050  0.74580  1.0000
  C   C721      1.0  0.33140  0.48050  0.99580  1.0000
  C   C722      1.0  0.91860  0.76950  0.99580  1.0000
  C   C723      1.0  0.91860  0.48050  0.25420  1.0000
  C   C724      1.0  0.33140  0.76950  0.25420  1.0000
  C   C725      1.0  0.33140  0.98050  0.49580  1.0000
  C   C726      1.0  0.91860  0.26950  0.49580  1.0000
  C   C727      1.0  0.91860  0.98050  0.75420  1.0000
  C   C728      1.0  0.33140  0.26950  0.75420  1.0000
  C   C729      1.0  0.83140  0.48050  0.49580  1.0000
  C   C730      1.0  0.41860  0.76950  0.49580  1.0000
  C   C731      1.0  0.41860  0.48050  0.75420  1.0000
  C   C732      1.0  0.83140  0.76950  0.75420  1.0000
  C   C733      1.0  0.83140  0.98050  0.99580  1.0000
  C   C734      1.0  0.41860  0.26950  0.99580  1.0000
  C   C735      1.0  0.41860  0.98050  0.25420  1.0000
  C   C736      1.0  0.83140  0.26950  0.25420  1.0000
  H   H385      1.0  0.64610  0.51200  0.02160  1.0000
  H   H386      1.0  0.10390  0.23800  0.02160  1.0000
  H   H387      1.0  0.10390  0.51200  0.72840  1.0000
  H   H388      1.0  0.64610  0.23800  0.72840  1.0000
  H   H389      1.0  0.64610  0.01200  0.52160  1.0000
  H   H390      1.0  0.10390  0.73800  0.52160  1.0000
  H   H391      1.0  0.10390  0.01200  0.22840  1.0000
  H   H392      1.0  0.64610  0.73800  0.22840  1.0000
  H   H393      1.0  0.14610  0.51200  0.52160  1.0000
  H   H394      1.0  0.60390  0.23800  0.52160  1.0000
  H   H395      1.0  0.60390  0.51200  0.22840  1.0000
  H   H396      1.0  0.14610  0.23800  0.22840  1.0000
  H   H397      1.0  0.14610  0.01200  0.02160  1.0000
  H   H398      1.0  0.60390  0.73800  0.02160  1.0000
  H   H399      1.0  0.60390  0.01200  0.72840  1.0000
  H   H400      1.0  0.14610  0.73800  0.72840  1.0000
  H   H401      1.0  0.35390  0.48800  0.97840  1.0000
  H   H402      1.0  0.89610  0.76200  0.97840  1.0000
  H   H403      1.0  0.89610  0.48800  0.27160  1.0000
  H   H404      1.0  0.35390  0.76200  0.27160  1.0000
  H   H405      1.0  0.35390  0.98800  0.47840  1.0000
  H   H406      1.0  0.89610  0.26200  0.47840  1.0000
  H   H407      1.0  0.89610  0.98800  0.77160  1.0000
  H   H408      1.0  0.35390  0.26200  0.77160  1.0000
  H   H409      1.0  0.85390  0.48800  0.47840  1.0000
  H   H410      1.0  0.39610  0.76200  0.47840  1.0000
  H   H411      1.0  0.39610  0.48800  0.77160  1.0000
  H   H412      1.0  0.85390  0.76200  0.77160  1.0000
  H   H413      1.0  0.85390  0.98800  0.97840  1.0000
  H   H414      1.0  0.39610  0.26200  0.97840  1.0000
  H   H415      1.0  0.39610  0.98800  0.27160  1.0000
  H   H416      1.0  0.85390  0.26200  0.27160  1.0000
  C   C737      1.0  0.64710  0.54130  0.97950  1.0000
  C   C738      1.0  0.10290  0.20870  0.97950  1.0000
  C   C739      1.0  0.10290  0.54130  0.77050  1.0000
  C   C740      1.0  0.64710  0.20870  0.77050  1.0000
  C   C741      1.0  0.64710  0.04130  0.47950  1.0000
  C   C742      1.0  0.10290  0.70870  0.47950  1.0000
  C   C743      1.0  0.10290  0.04130  0.27050  1.0000
  C   C744      1.0  0.64710  0.70870  0.27050  1.0000
  C   C745      1.0  0.14710  0.54130  0.47950  1.0000
  C   C746      1.0  0.60290  0.20870  0.47950  1.0000
  C   C747      1.0  0.60290  0.54130  0.27050  1.0000
  C   C748      1.0  0.14710  0.20870  0.27050  1.0000
  C   C749      1.0  0.14710  0.04130  0.97950  1.0000
  C   C750      1.0  0.60290  0.70870  0.97950  1.0000
  C   C751      1.0  0.60290  0.04130  0.77050  1.0000
  C   C752      1.0  0.14710  0.70870  0.77050  1.0000
  C   C753      1.0  0.35290  0.45870  0.02050  1.0000
  C   C754      1.0  0.89710  0.79130  0.02050  1.0000
  C   C755      1.0  0.89710  0.45870  0.22950  1.0000
  C   C756      1.0  0.35290  0.79130  0.22950  1.0000
  C   C757      1.0  0.35290  0.95870  0.52050  1.0000
  C   C758      1.0  0.89710  0.29130  0.52050  1.0000
  C   C759      1.0  0.89710  0.95870  0.72950  1.0000
  C   C760      1.0  0.35290  0.29130  0.72950  1.0000
  C   C761      1.0  0.85290  0.45870  0.52050  1.0000
  C   C762      1.0  0.39710  0.79130  0.52050  1.0000
  C   C763      1.0  0.39710  0.45870  0.72950  1.0000
  C   C764      1.0  0.85290  0.79130  0.72950  1.0000
  C   C765      1.0  0.85290  0.95870  0.02050  1.0000
  C   C766      1.0  0.39710  0.29130  0.02050  1.0000
  C   C767      1.0  0.39710  0.95870  0.22950  1.0000
  C   C768      1.0  0.85290  0.29130  0.22950  1.0000
  H   H417      1.0  0.60900  0.54680  0.97990  1.0000
  H   H418      1.0  0.14100  0.20320  0.97990  1.0000
  H   H419      1.0  0.14100  0.54680  0.77010  1.0000
  H   H420      1.0  0.60900  0.20320  0.77010  1.0000
  H   H421      1.0  0.60900  0.04680  0.47990  1.0000
  H   H422      1.0  0.14100  0.70320  0.47990  1.0000
  H   H423      1.0  0.14100  0.04680  0.27010  1.0000
  H   H424      1.0  0.60900  0.70320  0.27010  1.0000
  H   H425      1.0  0.10900  0.54680  0.47990  1.0000
  H   H426      1.0  0.64100  0.20320  0.47990  1.0000
  H   H427      1.0  0.64100  0.54680  0.27010  1.0000
  H   H428      1.0  0.10900  0.20320  0.27010  1.0000
  H   H429      1.0  0.10900  0.04680  0.97990  1.0000
  H   H430      1.0  0.64100  0.70320  0.97990  1.0000
  H   H431      1.0  0.64100  0.04680  0.77010  1.0000
  H   H432      1.0  0.10900  0.70320  0.77010  1.0000
  H   H433      1.0  0.39100  0.45320  0.02010  1.0000
  H   H434      1.0  0.85900  0.79680  0.02010  1.0000
  H   H435      1.0  0.85900  0.45320  0.22990  1.0000
  H   H436      1.0  0.39100  0.79680  0.22990  1.0000
  H   H437      1.0  0.39100  0.95320  0.52010  1.0000
  H   H438      1.0  0.85900  0.29680  0.52010  1.0000
  H   H439      1.0  0.85900  0.95320  0.72990  1.0000
  H   H440      1.0  0.39100  0.29680  0.72990  1.0000
  H   H441      1.0  0.89100  0.45320  0.52010  1.0000
  H   H442      1.0  0.35900  0.79680  0.52010  1.0000
  H   H443      1.0  0.35900  0.45320  0.72990  1.0000
  H   H444      1.0  0.89100  0.79680  0.72990  1.0000
  H   H445      1.0  0.89100  0.95320  0.02010  1.0000
  H   H446      1.0  0.35900  0.29680  0.02010  1.0000
  H   H447      1.0  0.35900  0.95320  0.22990  1.0000
  H   H448      1.0  0.89100  0.29680  0.22990  1.0000
  C   C769      1.0  0.68070  0.55490  0.95446  1.0000
  C   C770      1.0  0.06930  0.19510  0.95446  1.0000
  C   C771      1.0  0.06930  0.55490  0.79554  1.0000
  C   C772      1.0  0.68070  0.19510  0.79554  1.0000
  C   C773      1.0  0.68070  0.05490  0.45446  1.0000
  C   C774      1.0  0.06930  0.69510  0.45446  1.0000
  C   C775      1.0  0.06930  0.05490  0.29554  1.0000
  C   C776      1.0  0.68070  0.69510  0.29554  1.0000
  C   C777      1.0  0.18070  0.55490  0.45446  1.0000
  C   C778      1.0  0.56930  0.19510  0.45446  1.0000
  C   C779      1.0  0.56930  0.55490  0.29554  1.0000
  C   C780      1.0  0.18070  0.19510  0.29554  1.0000
  C   C781      1.0  0.18070  0.05490  0.95446  1.0000
  C   C782      1.0  0.56930  0.69510  0.95446  1.0000
  C   C783      1.0  0.56930  0.05490  0.79554  1.0000
  C   C784      1.0  0.18070  0.69510  0.79554  1.0000
  C   C785      1.0  0.31930  0.44510  0.04554  1.0000
  C   C786      1.0  0.93070  0.80490  0.04554  1.0000
  C   C787      1.0  0.93070  0.44510  0.20446  1.0000
  C   C788      1.0  0.31930  0.80490  0.20446  1.0000
  C   C789      1.0  0.31930  0.94510  0.54554  1.0000
  C   C790      1.0  0.93070  0.30490  0.54554  1.0000
  C   C791      1.0  0.93070  0.94510  0.70446  1.0000
  C   C792      1.0  0.31930  0.30490  0.70446  1.0000
  C   C793      1.0  0.81930  0.44510  0.54554  1.0000
  C   C794      1.0  0.43070  0.80490  0.54554  1.0000
  C   C795      1.0  0.43070  0.44510  0.70446  1.0000
  C   C796      1.0  0.81930  0.80490  0.70446  1.0000
  C   C797      1.0  0.81930  0.94510  0.04554  1.0000
  C   C798      1.0  0.43070  0.30490  0.04554  1.0000
  C   C799      1.0  0.43070  0.94510  0.20446  1.0000
  C   C800      1.0  0.81930  0.30490  0.20446  1.0000
  C   C801      1.0  0.73390  0.54414  0.95346  1.0000
  C   C802      1.0  0.01610  0.20586  0.95346  1.0000
  C   C803      1.0  0.01610  0.54414  0.79654  1.0000
  C   C804      1.0  0.73390  0.20586  0.79654  1.0000
  C   C805      1.0  0.73390  0.04414  0.45346  1.0000
  C   C806      1.0  0.01610  0.70586  0.45346  1.0000
  C   C807      1.0  0.01610  0.04414  0.29654  1.0000
  C   C808      1.0  0.73390  0.70586  0.29654  1.0000
  C   C809      1.0  0.23390  0.54414  0.45346  1.0000
  C   C810      1.0  0.51610  0.20586  0.45346  1.0000
  C   C811      1.0  0.51610  0.54414  0.29654  1.0000
  C   C812      1.0  0.23390  0.20586  0.29654  1.0000
  C   C813      1.0  0.23390  0.04414  0.95346  1.0000
  C   C814      1.0  0.51610  0.70586  0.95346  1.0000
  C   C815      1.0  0.51610  0.04414  0.79654  1.0000
  C   C816      1.0  0.23390  0.70586  0.79654  1.0000
  C   C817      1.0  0.26610  0.45586  0.04654  1.0000
  C   C818      1.0  0.98390  0.79414  0.04654  1.0000
  C   C819      1.0  0.98390  0.45586  0.20346  1.0000
  C   C820      1.0  0.26610  0.79414  0.20346  1.0000
  C   C821      1.0  0.26610  0.95586  0.54654  1.0000
  C   C822      1.0  0.98390  0.29414  0.54654  1.0000
  C   C823      1.0  0.98390  0.95586  0.70346  1.0000
  C   C824      1.0  0.26610  0.29414  0.70346  1.0000
  C   C825      1.0  0.76610  0.45586  0.54654  1.0000
  C   C826      1.0  0.48390  0.79414  0.54654  1.0000
  C   C827      1.0  0.48390  0.45586  0.70346  1.0000
  C   C828      1.0  0.76610  0.79414  0.70346  1.0000
  C   C829      1.0  0.76610  0.95586  0.04654  1.0000
  C   C830      1.0  0.48390  0.29414  0.04654  1.0000
  C   C831      1.0  0.48390  0.95586  0.20346  1.0000
  C   C832      1.0  0.76610  0.29414  0.20346  1.0000
  H   H449      1.0  0.75660  0.55240  0.93660  1.0000
  H   H450      1.0  0.99340  0.19760  0.93660  1.0000
  H   H451      1.0  0.99340  0.55240  0.81340  1.0000
  H   H452      1.0  0.75660  0.19760  0.81340  1.0000
  H   H453      1.0  0.75660  0.05240  0.43660  1.0000
  H   H454      1.0  0.99340  0.69760  0.43660  1.0000
  H   H455      1.0  0.99340  0.05240  0.31340  1.0000
  H   H456      1.0  0.75660  0.69760  0.31340  1.0000
  H   H457      1.0  0.25660  0.55240  0.43660  1.0000
  H   H458      1.0  0.49340  0.19760  0.43660  1.0000
  H   H459      1.0  0.49340  0.55240  0.31340  1.0000
  H   H460      1.0  0.25660  0.19760  0.31340  1.0000
  H   H461      1.0  0.25660  0.05240  0.93660  1.0000
  H   H462      1.0  0.49340  0.69760  0.93660  1.0000
  H   H463      1.0  0.49340  0.05240  0.81340  1.0000
  H   H464      1.0  0.25660  0.69760  0.81340  1.0000
  H   H465      1.0  0.24340  0.44760  0.06340  1.0000
  H   H466      1.0  0.00660  0.80240  0.06340  1.0000
  H   H467      1.0  0.00660  0.44760  0.18660  1.0000
  H   H468      1.0  0.24340  0.80240  0.18660  1.0000
  H   H469      1.0  0.24340  0.94760  0.56340  1.0000
  H   H470      1.0  0.00660  0.30240  0.56340  1.0000
  H   H471      1.0  0.00660  0.94760  0.68660  1.0000
  H   H472      1.0  0.24340  0.30240  0.68660  1.0000
  H   H473      1.0  0.74340  0.44760  0.56340  1.0000
  H   H474      1.0  0.50660  0.80240  0.56340  1.0000
  H   H475      1.0  0.50660  0.44760  0.68660  1.0000
  H   H476      1.0  0.74340  0.80240  0.68660  1.0000
  H   H477      1.0  0.74340  0.94760  0.06340  1.0000
  H   H478      1.0  0.50660  0.30240  0.06340  1.0000
  H   H479      1.0  0.50660  0.94760  0.18660  1.0000
  H   H480      1.0  0.74340  0.30240  0.18660  1.0000
  C   C833      1.0  0.75780  0.52174  0.97533  1.0000
  C   C834      1.0  0.99220  0.22826  0.97533  1.0000
  C   C835      1.0  0.99220  0.52174  0.77467  1.0000
  C   C836      1.0  0.75780  0.22826  0.77467  1.0000
  C   C837      1.0  0.75780  0.02174  0.47533  1.0000
  C   C838      1.0  0.99220  0.72826  0.47533  1.0000
  C   C839      1.0  0.99220  0.02174  0.27467  1.0000
  C   C840      1.0  0.75780  0.72826  0.27467  1.0000
  C   C841      1.0  0.25780  0.52174  0.47533  1.0000
  C   C842      1.0  0.49220  0.22826  0.47533  1.0000
  C   C843      1.0  0.49220  0.52174  0.27467  1.0000
  C   C844      1.0  0.25780  0.22826  0.27467  1.0000
  C   C845      1.0  0.25780  0.02174  0.97533  1.0000
  C   C846      1.0  0.49220  0.72826  0.97533  1.0000
  C   C847      1.0  0.49220  0.02174  0.77467  1.0000
  C   C848      1.0  0.25780  0.72826  0.77467  1.0000
  C   C849      1.0  0.24220  0.47826  0.02467  1.0000
  C   C850      1.0  0.00780  0.77174  0.02467  1.0000
  C   C851      1.0  0.00780  0.47826  0.22533  1.0000
  C   C852      1.0  0.24220  0.77174  0.22533  1.0000
  C   C853      1.0  0.24220  0.97826  0.52467  1.0000
  C   C854      1.0  0.00780  0.27174  0.52467  1.0000
  C   C855      1.0  0.00780  0.97826  0.72533  1.0000
  C   C856      1.0  0.24220  0.27174  0.72533  1.0000
  C   C857      1.0  0.74220  0.47826  0.52467  1.0000
  C   C858      1.0  0.50780  0.77174  0.52467  1.0000
  C   C859      1.0  0.50780  0.47826  0.72533  1.0000
  C   C860      1.0  0.74220  0.77174  0.72533  1.0000
  C   C861      1.0  0.74220  0.97826  0.02467  1.0000
  C   C862      1.0  0.50780  0.27174  0.02467  1.0000
  C   C863      1.0  0.50780  0.97826  0.22533  1.0000
  C   C864      1.0  0.74220  0.27174  0.22533  1.0000
  H   H481      1.0  0.79490  0.51480  0.97280  1.0000
  H   H482      1.0  0.95510  0.23520  0.97280  1.0000
  H   H483      1.0  0.95510  0.51480  0.77720  1.0000
  H   H484      1.0  0.79490  0.23520  0.77720  1.0000
  H   H485      1.0  0.79490  0.01480  0.47280  1.0000
  H   H486      1.0  0.95510  0.73520  0.47280  1.0000
  H   H487      1.0  0.95510  0.01480  0.27720  1.0000
  H   H488      1.0  0.79490  0.73520  0.27720  1.0000
  H   H489      1.0  0.29490  0.51480  0.47280  1.0000
  H   H490      1.0  0.45510  0.23520  0.47280  1.0000
  H   H491      1.0  0.45510  0.51480  0.27720  1.0000
  H   H492      1.0  0.29490  0.23520  0.27720  1.0000
  H   H493      1.0  0.29490  0.01480  0.97280  1.0000
  H   H494      1.0  0.45510  0.73520  0.97280  1.0000
  H   H495      1.0  0.45510  0.01480  0.77720  1.0000
  H   H496      1.0  0.29490  0.73520  0.77720  1.0000
  H   H497      1.0  0.20510  0.48520  0.02720  1.0000
  H   H498      1.0  0.04490  0.76480  0.02720  1.0000
  H   H499      1.0  0.04490  0.48520  0.22280  1.0000
  H   H500      1.0  0.20510  0.76480  0.22280  1.0000
  H   H501      1.0  0.20510  0.98520  0.52720  1.0000
  H   H502      1.0  0.04490  0.26480  0.52720  1.0000
  H   H503      1.0  0.04490  0.98520  0.72280  1.0000
  H   H504      1.0  0.20510  0.26480  0.72280  1.0000
  H   H505      1.0  0.70510  0.48520  0.52720  1.0000
  H   H506      1.0  0.54490  0.76480  0.52720  1.0000
  H   H507      1.0  0.54490  0.48520  0.72280  1.0000
  H   H508      1.0  0.70510  0.76480  0.72280  1.0000
  H   H509      1.0  0.70510  0.98520  0.02720  1.0000
  H   H510      1.0  0.54490  0.26480  0.02720  1.0000
  H   H511      1.0  0.54490  0.98520  0.22280  1.0000
  H   H512      1.0  0.70510  0.26480  0.22280  1.0000
  C   C865      1.0  0.65350  0.57928  0.93145  1.0000
  C   C866      1.0  0.09650  0.17072  0.93145  1.0000
  C   C867      1.0  0.09650  0.57928  0.81855  1.0000
  C   C868      1.0  0.65350  0.17072  0.81855  1.0000
  C   C869      1.0  0.65350  0.07928  0.43145  1.0000
  C   C870      1.0  0.09650  0.67072  0.43145  1.0000
  C   C871      1.0  0.09650  0.07928  0.31855  1.0000
  C   C872      1.0  0.65350  0.67072  0.31855  1.0000
  C   C873      1.0  0.15350  0.57928  0.43145  1.0000
  C   C874      1.0  0.59650  0.17072  0.43145  1.0000
  C   C875      1.0  0.59650  0.57928  0.31855  1.0000
  C   C876      1.0  0.15350  0.17072  0.31855  1.0000
  C   C877      1.0  0.15350  0.07928  0.93145  1.0000
  C   C878      1.0  0.59650  0.67072  0.93145  1.0000
  C   C879      1.0  0.59650  0.07928  0.81855  1.0000
  C   C880      1.0  0.15350  0.67072  0.81855  1.0000
  C   C881      1.0  0.34650  0.42072  0.06855  1.0000
  C   C882      1.0  0.90350  0.82928  0.06855  1.0000
  C   C883      1.0  0.90350  0.42072  0.18145  1.0000
  C   C884      1.0  0.34650  0.82928  0.18145  1.0000
  C   C885      1.0  0.34650  0.92072  0.56855  1.0000
  C   C886      1.0  0.90350  0.32928  0.56855  1.0000
  C   C887      1.0  0.90350  0.92072  0.68145  1.0000
  C   C888      1.0  0.34650  0.32928  0.68145  1.0000
  C   C889      1.0  0.84650  0.42072  0.56855  1.0000
  C   C890      1.0  0.40350  0.82928  0.56855  1.0000
  C   C891      1.0  0.40350  0.42072  0.68145  1.0000
  C   C892      1.0  0.84650  0.82928  0.68145  1.0000
  C   C893      1.0  0.84650  0.92072  0.06855  1.0000
  C   C894      1.0  0.40350  0.32928  0.06855  1.0000
  C   C895      1.0  0.40350  0.92072  0.18145  1.0000
  C   C896      1.0  0.84650  0.32928  0.18145  1.0000
