data_image0
_chemical_formula_structural       In4O32C24H8C8H8C16H8C8H8C16H8C8H8C16H8C8H8C8
_chemical_formula_sum              "In4 O32 C112 H64"
_cell_length_a       12.251
_cell_length_b       18.631
_cell_length_c       20.976
_cell_angle_alpha    90
_cell_angle_beta     90
_cell_angle_gamma    90

_space_group_name_H-M_alt    "P 1"
_space_group_IT_number       1

loop_
  _space_group_symop_operation_xyz
  'x, y, z'

loop_
  _atom_site_type_symbol
  _atom_site_label
  _atom_site_symmetry_multiplicity
  _atom_site_fract_x
  _atom_site_fract_y
  _atom_site_fract_z
  _atom_site_occupancy
  In  In1       1.0  0.75000  0.00000  0.37340  1.0000
  In  In2       1.0  0.75000  0.50000  0.12660  1.0000
  In  In3       1.0  0.25000  0.00000  0.62660  1.0000
  In  In4       1.0  0.25000  0.50000  0.87340  1.0000
  O   O1        1.0  0.88720  0.04705  0.43260  1.0000
  O   O2        1.0  0.61280  0.95295  0.43260  1.0000
  O   O3        1.0  0.61280  0.54705  0.06740  1.0000
  O   O4        1.0  0.88720  0.45295  0.06740  1.0000
  O   O5        1.0  0.11280  0.95295  0.56740  1.0000
  O   O6        1.0  0.38720  0.04705  0.56740  1.0000
  O   O7        1.0  0.38720  0.45295  0.93260  1.0000
  O   O8        1.0  0.11280  0.54705  0.93260  1.0000
  O   O9        1.0  0.72250  0.08140  0.45590  1.0000
  O   O10       1.0  0.77750  0.91860  0.45590  1.0000
  O   O11       1.0  0.77750  0.58140  0.04410  1.0000
  O   O12       1.0  0.72250  0.41860  0.04410  1.0000
  O   O13       1.0  0.27750  0.91860  0.54410  1.0000
  O   O14       1.0  0.22250  0.08140  0.54410  1.0000
  O   O15       1.0  0.22250  0.41860  0.95590  1.0000
  O   O16       1.0  0.27750  0.58140  0.95590  1.0000
  O   O17       1.0  0.10600  0.45780  0.81440  1.0000
  O   O18       1.0  0.39400  0.54220  0.81440  1.0000
  O   O19       1.0  0.39400  0.95780  0.68560  1.0000
  O   O20       1.0  0.10600  0.04220  0.68560  1.0000
  O   O21       1.0  0.89400  0.54220  0.18560  1.0000
  O   O22       1.0  0.60600  0.45780  0.18560  1.0000
  O   O23       1.0  0.60600  0.04220  0.31440  1.0000
  O   O24       1.0  0.89400  0.95780  0.31440  1.0000
  O   O25       1.0  0.26650  0.42000  0.78880  1.0000
  O   O26       1.0  0.23350  0.58000  0.78880  1.0000
  O   O27       1.0  0.23350  0.92000  0.71120  1.0000
  O   O28       1.0  0.26650  0.08000  0.71120  1.0000
  O   O29       1.0  0.73350  0.58000  0.21120  1.0000
  O   O30       1.0  0.76650  0.42000  0.21120  1.0000
  O   O31       1.0  0.76650  0.08000  0.28880  1.0000
  O   O32       1.0  0.73350  0.92000  0.28880  1.0000
  C   C1        1.0  0.82390  0.08450  0.46560  1.0000
  C   C2        1.0  0.67610  0.91550  0.46560  1.0000
  C   C3        1.0  0.67610  0.58450  0.03440  1.0000
  C   C4        1.0  0.82390  0.41550  0.03440  1.0000
  C   C5        1.0  0.17610  0.91550  0.53440  1.0000
  C   C6        1.0  0.32390  0.08450  0.53440  1.0000
  C   C7        1.0  0.32390  0.41550  0.96560  1.0000
  C   C8        1.0  0.17610  0.58450  0.96560  1.0000
  C   C9        1.0  0.87110  0.13230  0.51510  1.0000
  C   C10       1.0  0.62890  0.86770  0.51510  1.0000
  C   C11       1.0  0.62890  0.63230  0.98490  1.0000
  C   C12       1.0  0.87110  0.36770  0.98490  1.0000
  C   C13       1.0  0.12890  0.86770  0.48490  1.0000
  C   C14       1.0  0.37110  0.13230  0.48490  1.0000
  C   C15       1.0  0.37110  0.36770  0.01510  1.0000
  C   C16       1.0  0.12890  0.63230  0.01510  1.0000
  C   C17       1.0  0.97750  0.12550  0.54030  1.0000
  C   C18       1.0  0.52250  0.87450  0.54030  1.0000
  C   C19       1.0  0.52250  0.62550  0.95970  1.0000
  C   C20       1.0  0.97750  0.37450  0.95970  1.0000
  C   C21       1.0  0.02250  0.87450  0.45970  1.0000
  C   C22       1.0  0.47750  0.12550  0.45970  1.0000
  C   C23       1.0  0.47750  0.37450  0.04030  1.0000
  C   C24       1.0  0.02250  0.62550  0.04030  1.0000
  H   H1        1.0  0.01970  0.08710  0.52650  1.0000
  H   H2        1.0  0.48030  0.91290  0.52650  1.0000
  H   H3        1.0  0.48030  0.58710  0.97350  1.0000
  H   H4        1.0  0.01970  0.41290  0.97350  1.0000
  H   H5        1.0  0.98030  0.91290  0.47350  1.0000
  H   H6        1.0  0.51970  0.08710  0.47350  1.0000
  H   H7        1.0  0.51970  0.41290  0.02650  1.0000
  H   H8        1.0  0.98030  0.58710  0.02650  1.0000
  C   C25       1.0  0.02280  0.17160  0.58390  1.0000
  C   C26       1.0  0.47720  0.82840  0.58390  1.0000
  C   C27       1.0  0.47720  0.67160  0.91610  1.0000
  C   C28       1.0  0.02280  0.32840  0.91610  1.0000
  C   C29       1.0  0.97720  0.82840  0.41610  1.0000
  C   C30       1.0  0.52280  0.17160  0.41610  1.0000
  C   C31       1.0  0.52280  0.32840  0.08390  1.0000
  C   C32       1.0  0.97720  0.67160  0.08390  1.0000
  H   H9        1.0  0.09250  0.16370  0.60000  1.0000
  H   H10       1.0  0.40750  0.83630  0.60000  1.0000
  H   H11       1.0  0.40750  0.66370  0.90000  1.0000
  H   H12       1.0  0.09250  0.33630  0.90000  1.0000
  H   H13       1.0  0.90750  0.83630  0.40000  1.0000
  H   H14       1.0  0.59250  0.16370  0.40000  1.0000
  H   H15       1.0  0.59250  0.33630  0.10000  1.0000
  H   H16       1.0  0.90750  0.66370  0.10000  1.0000
  C   C33       1.0  0.96570  0.22650  0.60200  1.0000
  C   C34       1.0  0.53430  0.77350  0.60200  1.0000
  C   C35       1.0  0.53430  0.72650  0.89800  1.0000
  C   C36       1.0  0.96570  0.27350  0.89800  1.0000
  C   C37       1.0  0.03430  0.77350  0.39800  1.0000
  C   C38       1.0  0.46570  0.22650  0.39800  1.0000
  C   C39       1.0  0.46570  0.27350  0.10200  1.0000
  C   C40       1.0  0.03430  0.72650  0.10200  1.0000
  C   C41       1.0  0.85930  0.23360  0.57640  1.0000
  C   C42       1.0  0.64070  0.76640  0.57640  1.0000
  C   C43       1.0  0.64070  0.73360  0.92360  1.0000
  C   C44       1.0  0.85930  0.26640  0.92360  1.0000
  C   C45       1.0  0.14070  0.76640  0.42360  1.0000
  C   C46       1.0  0.35930  0.23360  0.42360  1.0000
  C   C47       1.0  0.35930  0.26640  0.07640  1.0000
  C   C48       1.0  0.14070  0.73360  0.07640  1.0000
  H   H17       1.0  0.81830  0.27310  0.58900  1.0000
  H   H18       1.0  0.68170  0.72690  0.58900  1.0000
  H   H19       1.0  0.68170  0.77310  0.91100  1.0000
  H   H20       1.0  0.81830  0.22690  0.91100  1.0000
  H   H21       1.0  0.18170  0.72690  0.41100  1.0000
  H   H22       1.0  0.31830  0.27310  0.41100  1.0000
  H   H23       1.0  0.31830  0.22690  0.08900  1.0000
  H   H24       1.0  0.18170  0.77310  0.08900  1.0000
  C   C49       1.0  0.81210  0.18650  0.53440  1.0000
  C   C50       1.0  0.68790  0.81350  0.53440  1.0000
  C   C51       1.0  0.68790  0.68650  0.96560  1.0000
  C   C52       1.0  0.81210  0.31350  0.96560  1.0000
  C   C53       1.0  0.18790  0.81350  0.46560  1.0000
  C   C54       1.0  0.31210  0.18650  0.46560  1.0000
  C   C55       1.0  0.31210  0.31350  0.03440  1.0000
  C   C56       1.0  0.18790  0.68650  0.03440  1.0000
  H   H25       1.0  0.74090  0.19290  0.52020  1.0000
  H   H26       1.0  0.75910  0.80710  0.52020  1.0000
  H   H27       1.0  0.75910  0.69290  0.97980  1.0000
  H   H28       1.0  0.74090  0.30710  0.97980  1.0000
  H   H29       1.0  0.25910  0.80710  0.47980  1.0000
  H   H30       1.0  0.24090  0.19290  0.47980  1.0000
  H   H31       1.0  0.24090  0.30710  0.02020  1.0000
  H   H32       1.0  0.25910  0.69290  0.02020  1.0000
  C   C57       1.0  0.01610  0.27670  0.64760  1.0000
  C   C58       1.0  0.48390  0.72330  0.64760  1.0000
  C   C59       1.0  0.48390  0.77670  0.85240  1.0000
  C   C60       1.0  0.01610  0.22330  0.85240  1.0000
  C   C61       1.0  0.98390  0.72330  0.35240  1.0000
  C   C62       1.0  0.51610  0.27670  0.35240  1.0000
  C   C63       1.0  0.51610  0.22330  0.14760  1.0000
  C   C64       1.0  0.98390  0.77670  0.14760  1.0000
  C   C65       1.0  0.12980  0.28570  0.64760  1.0000
  C   C66       1.0  0.37020  0.71430  0.64760  1.0000
  C   C67       1.0  0.37020  0.78570  0.85240  1.0000
  C   C68       1.0  0.12980  0.21430  0.85240  1.0000
  C   C69       1.0  0.87020  0.71430  0.35240  1.0000
  C   C70       1.0  0.62980  0.28570  0.35240  1.0000
  C   C71       1.0  0.62980  0.21430  0.14760  1.0000
  C   C72       1.0  0.87020  0.78570  0.14760  1.0000
  H   H33       1.0  0.17260  0.26110  0.61820  1.0000
  H   H34       1.0  0.32740  0.73890  0.61820  1.0000
  H   H35       1.0  0.32740  0.76110  0.88180  1.0000
  H   H36       1.0  0.17260  0.23890  0.88180  1.0000
  H   H37       1.0  0.82740  0.73890  0.38180  1.0000
  H   H38       1.0  0.67260  0.26110  0.38180  1.0000
  H   H39       1.0  0.67260  0.23890  0.11820  1.0000
  H   H40       1.0  0.82740  0.76110  0.11820  1.0000
  C   C73       1.0  0.17750  0.33100  0.69110  1.0000
  C   C74       1.0  0.32250  0.66900  0.69110  1.0000
  C   C75       1.0  0.32250  0.83100  0.80890  1.0000
  C   C76       1.0  0.17750  0.16900  0.80890  1.0000
  C   C77       1.0  0.82250  0.66900  0.30890  1.0000
  C   C78       1.0  0.67750  0.33100  0.30890  1.0000
  C   C79       1.0  0.67750  0.16900  0.19110  1.0000
  C   C80       1.0  0.82250  0.83100  0.19110  1.0000
  H   H41       1.0  0.25320  0.33510  0.69260  1.0000
  H   H42       1.0  0.24680  0.66490  0.69260  1.0000
  H   H43       1.0  0.24680  0.83510  0.80740  1.0000
  H   H44       1.0  0.25320  0.16490  0.80740  1.0000
  H   H45       1.0  0.74680  0.66490  0.30740  1.0000
  H   H46       1.0  0.75320  0.33510  0.30740  1.0000
  H   H47       1.0  0.75320  0.16490  0.19260  1.0000
  H   H48       1.0  0.74680  0.83510  0.19260  1.0000
  C   C81       1.0  0.11460  0.37030  0.73260  1.0000
  C   C82       1.0  0.38540  0.62970  0.73260  1.0000
  C   C83       1.0  0.38540  0.87030  0.76740  1.0000
  C   C84       1.0  0.11460  0.12970  0.76740  1.0000
  C   C85       1.0  0.88540  0.62970  0.26740  1.0000
  C   C86       1.0  0.61460  0.37030  0.26740  1.0000
  C   C87       1.0  0.61460  0.12970  0.23260  1.0000
  C   C88       1.0  0.88540  0.87030  0.23260  1.0000
  C   C89       1.0  0.00340  0.36300  0.73250  1.0000
  C   C90       1.0  0.49660  0.63700  0.73250  1.0000
  C   C91       1.0  0.49660  0.86300  0.76750  1.0000
  C   C92       1.0  0.00340  0.13700  0.76750  1.0000
  C   C93       1.0  0.99660  0.63700  0.26750  1.0000
  C   C94       1.0  0.50340  0.36300  0.26750  1.0000
  C   C95       1.0  0.50340  0.13700  0.23250  1.0000
  C   C96       1.0  0.99660  0.86300  0.23250  1.0000
  H   H49       1.0  0.96140  0.38950  0.76090  1.0000
  H   H50       1.0  0.53860  0.61050  0.76090  1.0000
  H   H51       1.0  0.53860  0.88950  0.73910  1.0000
  H   H52       1.0  0.96140  0.11050  0.73910  1.0000
  H   H53       1.0  0.03860  0.61050  0.23910  1.0000
  H   H54       1.0  0.46140  0.38950  0.23910  1.0000
  H   H55       1.0  0.46140  0.11050  0.26090  1.0000
  H   H56       1.0  0.03860  0.88950  0.26090  1.0000
  C   C97       1.0  0.95300  0.31640  0.69020  1.0000
  C   C98       1.0  0.54700  0.68360  0.69020  1.0000
  C   C99       1.0  0.54700  0.81640  0.80980  1.0000
  C   C100      1.0  0.95300  0.18360  0.80980  1.0000
  C   C101      1.0  0.04700  0.68360  0.30980  1.0000
  C   C102      1.0  0.45300  0.31640  0.30980  1.0000
  C   C103      1.0  0.45300  0.18360  0.19020  1.0000
  C   C104      1.0  0.04700  0.81640  0.19020  1.0000
  H   H57       1.0  0.87740  0.31160  0.69020  1.0000
  H   H58       1.0  0.62260  0.68840  0.69020  1.0000
  H   H59       1.0  0.62260  0.81160  0.80980  1.0000
  H   H60       1.0  0.87740  0.18840  0.80980  1.0000
  H   H61       1.0  0.12260  0.68840  0.30980  1.0000
  H   H62       1.0  0.37740  0.31160  0.30980  1.0000
  H   H63       1.0  0.37740  0.18840  0.19020  1.0000
  H   H64       1.0  0.12260  0.81160  0.19020  1.0000
  C   C105      1.0  0.16520  0.41930  0.78080  1.0000
  C   C106      1.0  0.33480  0.58070  0.78080  1.0000
  C   C107      1.0  0.33480  0.91930  0.71920  1.0000
  C   C108      1.0  0.16520  0.08070  0.71920  1.0000
  C   C109      1.0  0.83480  0.58070  0.21920  1.0000
  C   C110      1.0  0.66520  0.41930  0.21920  1.0000
  C   C111      1.0  0.66520  0.08070  0.28080  1.0000
  C   C112      1.0  0.83480  0.91930  0.28080  1.0000
