data_image0
_chemical_formula_structural       U4O32C4H4C4H8C4H4C4H8C4H4C4H8C12
_chemical_formula_sum              "U4 O32 C36 H36"
_cell_length_a       9.9284
_cell_length_b       15.5092
_cell_length_c       14.8738
_cell_angle_alpha    90
_cell_angle_beta     91.299
_cell_angle_gamma    90

_space_group_name_H-M_alt    "P 1"
_space_group_IT_number       1

loop_
  _space_group_symop_operation_xyz
  'x, y, z'

loop_
  _atom_site_type_symbol
  _atom_site_label
  _atom_site_symmetry_multiplicity
  _atom_site_fract_x
  _atom_site_fract_y
  _atom_site_fract_z
  _atom_site_occupancy
  U   U1        1.0  0.80329  0.67964  0.08072  1.0000
  U   U2        1.0  0.69671  0.17964  0.41928  1.0000
  U   U3        1.0  0.19671  0.32036  0.91928  1.0000
  U   U4        1.0  0.30329  0.82036  0.58072  1.0000
  O   O1        1.0  0.77830  0.76940  0.00670  1.0000
  O   O2        1.0  0.72170  0.26940  0.49330  1.0000
  O   O3        1.0  0.22170  0.23060  0.99330  1.0000
  O   O4        1.0  0.27830  0.73060  0.50670  1.0000
  O   O5        1.0  0.82640  0.59180  0.15630  1.0000
  O   O6        1.0  0.67360  0.09180  0.34370  1.0000
  O   O7        1.0  0.17360  0.40820  0.84370  1.0000
  O   O8        1.0  0.32640  0.90820  0.65630  1.0000
  O   O9        1.0  0.55640  0.65340  0.08570  1.0000
  O   O10       1.0  0.94360  0.15340  0.41430  1.0000
  O   O11       1.0  0.44360  0.34660  0.91430  1.0000
  O   O12       1.0  0.05640  0.84660  0.58570  1.0000
  O   O13       1.0  0.66390  0.59640  0.97430  1.0000
  O   O14       1.0  0.83610  0.09640  0.52570  1.0000
  O   O15       1.0  0.33610  0.40360  0.02570  1.0000
  O   O16       1.0  0.16390  0.90360  0.47430  1.0000
  O   O17       1.0  0.93400  0.60260  0.96870  1.0000
  O   O18       1.0  0.56600  0.10260  0.53130  1.0000
  O   O19       1.0  0.06600  0.39740  0.03130  1.0000
  O   O20       1.0  0.43400  0.89740  0.46870  1.0000
  O   O21       1.0  0.04970  0.68220  0.06280  1.0000
  O   O22       1.0  0.45030  0.18220  0.43720  1.0000
  O   O23       1.0  0.95030  0.31780  0.93720  1.0000
  O   O24       1.0  0.54970  0.81780  0.56280  1.0000
  O   O25       1.0  0.41470  0.71840  0.68790  1.0000
  O   O26       1.0  0.08530  0.21840  0.81210  1.0000
  O   O27       1.0  0.58530  0.28160  0.31210  1.0000
  O   O28       1.0  0.91470  0.78160  0.18790  1.0000
  O   O29       1.0  0.19860  0.74110  0.70180  1.0000
  O   O30       1.0  0.30140  0.24110  0.79820  1.0000
  O   O31       1.0  0.80140  0.25890  0.29820  1.0000
  O   O32       1.0  0.69860  0.75890  0.20180  1.0000
  C   C1        1.0  0.42680  0.60710  0.95530  1.0000
  C   C2        1.0  0.07320  0.10710  0.54470  1.0000
  C   C3        1.0  0.57320  0.39290  0.04470  1.0000
  C   C4        1.0  0.92680  0.89290  0.45530  1.0000
  H   H1        1.0  0.42370  0.54600  0.93370  1.0000
  H   H2        1.0  0.07630  0.04600  0.56630  1.0000
  H   H3        1.0  0.57630  0.45400  0.06630  1.0000
  H   H4        1.0  0.92370  0.95400  0.43370  1.0000
  C   C5        1.0  0.29920  0.62370  0.00910  1.0000
  C   C6        1.0  0.20080  0.12370  0.49090  1.0000
  C   C7        1.0  0.70080  0.37630  0.99090  1.0000
  C   C8        1.0  0.79920  0.87630  0.50910  1.0000
  H   H5        1.0  0.29800  0.68440  0.02970  1.0000
  H   H6        1.0  0.20200  0.18440  0.47030  1.0000
  H   H7        1.0  0.70200  0.31560  0.97030  1.0000
  H   H8        1.0  0.79800  0.81560  0.52970  1.0000
  H   H9        1.0  0.29920  0.58600  0.06280  1.0000
  H   H10       1.0  0.20080  0.08600  0.43720  1.0000
  H   H11       1.0  0.70080  0.41400  0.93720  1.0000
  H   H12       1.0  0.79920  0.91400  0.56280  1.0000
  C   C9        1.0  0.17180  0.60520  0.94920  1.0000
  C   C10       1.0  0.32820  0.10520  0.55080  1.0000
  C   C11       1.0  0.82820  0.39480  0.05080  1.0000
  C   C12       1.0  0.67180  0.89480  0.44920  1.0000
  H   H13       1.0  0.16770  0.54230  0.93440  1.0000
  H   H14       1.0  0.33230  0.04230  0.56560  1.0000
  H   H15       1.0  0.83230  0.45770  0.06560  1.0000
  H   H16       1.0  0.66770  0.95770  0.43440  1.0000
  C   C13       1.0  0.17380  0.65800  0.86200  1.0000
  C   C14       1.0  0.32620  0.15800  0.63800  1.0000
  C   C15       1.0  0.82620  0.34200  0.13800  1.0000
  C   C16       1.0  0.67380  0.84200  0.36200  1.0000
  H   H17       1.0  0.09730  0.64010  0.82240  1.0000
  H   H18       1.0  0.40270  0.14010  0.67760  1.0000
  H   H19       1.0  0.90270  0.35990  0.17760  1.0000
  H   H20       1.0  0.59730  0.85990  0.32240  1.0000
  H   H21       1.0  0.16160  0.71980  0.87660  1.0000
  H   H22       1.0  0.33840  0.21980  0.62340  1.0000
  H   H23       1.0  0.83840  0.28020  0.12340  1.0000
  H   H24       1.0  0.66160  0.78020  0.37660  1.0000
  C   C17       1.0  0.30500  0.64690  0.81150  1.0000
  C   C18       1.0  0.19500  0.14690  0.68850  1.0000
  C   C19       1.0  0.69500  0.35310  0.18850  1.0000
  C   C20       1.0  0.80500  0.85310  0.31150  1.0000
  H   H25       1.0  0.31070  0.58560  0.79100  1.0000
  H   H26       1.0  0.18930  0.08560  0.70900  1.0000
  H   H27       1.0  0.68930  0.41440  0.20900  1.0000
  H   H28       1.0  0.81070  0.91440  0.29100  1.0000
  C   C21       1.0  0.42930  0.66630  0.87210  1.0000
  C   C22       1.0  0.07070  0.16630  0.62790  1.0000
  C   C23       1.0  0.57070  0.33370  0.12790  1.0000
  C   C24       1.0  0.92930  0.83370  0.37210  1.0000
  H   H29       1.0  0.42820  0.72740  0.89110  1.0000
  H   H30       1.0  0.07180  0.22740  0.60890  1.0000
  H   H31       1.0  0.57180  0.27260  0.10890  1.0000
  H   H32       1.0  0.92820  0.77260  0.39110  1.0000
  H   H33       1.0  0.51270  0.65600  0.83830  1.0000
  H   H34       1.0  0.98730  0.15600  0.66170  1.0000
  H   H35       1.0  0.48730  0.34400  0.16170  1.0000
  H   H36       1.0  0.01270  0.84400  0.33830  1.0000
  C   C25       1.0  0.55590  0.61910  0.00900  1.0000
  C   C26       1.0  0.94410  0.11910  0.49100  1.0000
  C   C27       1.0  0.44410  0.38090  0.99100  1.0000
  C   C28       1.0  0.05590  0.88090  0.50900  1.0000
  C   C29       1.0  0.04590  0.63110  0.99570  1.0000
  C   C30       1.0  0.45410  0.13110  0.50430  1.0000
  C   C31       1.0  0.95410  0.36890  0.00430  1.0000
  C   C32       1.0  0.54590  0.86890  0.49570  1.0000
  C   C33       1.0  0.30670  0.70370  0.73020  1.0000
  C   C34       1.0  0.19330  0.20370  0.76980  1.0000
  C   C35       1.0  0.69330  0.29630  0.26980  1.0000
  C   C36       1.0  0.80670  0.79630  0.23020  1.0000
