data_image0
_chemical_formula_structural       Zn12O64C24H8C8H8C24H8C8H8C24H8C8H8C24H8C8H8
_chemical_formula_sum              "Zn12 O64 C128 H64"
_cell_length_a       33.6075
_cell_length_b       9.8727
_cell_length_c       18.1642
_cell_angle_alpha    90
_cell_angle_beta     92.226
_cell_angle_gamma    90

_space_group_name_H-M_alt    "P 1"
_space_group_IT_number       1

loop_
  _space_group_symop_operation_xyz
  'x, y, z'

loop_
  _atom_site_type_symbol
  _atom_site_label
  _atom_site_symmetry_multiplicity
  _atom_site_fract_x
  _atom_site_fract_y
  _atom_site_fract_z
  _atom_site_occupancy
  Zn  Zn1       1.0  0.75000  0.25000  0.00000  1.0000
  Zn  Zn2       1.0  0.25000  0.75000  0.00000  1.0000
  Zn  Zn3       1.0  0.25000  0.25000  0.50000  1.0000
  Zn  Zn4       1.0  0.75000  0.75000  0.50000  1.0000
  Zn  Zn5       1.0  0.84693  0.19730  0.00344  1.0000
  Zn  Zn6       1.0  0.34693  0.69730  0.00344  1.0000
  Zn  Zn7       1.0  0.15307  0.19730  0.49656  1.0000
  Zn  Zn8       1.0  0.65307  0.69730  0.49656  1.0000
  Zn  Zn9       1.0  0.15307  0.80270  0.99656  1.0000
  Zn  Zn10      1.0  0.65307  0.30270  0.99656  1.0000
  Zn  Zn11      1.0  0.84693  0.80270  0.50344  1.0000
  Zn  Zn12      1.0  0.34693  0.30270  0.50344  1.0000
  O   O1        1.0  0.78526  0.37480  0.06477  1.0000
  O   O2        1.0  0.28526  0.87480  0.06477  1.0000
  O   O3        1.0  0.21474  0.37480  0.43523  1.0000
  O   O4        1.0  0.71474  0.87480  0.43523  1.0000
  O   O5        1.0  0.21474  0.62520  0.93523  1.0000
  O   O6        1.0  0.71474  0.12520  0.93523  1.0000
  O   O7        1.0  0.78526  0.62520  0.56477  1.0000
  O   O8        1.0  0.28526  0.12520  0.56477  1.0000
  O   O9        1.0  0.84512  0.29290  0.09847  1.0000
  O   O10       1.0  0.34512  0.79290  0.09847  1.0000
  O   O11       1.0  0.15488  0.29290  0.40153  1.0000
  O   O12       1.0  0.65488  0.79290  0.40153  1.0000
  O   O13       1.0  0.15488  0.70710  0.90153  1.0000
  O   O14       1.0  0.65488  0.20710  0.90153  1.0000
  O   O15       1.0  0.84512  0.70710  0.59847  1.0000
  O   O16       1.0  0.34512  0.20710  0.59847  1.0000
  O   O17       1.0  0.77241  0.68250  0.40509  1.0000
  O   O18       1.0  0.27241  0.18250  0.40509  1.0000
  O   O19       1.0  0.22759  0.68250  0.09491  1.0000
  O   O20       1.0  0.72759  0.18250  0.09491  1.0000
  O   O21       1.0  0.22759  0.31750  0.59491  1.0000
  O   O22       1.0  0.72759  0.81750  0.59491  1.0000
  O   O23       1.0  0.77241  0.31750  0.90509  1.0000
  O   O24       1.0  0.27241  0.81750  0.90509  1.0000
  O   O25       1.0  0.83904  0.67770  0.41874  1.0000
  O   O26       1.0  0.33904  0.17770  0.41874  1.0000
  O   O27       1.0  0.16096  0.67770  0.08126  1.0000
  O   O28       1.0  0.66096  0.17770  0.08126  1.0000
  O   O29       1.0  0.16096  0.32230  0.58126  1.0000
  O   O30       1.0  0.66096  0.82230  0.58126  1.0000
  O   O31       1.0  0.83904  0.32230  0.91874  1.0000
  O   O32       1.0  0.33904  0.82230  0.91874  1.0000
  O   O33       1.0  0.79769  0.08460  0.00909  1.0000
  O   O34       1.0  0.29769  0.58460  0.00909  1.0000
  O   O35       1.0  0.20231  0.08460  0.49091  1.0000
  O   O36       1.0  0.70231  0.58460  0.49091  1.0000
  O   O37       1.0  0.20231  0.91540  0.99091  1.0000
  O   O38       1.0  0.70231  0.41540  0.99091  1.0000
  O   O39       1.0  0.79769  0.91540  0.50909  1.0000
  O   O40       1.0  0.29769  0.41540  0.50909  1.0000
  O   O41       1.0  0.81803  0.98000  0.90947  1.0000
  O   O42       1.0  0.31803  0.48000  0.90947  1.0000
  O   O43       1.0  0.18197  0.98000  0.59053  1.0000
  O   O44       1.0  0.68197  0.48000  0.59053  1.0000
  O   O45       1.0  0.18197  0.02000  0.09053  1.0000
  O   O46       1.0  0.68197  0.52000  0.09053  1.0000
  O   O47       1.0  0.81803  0.02000  0.40947  1.0000
  O   O48       1.0  0.31803  0.52000  0.40947  1.0000
  O   O49       1.0  0.90036  0.14650  0.98000  1.0000
  O   O50       1.0  0.40036  0.64650  0.98000  1.0000
  O   O51       1.0  0.09964  0.14650  0.52000  1.0000
  O   O52       1.0  0.59964  0.64650  0.52000  1.0000
  O   O53       1.0  0.09964  0.85350  0.02000  1.0000
  O   O54       1.0  0.59964  0.35350  0.02000  1.0000
  O   O55       1.0  0.90036  0.85350  0.48000  1.0000
  O   O56       1.0  0.40036  0.35350  0.48000  1.0000
  O   O57       1.0  0.89959  0.00600  0.07420  1.0000
  O   O58       1.0  0.39959  0.50600  0.07420  1.0000
  O   O59       1.0  0.10041  0.00600  0.42580  1.0000
  O   O60       1.0  0.60041  0.50600  0.42580  1.0000
  O   O61       1.0  0.10041  0.99400  0.92580  1.0000
  O   O62       1.0  0.60041  0.49400  0.92580  1.0000
  O   O63       1.0  0.89959  0.99400  0.57420  1.0000
  O   O64       1.0  0.39959  0.49400  0.57420  1.0000
  C   C1        1.0  0.81396  0.36070  0.10988  1.0000
  C   C2        1.0  0.31396  0.86070  0.10988  1.0000
  C   C3        1.0  0.18604  0.36070  0.39012  1.0000
  C   C4        1.0  0.68604  0.86070  0.39012  1.0000
  C   C5        1.0  0.18604  0.63930  0.89012  1.0000
  C   C6        1.0  0.68604  0.13930  0.89012  1.0000
  C   C7        1.0  0.81396  0.63930  0.60988  1.0000
  C   C8        1.0  0.31396  0.13930  0.60988  1.0000
  C   C9        1.0  0.81209  0.43200  0.18242  1.0000
  C   C10       1.0  0.31209  0.93200  0.18242  1.0000
  C   C11       1.0  0.18791  0.43200  0.31758  1.0000
  C   C12       1.0  0.68791  0.93200  0.31758  1.0000
  C   C13       1.0  0.18791  0.56800  0.81758  1.0000
  C   C14       1.0  0.68791  0.06800  0.81758  1.0000
  C   C15       1.0  0.81209  0.56800  0.68242  1.0000
  C   C16       1.0  0.31209  0.06800  0.68242  1.0000
  C   C17       1.0  0.84422  0.43080  0.23267  1.0000
  C   C18       1.0  0.34422  0.93080  0.23267  1.0000
  C   C19       1.0  0.15578  0.43080  0.26733  1.0000
  C   C20       1.0  0.65578  0.93080  0.26733  1.0000
  C   C21       1.0  0.15578  0.56920  0.76733  1.0000
  C   C22       1.0  0.65578  0.06920  0.76733  1.0000
  C   C23       1.0  0.84422  0.56920  0.73267  1.0000
  C   C24       1.0  0.34422  0.06920  0.73267  1.0000
  H   H1        1.0  0.86740  0.38010  0.22220  1.0000
  H   H2        1.0  0.36740  0.88010  0.22220  1.0000
  H   H3        1.0  0.13260  0.38010  0.27780  1.0000
  H   H4        1.0  0.63260  0.88010  0.27780  1.0000
  H   H5        1.0  0.13260  0.61990  0.77780  1.0000
  H   H6        1.0  0.63260  0.11990  0.77780  1.0000
  H   H7        1.0  0.86740  0.61990  0.72220  1.0000
  H   H8        1.0  0.36740  0.11990  0.72220  1.0000
  C   C25       1.0  0.77757  0.50180  0.19960  1.0000
  C   C26       1.0  0.27757  0.00180  0.19960  1.0000
  C   C27       1.0  0.22243  0.50180  0.30040  1.0000
  C   C28       1.0  0.72243  0.00180  0.30040  1.0000
  C   C29       1.0  0.22243  0.49820  0.80040  1.0000
  C   C30       1.0  0.72243  0.99820  0.80040  1.0000
  C   C31       1.0  0.77757  0.49820  0.69960  1.0000
  C   C32       1.0  0.27757  0.99820  0.69960  1.0000
  H   H9        1.0  0.75520  0.50180  0.16590  1.0000
  H   H10       1.0  0.25520  0.00180  0.16590  1.0000
  H   H11       1.0  0.24480  0.50180  0.33410  1.0000
  H   H12       1.0  0.74480  0.00180  0.33410  1.0000
  H   H13       1.0  0.24480  0.49820  0.83410  1.0000
  H   H14       1.0  0.74480  0.99820  0.83410  1.0000
  H   H15       1.0  0.75520  0.49820  0.66590  1.0000
  H   H16       1.0  0.25520  0.99820  0.66590  1.0000
  C   C33       1.0  0.80624  0.65030  0.38563  1.0000
  C   C34       1.0  0.30624  0.15030  0.38563  1.0000
  C   C35       1.0  0.19376  0.65030  0.11437  1.0000
  C   C36       1.0  0.69376  0.15030  0.11437  1.0000
  C   C37       1.0  0.19376  0.34970  0.61437  1.0000
  C   C38       1.0  0.69376  0.84970  0.61437  1.0000
  C   C39       1.0  0.80624  0.34970  0.88563  1.0000
  C   C40       1.0  0.30624  0.84970  0.88563  1.0000
  C   C41       1.0  0.80853  0.57340  0.31523  1.0000
  C   C42       1.0  0.30853  0.07340  0.31523  1.0000
  C   C43       1.0  0.19147  0.57340  0.18477  1.0000
  C   C44       1.0  0.69147  0.07340  0.18477  1.0000
  C   C45       1.0  0.19147  0.42660  0.68477  1.0000
  C   C46       1.0  0.69147  0.92660  0.68477  1.0000
  C   C47       1.0  0.80853  0.42660  0.81523  1.0000
  C   C48       1.0  0.30853  0.92660  0.81523  1.0000
  C   C49       1.0  0.77590  0.57110  0.26550  1.0000
  C   C50       1.0  0.27590  0.07110  0.26550  1.0000
  C   C51       1.0  0.22410  0.57110  0.23450  1.0000
  C   C52       1.0  0.72410  0.07110  0.23450  1.0000
  C   C53       1.0  0.22410  0.42890  0.73450  1.0000
  C   C54       1.0  0.72410  0.92890  0.73450  1.0000
  C   C55       1.0  0.77590  0.42890  0.76550  1.0000
  C   C56       1.0  0.27590  0.92890  0.76550  1.0000
  H   H17       1.0  0.75220  0.61760  0.27710  1.0000
  H   H18       1.0  0.25220  0.11760  0.27710  1.0000
  H   H19       1.0  0.24780  0.61760  0.22290  1.0000
  H   H20       1.0  0.74780  0.11760  0.22290  1.0000
  H   H21       1.0  0.24780  0.38240  0.72290  1.0000
  H   H22       1.0  0.74780  0.88240  0.72290  1.0000
  H   H23       1.0  0.75220  0.38240  0.77710  1.0000
  H   H24       1.0  0.25220  0.88240  0.77710  1.0000
  C   C57       1.0  0.84290  0.50300  0.29818  1.0000
  C   C58       1.0  0.34290  0.00300  0.29818  1.0000
  C   C59       1.0  0.15710  0.50300  0.20182  1.0000
  C   C60       1.0  0.65710  0.00300  0.20182  1.0000
  C   C61       1.0  0.15710  0.49700  0.70182  1.0000
  C   C62       1.0  0.65710  0.99700  0.70182  1.0000
  C   C63       1.0  0.84290  0.49700  0.79818  1.0000
  C   C64       1.0  0.34290  0.99700  0.79818  1.0000
  H   H25       1.0  0.86540  0.50440  0.33140  1.0000
  H   H26       1.0  0.36540  0.00440  0.33140  1.0000
  H   H27       1.0  0.13460  0.50440  0.16860  1.0000
  H   H28       1.0  0.63460  0.00440  0.16860  1.0000
  H   H29       1.0  0.13460  0.49560  0.66860  1.0000
  H   H30       1.0  0.63460  0.99560  0.66860  1.0000
  H   H31       1.0  0.86540  0.49560  0.83140  1.0000
  H   H32       1.0  0.36540  0.99560  0.83140  1.0000
  C   C65       1.0  0.79759  0.98420  0.96470  1.0000
  C   C66       1.0  0.29759  0.48420  0.96470  1.0000
  C   C67       1.0  0.20241  0.98420  0.53530  1.0000
  C   C68       1.0  0.70241  0.48420  0.53530  1.0000
  C   C69       1.0  0.20241  0.01580  0.03530  1.0000
  C   C70       1.0  0.70241  0.51580  0.03530  1.0000
  C   C71       1.0  0.79759  0.01580  0.46470  1.0000
  C   C72       1.0  0.29759  0.51580  0.46470  1.0000
  C   C73       1.0  0.77231  0.86410  0.98280  1.0000
  C   C74       1.0  0.27231  0.36410  0.98280  1.0000
  C   C75       1.0  0.22769  0.86410  0.51720  1.0000
  C   C76       1.0  0.72769  0.36410  0.51720  1.0000
  C   C77       1.0  0.22769  0.13590  0.01720  1.0000
  C   C78       1.0  0.72769  0.63590  0.01720  1.0000
  C   C79       1.0  0.77231  0.13590  0.48280  1.0000
  C   C80       1.0  0.27231  0.63590  0.48280  1.0000
  C   C81       1.0  0.77017  0.75290  0.93480  1.0000
  C   C82       1.0  0.27017  0.25290  0.93480  1.0000
  C   C83       1.0  0.22983  0.75290  0.56520  1.0000
  C   C84       1.0  0.72983  0.25290  0.56520  1.0000
  C   C85       1.0  0.22983  0.24710  0.06520  1.0000
  C   C86       1.0  0.72983  0.74710  0.06520  1.0000
  C   C87       1.0  0.77017  0.24710  0.43480  1.0000
  C   C88       1.0  0.27017  0.74710  0.43480  1.0000
  H   H33       1.0  0.78410  0.75500  0.89030  1.0000
  H   H34       1.0  0.28410  0.25500  0.89030  1.0000
  H   H35       1.0  0.21590  0.75500  0.60970  1.0000
  H   H36       1.0  0.71590  0.25500  0.60970  1.0000
  H   H37       1.0  0.21590  0.24500  0.10970  1.0000
  H   H38       1.0  0.71590  0.74500  0.10970  1.0000
  H   H39       1.0  0.78410  0.24500  0.39030  1.0000
  H   H40       1.0  0.28410  0.74500  0.39030  1.0000
  C   C89       1.0  0.75213  0.85960  0.04816  1.0000
  C   C90       1.0  0.25213  0.35960  0.04816  1.0000
  C   C91       1.0  0.24787  0.85960  0.45184  1.0000
  C   C92       1.0  0.74787  0.35960  0.45184  1.0000
  C   C93       1.0  0.24787  0.14040  0.95184  1.0000
  C   C94       1.0  0.74787  0.64040  0.95184  1.0000
  C   C95       1.0  0.75213  0.14040  0.54816  1.0000
  C   C96       1.0  0.25213  0.64040  0.54816  1.0000
  H   H41       1.0  0.75370  0.93420  0.08120  1.0000
  H   H42       1.0  0.25370  0.43420  0.08120  1.0000
  H   H43       1.0  0.24630  0.93420  0.41880  1.0000
  H   H44       1.0  0.74630  0.43420  0.41880  1.0000
  H   H45       1.0  0.24630  0.06580  0.91880  1.0000
  H   H46       1.0  0.74630  0.56580  0.91880  1.0000
  H   H47       1.0  0.75370  0.06580  0.58120  1.0000
  H   H48       1.0  0.25370  0.56580  0.58120  1.0000
  C   C97       1.0  0.91653  0.06060  0.02380  1.0000
  C   C98       1.0  0.41653  0.56060  0.02380  1.0000
  C   C99       1.0  0.08347  0.06060  0.47620  1.0000
  C   C100      1.0  0.58347  0.56060  0.47620  1.0000
  C   C101      1.0  0.08347  0.93940  0.97620  1.0000
  C   C102      1.0  0.58347  0.43940  0.97620  1.0000
  C   C103      1.0  0.91653  0.93940  0.52380  1.0000
  C   C104      1.0  0.41653  0.43940  0.52380  1.0000
  C   C105      1.0  0.95973  0.02830  0.01150  1.0000
  C   C106      1.0  0.45973  0.52830  0.01150  1.0000
  C   C107      1.0  0.04027  0.02830  0.48850  1.0000
  C   C108      1.0  0.54027  0.52830  0.48850  1.0000
  C   C109      1.0  0.04027  0.97170  0.98850  1.0000
  C   C110      1.0  0.54027  0.47170  0.98850  1.0000
  C   C111      1.0  0.95973  0.97170  0.51150  1.0000
  C   C112      1.0  0.45973  0.47170  0.51150  1.0000
  C   C113      1.0  0.98096  0.10150  0.96040  1.0000
  C   C114      1.0  0.48096  0.60150  0.96040  1.0000
  C   C115      1.0  0.01904  0.10150  0.53960  1.0000
  C   C116      1.0  0.51904  0.60150  0.53960  1.0000
  C   C117      1.0  0.01904  0.89850  0.03960  1.0000
  C   C118      1.0  0.51904  0.39850  0.03960  1.0000
  C   C119      1.0  0.98096  0.89850  0.46040  1.0000
  C   C120      1.0  0.48096  0.39850  0.46040  1.0000
  H   H49       1.0  0.96810  0.17220  0.93310  1.0000
  H   H50       1.0  0.46810  0.67220  0.93310  1.0000
  H   H51       1.0  0.03190  0.17220  0.56690  1.0000
  H   H52       1.0  0.53190  0.67220  0.56690  1.0000
  H   H53       1.0  0.03190  0.82780  0.06690  1.0000
  H   H54       1.0  0.53190  0.32780  0.06690  1.0000
  H   H55       1.0  0.96810  0.82780  0.43310  1.0000
  H   H56       1.0  0.46810  0.32780  0.43310  1.0000
  C   C121      1.0  0.97926  0.92800  0.05100  1.0000
  C   C122      1.0  0.47926  0.42800  0.05100  1.0000
  C   C123      1.0  0.02074  0.92800  0.44900  1.0000
  C   C124      1.0  0.52074  0.42800  0.44900  1.0000
  C   C125      1.0  0.02074  0.07200  0.94900  1.0000
  C   C126      1.0  0.52074  0.57200  0.94900  1.0000
  C   C127      1.0  0.97926  0.07200  0.55100  1.0000
  C   C128      1.0  0.47926  0.57200  0.55100  1.0000
  H   H57       1.0  0.96540  0.87800  0.08650  1.0000
  H   H58       1.0  0.46540  0.37800  0.08650  1.0000
  H   H59       1.0  0.03460  0.87800  0.41350  1.0000
  H   H60       1.0  0.53460  0.37800  0.41350  1.0000
  H   H61       1.0  0.03460  0.12200  0.91350  1.0000
  H   H62       1.0  0.53460  0.62200  0.91350  1.0000
  H   H63       1.0  0.96540  0.12200  0.58650  1.0000
  H   H64       1.0  0.46540  0.62200  0.58650  1.0000
