data_image0
_chemical_formula_structural       MnO12C18H16
_chemical_formula_sum              "Mn1 O12 C18 H16"
_cell_length_a       7.688
_cell_length_b       10.163
_cell_length_c       10.797
_cell_angle_alpha    94.08
_cell_angle_beta     101.01
_cell_angle_gamma    100.46

_space_group_name_H-M_alt    "P 1"
_space_group_IT_number       1

loop_
  _space_group_symop_operation_xyz
  'x, y, z'

loop_
  _atom_site_type_symbol
  _atom_site_label
  _atom_site_symmetry_multiplicity
  _atom_site_fract_x
  _atom_site_fract_y
  _atom_site_fract_z
  _atom_site_occupancy
  Mn  Mn1       1.0  0.00000  0.50000  0.00000  1.0000
  O   O1        1.0  0.93280  0.60880  0.83100  1.0000
  O   O2        1.0  0.06720  0.39120  0.16900  1.0000
  O   O3        1.0  0.03330  0.60160  0.65190  1.0000
  O   O4        1.0  0.96670  0.39840  0.34810  1.0000
  O   O5        1.0  0.45360  0.18730  0.89330  1.0000
  O   O6        1.0  0.54640  0.81270  0.10670  1.0000
  O   O7        1.0  0.63830  0.46240  0.13120  1.0000
  O   O8        1.0  0.36170  0.53760  0.86880  1.0000
  O   O9        1.0  0.72520  0.39190  0.95740  1.0000
  O   O10       1.0  0.27480  0.60810  0.04260  1.0000
  O   O11       1.0  0.93240  0.65670  0.12140  1.0000
  O   O12       1.0  0.06760  0.34330  0.87860  1.0000
  C   C1        1.0  0.03050  0.66010  0.75770  1.0000
  C   C2        1.0  0.96950  0.33990  0.24230  1.0000
  C   C3        1.0  0.14350  0.79920  0.79760  1.0000
  C   C4        1.0  0.85650  0.20080  0.20240  1.0000
  C   C5        1.0  0.13460  0.87290  0.90760  1.0000
  C   C6        1.0  0.86540  0.12710  0.09240  1.0000
  C   C7        1.0  0.23510  0.00340  0.94450  1.0000
  C   C8        1.0  0.76490  0.99660  0.05550  1.0000
  C   C9        1.0  0.34920  0.06070  0.86860  1.0000
  C   C10       1.0  0.65080  0.93930  0.13140  1.0000
  C   C11       1.0  0.36160  0.98740  0.75860  1.0000
  C   C12       1.0  0.63840  0.01260  0.24140  1.0000
  C   C13       1.0  0.25820  0.85810  0.72230  1.0000
  C   C14       1.0  0.74180  0.14190  0.27770  1.0000
  C   C15       1.0  0.46410  0.26280  0.01140  1.0000
  C   C16       1.0  0.53590  0.73720  0.98860  1.0000
  C   C17       1.0  0.62070  0.38270  0.03380  1.0000
  C   C18       1.0  0.37930  0.61730  0.96620  1.0000
  H   H1        1.0  0.84500  0.61200  0.14800  1.0000
  H   H2        1.0  0.15500  0.38800  0.85200  1.0000
  H   H3        1.0  0.02100  0.68200  0.18400  1.0000
  H   H4        1.0  0.97900  0.31800  0.81600  1.0000
  H   H5        1.0  0.05920  0.83450  0.95880  1.0000
  H   H6        1.0  0.94080  0.16550  0.04120  1.0000
  H   H7        1.0  0.22600  0.05130  0.01890  1.0000
  H   H8        1.0  0.77400  0.94870  0.98110  1.0000
  H   H9        1.0  0.43950  0.02470  0.70860  1.0000
  H   H10       1.0  0.56050  0.97530  0.29140  1.0000
  H   H11       1.0  0.26570  0.81060  0.64730  1.0000
  H   H12       1.0  0.73430  0.18940  0.35270  1.0000
  H   H13       1.0  0.48140  0.20620  0.07950  1.0000
  H   H14       1.0  0.51860  0.79380  0.92050  1.0000
  H   H15       1.0  0.35190  0.29390  0.01100  1.0000
  H   H16       1.0  0.64810  0.70610  0.98900  1.0000
