data_image0
_chemical_formula_structural       C4H8C8H12C4H12C12H4C4H4C4H4C4H4C8H4C8H4C4H4C4H4C12H12N8O16Co4
_chemical_formula_sum              "C76 H76 N8 O16 Co4"
_cell_length_a       10.4005
_cell_length_b       9.209
_cell_length_c       23.2616
_cell_angle_alpha    90
_cell_angle_beta     100.273
_cell_angle_gamma    90

_space_group_name_H-M_alt    "P 1"
_space_group_IT_number       1

loop_
  _space_group_symop_operation_xyz
  'x, y, z'

loop_
  _atom_site_type_symbol
  _atom_site_label
  _atom_site_symmetry_multiplicity
  _atom_site_fract_x
  _atom_site_fract_y
  _atom_site_fract_z
  _atom_site_occupancy
  C   C1        1.0  0.46340  0.40180  0.16390  1.0000
  C   C2        1.0  0.53660  0.90180  0.33610  1.0000
  C   C3        1.0  0.53660  0.59820  0.83610  1.0000
  C   C4        1.0  0.46340  0.09820  0.66390  1.0000
  H   H1        1.0  0.55330  0.42770  0.15910  1.0000
  H   H2        1.0  0.44670  0.92770  0.34090  1.0000
  H   H3        1.0  0.44670  0.57230  0.84090  1.0000
  H   H4        1.0  0.55330  0.07230  0.65910  1.0000
  H   H5        1.0  0.41030  0.49160  0.16000  1.0000
  H   H6        1.0  0.58970  0.99160  0.34000  1.0000
  H   H7        1.0  0.58970  0.50840  0.84000  1.0000
  H   H8        1.0  0.41030  0.00840  0.66000  1.0000
  C   C5        1.0  0.40500  0.29300  0.11610  1.0000
  C   C6        1.0  0.59500  0.79300  0.38390  1.0000
  C   C7        1.0  0.59500  0.70700  0.88390  1.0000
  C   C8        1.0  0.40500  0.20700  0.61610  1.0000
  C   C9        1.0  0.49870  0.17250  0.11110  1.0000
  C   C10       1.0  0.50130  0.67250  0.38890  1.0000
  C   C11       1.0  0.50130  0.82750  0.88890  1.0000
  C   C12       1.0  0.49870  0.32750  0.61110  1.0000
  H   H9        1.0  0.50180  0.10600  0.14420  1.0000
  H   H10       1.0  0.49820  0.60600  0.35580  1.0000
  H   H11       1.0  0.49820  0.89400  0.85580  1.0000
  H   H12       1.0  0.50180  0.39400  0.64420  1.0000
  H   H13       1.0  0.58590  0.21290  0.11120  1.0000
  H   H14       1.0  0.41410  0.71290  0.38880  1.0000
  H   H15       1.0  0.41410  0.78710  0.88880  1.0000
  H   H16       1.0  0.58590  0.28710  0.61120  1.0000
  H   H17       1.0  0.46960  0.11950  0.07450  1.0000
  H   H18       1.0  0.53040  0.61950  0.42550  1.0000
  H   H19       1.0  0.53040  0.88050  0.92550  1.0000
  H   H20       1.0  0.46960  0.38050  0.57450  1.0000
  C   C13       1.0  0.37410  0.37700  0.05970  1.0000
  C   C14       1.0  0.62590  0.87700  0.44030  1.0000
  C   C15       1.0  0.62590  0.62300  0.94030  1.0000
  C   C16       1.0  0.37410  0.12300  0.55970  1.0000
  H   H21       1.0  0.36420  0.30880  0.02670  1.0000
  H   H22       1.0  0.63580  0.80880  0.47330  1.0000
  H   H23       1.0  0.63580  0.69120  0.97330  1.0000
  H   H24       1.0  0.36420  0.19120  0.52670  1.0000
  H   H25       1.0  0.44540  0.44450  0.05710  1.0000
  H   H26       1.0  0.55460  0.94450  0.44290  1.0000
  H   H27       1.0  0.55460  0.55550  0.94290  1.0000
  H   H28       1.0  0.44540  0.05550  0.55710  1.0000
  H   H29       1.0  0.29260  0.43080  0.05850  1.0000
  H   H30       1.0  0.70740  0.93080  0.44150  1.0000
  H   H31       1.0  0.70740  0.56920  0.94150  1.0000
  H   H32       1.0  0.29260  0.06920  0.55850  1.0000
  C   C17       1.0  0.55440  0.39380  0.26470  1.0000
  C   C18       1.0  0.44560  0.89380  0.23530  1.0000
  C   C19       1.0  0.44560  0.60620  0.73530  1.0000
  C   C20       1.0  0.55440  0.10620  0.76470  1.0000
  C   C21       1.0  0.56070  0.33890  0.32570  1.0000
  C   C22       1.0  0.43930  0.83890  0.17430  1.0000
  C   C23       1.0  0.43930  0.66110  0.67430  1.0000
  C   C24       1.0  0.56070  0.16110  0.82570  1.0000
  C   C25       1.0  0.67910  0.35950  0.36110  1.0000
  C   C26       1.0  0.32090  0.85950  0.13890  1.0000
  C   C27       1.0  0.32090  0.64050  0.63890  1.0000
  C   C28       1.0  0.67910  0.14050  0.86110  1.0000
  H   H33       1.0  0.74950  0.39860  0.34500  1.0000
  H   H34       1.0  0.25050  0.89860  0.15500  1.0000
  H   H35       1.0  0.25050  0.60140  0.65500  1.0000
  H   H36       1.0  0.74950  0.10140  0.84500  1.0000
  C   C29       1.0  0.69870  0.32430  0.42030  1.0000
  C   C30       1.0  0.30130  0.82430  0.07970  1.0000
  C   C31       1.0  0.30130  0.67570  0.57970  1.0000
  C   C32       1.0  0.69870  0.17570  0.92030  1.0000
  H   H37       1.0  0.78140  0.33740  0.44470  1.0000
  H   H38       1.0  0.21860  0.83740  0.05530  1.0000
  H   H39       1.0  0.21860  0.66260  0.55530  1.0000
  H   H40       1.0  0.78140  0.16260  0.94470  1.0000
  C   C33       1.0  0.58990  0.26790  0.44300  1.0000
  C   C34       1.0  0.41010  0.76790  0.05700  1.0000
  C   C35       1.0  0.41010  0.73210  0.55700  1.0000
  C   C36       1.0  0.58990  0.23210  0.94300  1.0000
  H   H41       1.0  0.59960  0.24070  0.48290  1.0000
  H   H42       1.0  0.40040  0.74070  0.01710  1.0000
  H   H43       1.0  0.40040  0.75930  0.51710  1.0000
  H   H44       1.0  0.59960  0.25930  0.98290  1.0000
  C   C37       1.0  0.47090  0.25320  0.40660  1.0000
  C   C38       1.0  0.52910  0.75320  0.09340  1.0000
  C   C39       1.0  0.52910  0.74680  0.59340  1.0000
  C   C40       1.0  0.47090  0.24680  0.90660  1.0000
  H   H45       1.0  0.39740  0.22480  0.42300  1.0000
  H   H46       1.0  0.60260  0.72480  0.07700  1.0000
  H   H47       1.0  0.60260  0.77520  0.57700  1.0000
  H   H48       1.0  0.39740  0.27520  0.92300  1.0000
  C   C41       1.0  0.45400  0.27820  0.34710  1.0000
  C   C42       1.0  0.54600  0.77820  0.15290  1.0000
  C   C43       1.0  0.54600  0.72180  0.65290  1.0000
  C   C44       1.0  0.45400  0.22180  0.84710  1.0000
  C   C45       1.0  0.18710  0.19700  0.10080  1.0000
  C   C46       1.0  0.81290  0.69700  0.39920  1.0000
  C   C47       1.0  0.81290  0.80300  0.89920  1.0000
  C   C48       1.0  0.18710  0.30300  0.60080  1.0000
  H   H49       1.0  0.18950  0.20910  0.06040  1.0000
  H   H50       1.0  0.81050  0.70910  0.43960  1.0000
  H   H51       1.0  0.81050  0.79090  0.93960  1.0000
  H   H52       1.0  0.18950  0.29090  0.56040  1.0000
  C   C49       1.0  0.06670  0.14180  0.11470  1.0000
  C   C50       1.0  0.93330  0.64180  0.38530  1.0000
  C   C51       1.0  0.93330  0.85820  0.88530  1.0000
  C   C52       1.0  0.06670  0.35820  0.61470  1.0000
  C   C53       1.0  0.97080  0.09120  0.06890  1.0000
  C   C54       1.0  0.02920  0.59120  0.43110  1.0000
  C   C55       1.0  0.02920  0.90880  0.93110  1.0000
  C   C56       1.0  0.97080  0.40880  0.56890  1.0000
  H   H53       1.0  0.98920  0.09090  0.03030  1.0000
  H   H54       1.0  0.01080  0.59090  0.46970  1.0000
  H   H55       1.0  0.01080  0.90910  0.96970  1.0000
  H   H56       1.0  0.98920  0.40910  0.53030  1.0000
  C   C57       1.0  0.85370  0.04310  0.07770  1.0000
  C   C58       1.0  0.14630  0.54310  0.42230  1.0000
  C   C59       1.0  0.14630  0.95690  0.92230  1.0000
  C   C60       1.0  0.85370  0.45690  0.57770  1.0000
  H   H57       1.0  0.79180  0.00710  0.04580  1.0000
  H   H58       1.0  0.20820  0.50710  0.45420  1.0000
  H   H59       1.0  0.20820  0.99290  0.95420  1.0000
  H   H60       1.0  0.79180  0.49290  0.54580  1.0000
  C   C61       1.0  0.82300  0.04600  0.13410  1.0000
  C   C62       1.0  0.17700  0.54600  0.36590  1.0000
  C   C63       1.0  0.17700  0.95400  0.86590  1.0000
  C   C64       1.0  0.82300  0.45400  0.63410  1.0000
  H   H61       1.0  0.73960  0.01570  0.14080  1.0000
  H   H62       1.0  0.26040  0.51570  0.35920  1.0000
  H   H63       1.0  0.26040  0.98430  0.85920  1.0000
  H   H64       1.0  0.73960  0.48430  0.64080  1.0000
  C   C65       1.0  0.91810  0.09470  0.18020  1.0000
  C   C66       1.0  0.08190  0.59470  0.31980  1.0000
  C   C67       1.0  0.08190  0.90530  0.81980  1.0000
  C   C68       1.0  0.91810  0.40530  0.68020  1.0000
  C   C69       1.0  0.04230  0.14240  0.17210  1.0000
  C   C70       1.0  0.95770  0.64240  0.32790  1.0000
  C   C71       1.0  0.95770  0.85760  0.82790  1.0000
  C   C72       1.0  0.04230  0.35760  0.67210  1.0000
  C   C73       1.0  0.76600  0.08700  0.24290  1.0000
  C   C74       1.0  0.23400  0.58700  0.25710  1.0000
  C   C75       1.0  0.23400  0.91300  0.75710  1.0000
  C   C76       1.0  0.76600  0.41300  0.74290  1.0000
  H   H65       1.0  0.71150  0.16420  0.22220  1.0000
  H   H66       1.0  0.28850  0.66420  0.27780  1.0000
  H   H67       1.0  0.28850  0.83580  0.77780  1.0000
  H   H68       1.0  0.71150  0.33580  0.72220  1.0000
  H   H69       1.0  0.76160  0.09090  0.28460  1.0000
  H   H70       1.0  0.23840  0.59090  0.21540  1.0000
  H   H71       1.0  0.23840  0.90910  0.71540  1.0000
  H   H72       1.0  0.76160  0.40910  0.78460  1.0000
  H   H73       1.0  0.73410  0.99240  0.22700  1.0000
  H   H74       1.0  0.26590  0.49240  0.27300  1.0000
  H   H75       1.0  0.26590  0.00760  0.77300  1.0000
  H   H76       1.0  0.73410  0.50760  0.72700  1.0000
  N   N1        1.0  0.46600  0.33930  0.22090  1.0000
  N   N2        1.0  0.53400  0.83930  0.27910  1.0000
  N   N3        1.0  0.53400  0.66070  0.77910  1.0000
  N   N4        1.0  0.46600  0.16070  0.72090  1.0000
  N   N5        1.0  0.28880  0.23100  0.13560  1.0000
  N   N6        1.0  0.71120  0.73100  0.36440  1.0000
  N   N7        1.0  0.71120  0.76900  0.86440  1.0000
  N   N8        1.0  0.28880  0.26900  0.63560  1.0000
  O   O1        1.0  0.33940  0.25320  0.31510  1.0000
  O   O2        1.0  0.66060  0.75320  0.18490  1.0000
  O   O3        1.0  0.66060  0.74680  0.68490  1.0000
  O   O4        1.0  0.33940  0.24680  0.81510  1.0000
  O   O5        1.0  0.12470  0.19280  0.21890  1.0000
  O   O6        1.0  0.87530  0.69280  0.28110  1.0000
  O   O7        1.0  0.87530  0.80720  0.78110  1.0000
  O   O8        1.0  0.12470  0.30720  0.71890  1.0000
  O   O9        1.0  0.63520  0.49510  0.25650  1.0000
  O   O10       1.0  0.36480  0.99510  0.24350  1.0000
  O   O11       1.0  0.36480  0.50490  0.74350  1.0000
  O   O12       1.0  0.63520  0.00490  0.75650  1.0000
  O   O13       1.0  0.89160  0.10550  0.23560  1.0000
  O   O14       1.0  0.10840  0.60550  0.26440  1.0000
  O   O15       1.0  0.10840  0.89450  0.76440  1.0000
  O   O16       1.0  0.89160  0.39450  0.73560  1.0000
  Co  Co1       1.0  0.31947  0.20270  0.22731  1.0000
  Co  Co2       1.0  0.68053  0.70270  0.27269  1.0000
  Co  Co3       1.0  0.68053  0.79730  0.77269  1.0000
  Co  Co4       1.0  0.31947  0.29730  0.72731  1.0000
