data_image0
_chemical_formula_structural       Eu4O28P4C12H4C8H4C8H4C4H8C4
_chemical_formula_sum              "Eu4 O28 P4 C36 H20"
_cell_length_a       10.1111
_cell_length_b       15.2927
_cell_length_c       9.29223
_cell_angle_alpha    90
_cell_angle_beta     90.7228
_cell_angle_gamma    90

_space_group_name_H-M_alt    "P 1"
_space_group_IT_number       1

loop_
  _space_group_symop_operation_xyz
  'x, y, z'

loop_
  _atom_site_type_symbol
  _atom_site_label
  _atom_site_symmetry_multiplicity
  _atom_site_fract_x
  _atom_site_fract_y
  _atom_site_fract_z
  _atom_site_occupancy
  Eu  Eu1       1.0  0.09320  0.66316  0.50809  1.0000
  Eu  Eu2       1.0  0.90680  0.16316  0.99191  1.0000
  Eu  Eu3       1.0  0.90680  0.33684  0.49191  1.0000
  Eu  Eu4       1.0  0.09320  0.83684  0.00809  1.0000
  O   O1        1.0  0.94890  0.64333  0.70489  1.0000
  O   O2        1.0  0.05110  0.14333  0.79511  1.0000
  O   O3        1.0  0.05110  0.35667  0.29511  1.0000
  O   O4        1.0  0.94890  0.85667  0.20489  1.0000
  O   O5        1.0  0.99230  0.72075  0.90010  1.0000
  O   O6        1.0  0.00770  0.22075  0.59990  1.0000
  O   O7        1.0  0.00770  0.27925  0.09990  1.0000
  O   O8        1.0  0.99230  0.77925  0.40010  1.0000
  O   O9        1.0  0.93700  0.58571  0.37637  1.0000
  O   O10       1.0  0.06300  0.08571  0.12363  1.0000
  O   O11       1.0  0.06300  0.41429  0.62363  1.0000
  O   O12       1.0  0.93700  0.91429  0.87637  1.0000
  O   O13       1.0  0.81956  0.46510  0.39668  1.0000
  O   O14       1.0  0.18044  0.96510  0.10332  1.0000
  O   O15       1.0  0.18044  0.53490  0.60332  1.0000
  O   O16       1.0  0.81956  0.03490  0.89668  1.0000
  O   O17       1.0  0.77670  0.25851  0.87580  1.0000
  O   O18       1.0  0.22330  0.75851  0.62420  1.0000
  O   O19       1.0  0.22330  0.74149  0.12420  1.0000
  O   O20       1.0  0.77670  0.24149  0.37580  1.0000
  O   O21       1.0  0.75210  0.35511  0.65820  1.0000
  O   O22       1.0  0.24790  0.85511  0.84180  1.0000
  O   O23       1.0  0.24790  0.64489  0.34180  1.0000
  O   O24       1.0  0.75210  0.14489  0.15820  1.0000
  O   O25       1.0  0.56061  0.26418  0.74000  1.0000
  O   O26       1.0  0.43939  0.76418  0.76000  1.0000
  O   O27       1.0  0.43939  0.73582  0.26000  1.0000
  O   O28       1.0  0.56061  0.23582  0.24000  1.0000
  P   P1        1.0  0.68481  0.31386  0.78540  1.0000
  P   P2        1.0  0.31519  0.81386  0.71460  1.0000
  P   P3        1.0  0.31519  0.68614  0.21460  1.0000
  P   P4        1.0  0.68481  0.18614  0.28540  1.0000
  C   C1        1.0  0.94510  0.65523  0.83760  1.0000
  C   C2        1.0  0.05490  0.15523  0.66240  1.0000
  C   C3        1.0  0.05490  0.34477  0.16240  1.0000
  C   C4        1.0  0.94510  0.84477  0.33760  1.0000
  C   C5        1.0  0.87900  0.58803  0.93010  1.0000
  C   C6        1.0  0.12100  0.08803  0.56990  1.0000
  C   C7        1.0  0.12100  0.41197  0.06990  1.0000
  C   C8        1.0  0.87900  0.91197  0.43010  1.0000
  C   C9        1.0  0.90110  0.58951  0.07850  1.0000
  C   C10       1.0  0.09890  0.08951  0.42150  1.0000
  C   C11       1.0  0.09890  0.41049  0.92150  1.0000
  C   C12       1.0  0.90110  0.91049  0.57850  1.0000
  H   H1        1.0  0.95650  0.63150  0.11920  1.0000
  H   H2        1.0  0.04350  0.13150  0.38080  1.0000
  H   H3        1.0  0.04350  0.36850  0.88080  1.0000
  H   H4        1.0  0.95650  0.86850  0.61920  1.0000
  C   C13       1.0  0.83980  0.52790  0.16539  1.0000
  C   C14       1.0  0.16020  0.02790  0.33461  1.0000
  C   C15       1.0  0.16020  0.47210  0.83461  1.0000
  C   C16       1.0  0.83980  0.97210  0.66539  1.0000
  C   C17       1.0  0.75360  0.46694  0.10410  1.0000
  C   C18       1.0  0.24640  0.96694  0.39590  1.0000
  C   C19       1.0  0.24640  0.53306  0.89590  1.0000
  C   C20       1.0  0.75360  0.03306  0.60410  1.0000
  H   H5        1.0  0.71290  0.42600  0.16290  1.0000
  H   H6        1.0  0.28710  0.92600  0.33710  1.0000
  H   H7        1.0  0.28710  0.57400  0.83710  1.0000
  H   H8        1.0  0.71290  0.07400  0.66290  1.0000
  C   C21       1.0  0.72720  0.46607  0.95680  1.0000
  C   C22       1.0  0.27280  0.96607  0.54320  1.0000
  C   C23       1.0  0.27280  0.53393  0.04320  1.0000
  C   C24       1.0  0.72720  0.03393  0.45680  1.0000
  C   C25       1.0  0.79400  0.52597  0.86960  1.0000
  C   C26       1.0  0.20600  0.02597  0.63040  1.0000
  C   C27       1.0  0.20600  0.47403  0.13040  1.0000
  C   C28       1.0  0.79400  0.97403  0.36960  1.0000
  H   H9        1.0  0.78140  0.52430  0.77030  1.0000
  H   H10       1.0  0.21860  0.02430  0.72970  1.0000
  H   H11       1.0  0.21860  0.47570  0.22970  1.0000
  H   H12       1.0  0.78140  0.97570  0.27030  1.0000
  C   C29       1.0  0.62600  0.40357  0.89590  1.0000
  C   C30       1.0  0.37400  0.90357  0.60410  1.0000
  C   C31       1.0  0.37400  0.59643  0.10410  1.0000
  C   C32       1.0  0.62600  0.09643  0.39590  1.0000
  H   H13       1.0  0.56320  0.43720  0.83870  1.0000
  H   H14       1.0  0.43680  0.93720  0.66130  1.0000
  H   H15       1.0  0.43680  0.56280  0.16130  1.0000
  H   H16       1.0  0.56320  0.06280  0.33870  1.0000
  H   H17       1.0  0.57790  0.37870  0.97570  1.0000
  H   H18       1.0  0.42210  0.87870  0.52430  1.0000
  H   H19       1.0  0.42210  0.62130  0.02430  1.0000
  H   H20       1.0  0.57790  0.12130  0.47570  1.0000
  C   C33       1.0  0.86850  0.52611  0.32410  1.0000
  C   C34       1.0  0.13150  0.02611  0.17590  1.0000
  C   C35       1.0  0.13150  0.47389  0.67590  1.0000
  C   C36       1.0  0.86850  0.97389  0.82410  1.0000
