data_image0
_chemical_formula_structural       Eu4O28P4C12H4C8H4C8H4C4H8C4
_chemical_formula_sum              "Eu4 O28 P4 C36 H20"
_cell_length_a       10.1126
_cell_length_b       15.2907
_cell_length_c       9.28926
_cell_angle_alpha    90
_cell_angle_beta     90.6238
_cell_angle_gamma    90

_space_group_name_H-M_alt    "P 1"
_space_group_IT_number       1

loop_
  _space_group_symop_operation_xyz
  'x, y, z'

loop_
  _atom_site_type_symbol
  _atom_site_label
  _atom_site_symmetry_multiplicity
  _atom_site_fract_x
  _atom_site_fract_y
  _atom_site_fract_z
  _atom_site_occupancy
  Eu  Eu1       1.0  0.09308  0.66318  0.50791  1.0000
  Eu  Eu2       1.0  0.90692  0.16318  0.99209  1.0000
  Eu  Eu3       1.0  0.90692  0.33682  0.49209  1.0000
  Eu  Eu4       1.0  0.09308  0.83682  0.00791  1.0000
  O   O1        1.0  0.94860  0.64327  0.70467  1.0000
  O   O2        1.0  0.05140  0.14327  0.79533  1.0000
  O   O3        1.0  0.05140  0.35673  0.29533  1.0000
  O   O4        1.0  0.94860  0.85673  0.20467  1.0000
  O   O5        1.0  0.99210  0.72071  0.89970  1.0000
  O   O6        1.0  0.00790  0.22071  0.60030  1.0000
  O   O7        1.0  0.00790  0.27929  0.10030  1.0000
  O   O8        1.0  0.99210  0.77929  0.39970  1.0000
  O   O9        1.0  0.93740  0.58560  0.37630  1.0000
  O   O10       1.0  0.06260  0.08560  0.12370  1.0000
  O   O11       1.0  0.06260  0.41440  0.62370  1.0000
  O   O12       1.0  0.93740  0.91440  0.87630  1.0000
  O   O13       1.0  0.81960  0.46502  0.39677  1.0000
  O   O14       1.0  0.18040  0.96502  0.10323  1.0000
  O   O15       1.0  0.18040  0.53498  0.60323  1.0000
  O   O16       1.0  0.81960  0.03498  0.89677  1.0000
  O   O17       1.0  0.77700  0.25856  0.87630  1.0000
  O   O18       1.0  0.22300  0.75856  0.62370  1.0000
  O   O19       1.0  0.22300  0.74144  0.12370  1.0000
  O   O20       1.0  0.77700  0.24144  0.37630  1.0000
  O   O21       1.0  0.75230  0.35493  0.65820  1.0000
  O   O22       1.0  0.24770  0.85493  0.84180  1.0000
  O   O23       1.0  0.24770  0.64507  0.34180  1.0000
  O   O24       1.0  0.75230  0.14507  0.15820  1.0000
  O   O25       1.0  0.56110  0.26387  0.74070  1.0000
  O   O26       1.0  0.43890  0.76387  0.75930  1.0000
  O   O27       1.0  0.43890  0.73613  0.25930  1.0000
  O   O28       1.0  0.56110  0.23613  0.24070  1.0000
  P   P1        1.0  0.68490  0.31376  0.78582  1.0000
  P   P2        1.0  0.31510  0.81376  0.71418  1.0000
  P   P3        1.0  0.31510  0.68624  0.21418  1.0000
  P   P4        1.0  0.68490  0.18624  0.28582  1.0000
  C   C1        1.0  0.94520  0.65517  0.83750  1.0000
  C   C2        1.0  0.05480  0.15517  0.66250  1.0000
  C   C3        1.0  0.05480  0.34483  0.16250  1.0000
  C   C4        1.0  0.94520  0.84483  0.33750  1.0000
  C   C5        1.0  0.87880  0.58801  0.92990  1.0000
  C   C6        1.0  0.12120  0.08801  0.57010  1.0000
  C   C7        1.0  0.12120  0.41199  0.07010  1.0000
  C   C8        1.0  0.87880  0.91199  0.42990  1.0000
  C   C9        1.0  0.90110  0.58941  0.07860  1.0000
  C   C10       1.0  0.09890  0.08941  0.42140  1.0000
  C   C11       1.0  0.09890  0.41059  0.92140  1.0000
  C   C12       1.0  0.90110  0.91059  0.57860  1.0000
  H   H1        1.0  0.95660  0.63140  0.11930  1.0000
  H   H2        1.0  0.04340  0.13140  0.38070  1.0000
  H   H3        1.0  0.04340  0.36860  0.88070  1.0000
  H   H4        1.0  0.95660  0.86860  0.61930  1.0000
  C   C13       1.0  0.84020  0.52786  0.16500  1.0000
  C   C14       1.0  0.15980  0.02786  0.33500  1.0000
  C   C15       1.0  0.15980  0.47214  0.83500  1.0000
  C   C16       1.0  0.84020  0.97214  0.66500  1.0000
  C   C17       1.0  0.75350  0.46675  0.10430  1.0000
  C   C18       1.0  0.24650  0.96675  0.39570  1.0000
  C   C19       1.0  0.24650  0.53325  0.89570  1.0000
  C   C20       1.0  0.75350  0.03325  0.60430  1.0000
  H   H5        1.0  0.71280  0.42580  0.16320  1.0000
  H   H6        1.0  0.28720  0.92580  0.33680  1.0000
  H   H7        1.0  0.28720  0.57420  0.83680  1.0000
  H   H8        1.0  0.71280  0.07420  0.66320  1.0000
  C   C21       1.0  0.72690  0.46614  0.95690  1.0000
  C   C22       1.0  0.27310  0.96614  0.54310  1.0000
  C   C23       1.0  0.27310  0.53386  0.04310  1.0000
  C   C24       1.0  0.72690  0.03386  0.45690  1.0000
  C   C25       1.0  0.79380  0.52601  0.86970  1.0000
  C   C26       1.0  0.20620  0.02601  0.63030  1.0000
  C   C27       1.0  0.20620  0.47399  0.13030  1.0000
  C   C28       1.0  0.79380  0.97399  0.36970  1.0000
  H   H9        1.0  0.78130  0.52430  0.77040  1.0000
  H   H10       1.0  0.21870  0.02430  0.72960  1.0000
  H   H11       1.0  0.21870  0.47570  0.22960  1.0000
  H   H12       1.0  0.78130  0.97570  0.27040  1.0000
  C   C29       1.0  0.62580  0.40341  0.89610  1.0000
  C   C30       1.0  0.37420  0.90341  0.60390  1.0000
  C   C31       1.0  0.37420  0.59659  0.10390  1.0000
  C   C32       1.0  0.62580  0.09659  0.39610  1.0000
  H   H13       1.0  0.56300  0.43690  0.83880  1.0000
  H   H14       1.0  0.43700  0.93690  0.66120  1.0000
  H   H15       1.0  0.43700  0.56310  0.16120  1.0000
  H   H16       1.0  0.56300  0.06310  0.33880  1.0000
  H   H17       1.0  0.57760  0.37850  0.97600  1.0000
  H   H18       1.0  0.42240  0.87850  0.52400  1.0000
  H   H19       1.0  0.42240  0.62150  0.02400  1.0000
  H   H20       1.0  0.57760  0.12150  0.47600  1.0000
  C   C33       1.0  0.86830  0.52609  0.32370  1.0000
  C   C34       1.0  0.13170  0.02609  0.17630  1.0000
  C   C35       1.0  0.13170  0.47391  0.67630  1.0000
  C   C36       1.0  0.86830  0.97391  0.82370  1.0000
