data_image0
_chemical_formula_structural       Eu4O28P4C12H4C8H4C8H4C4H8C4
_chemical_formula_sum              "Eu4 O28 P4 C36 H20"
_cell_length_a       10.1309
_cell_length_b       15.2963
_cell_length_c       9.28963
_cell_angle_alpha    90
_cell_angle_beta     90.673
_cell_angle_gamma    90

_space_group_name_H-M_alt    "P 1"
_space_group_IT_number       1

loop_
  _space_group_symop_operation_xyz
  'x, y, z'

loop_
  _atom_site_type_symbol
  _atom_site_label
  _atom_site_symmetry_multiplicity
  _atom_site_fract_x
  _atom_site_fract_y
  _atom_site_fract_z
  _atom_site_occupancy
  Eu  Eu1       1.0  0.09267  0.66325  0.50808  1.0000
  Eu  Eu2       1.0  0.90733  0.16325  0.99192  1.0000
  Eu  Eu3       1.0  0.90733  0.33675  0.49192  1.0000
  Eu  Eu4       1.0  0.09267  0.83675  0.00808  1.0000
  O   O1        1.0  0.94810  0.64375  0.70470  1.0000
  O   O2        1.0  0.05190  0.14375  0.79530  1.0000
  O   O3        1.0  0.05190  0.35625  0.29530  1.0000
  O   O4        1.0  0.94810  0.85625  0.20470  1.0000
  O   O5        1.0  0.99130  0.72090  0.90010  1.0000
  O   O6        1.0  0.00870  0.22090  0.59990  1.0000
  O   O7        1.0  0.00870  0.27910  0.09990  1.0000
  O   O8        1.0  0.99130  0.77910  0.40010  1.0000
  O   O9        1.0  0.93690  0.58557  0.37640  1.0000
  O   O10       1.0  0.06310  0.08557  0.12360  1.0000
  O   O11       1.0  0.06310  0.41443  0.62360  1.0000
  O   O12       1.0  0.93690  0.91443  0.87640  1.0000
  O   O13       1.0  0.82030  0.46500  0.39670  1.0000
  O   O14       1.0  0.17970  0.96500  0.10330  1.0000
  O   O15       1.0  0.17970  0.53500  0.60330  1.0000
  O   O16       1.0  0.82030  0.03500  0.89670  1.0000
  O   O17       1.0  0.77750  0.25828  0.87610  1.0000
  O   O18       1.0  0.22250  0.75828  0.62390  1.0000
  O   O19       1.0  0.22250  0.74172  0.12390  1.0000
  O   O20       1.0  0.77750  0.24172  0.37610  1.0000
  O   O21       1.0  0.75330  0.35483  0.65830  1.0000
  O   O22       1.0  0.24670  0.85483  0.84170  1.0000
  O   O23       1.0  0.24670  0.64517  0.34170  1.0000
  O   O24       1.0  0.75330  0.14517  0.15830  1.0000
  O   O25       1.0  0.56230  0.26414  0.74020  1.0000
  O   O26       1.0  0.43770  0.76414  0.75980  1.0000
  O   O27       1.0  0.43770  0.73586  0.25980  1.0000
  O   O28       1.0  0.56230  0.23586  0.24020  1.0000
  P   P1        1.0  0.68593  0.31371  0.78549  1.0000
  P   P2        1.0  0.31407  0.81371  0.71451  1.0000
  P   P3        1.0  0.31407  0.68629  0.21451  1.0000
  P   P4        1.0  0.68593  0.18629  0.28549  1.0000
  C   C1        1.0  0.94490  0.65548  0.83760  1.0000
  C   C2        1.0  0.05510  0.15548  0.66240  1.0000
  C   C3        1.0  0.05510  0.34452  0.16240  1.0000
  C   C4        1.0  0.94490  0.84452  0.33760  1.0000
  C   C5        1.0  0.87850  0.58825  0.93000  1.0000
  C   C6        1.0  0.12150  0.08825  0.57000  1.0000
  C   C7        1.0  0.12150  0.41175  0.07000  1.0000
  C   C8        1.0  0.87850  0.91175  0.43000  1.0000
  C   C9        1.0  0.90090  0.58956  0.07860  1.0000
  C   C10       1.0  0.09910  0.08956  0.42140  1.0000
  C   C11       1.0  0.09910  0.41044  0.92140  1.0000
  C   C12       1.0  0.90090  0.91044  0.57860  1.0000
  H   H1        1.0  0.95620  0.63150  0.11940  1.0000
  H   H2        1.0  0.04380  0.13150  0.38060  1.0000
  H   H3        1.0  0.04380  0.36850  0.88060  1.0000
  H   H4        1.0  0.95620  0.86850  0.61940  1.0000
  C   C13       1.0  0.84020  0.52795  0.16520  1.0000
  C   C14       1.0  0.15980  0.02795  0.33480  1.0000
  C   C15       1.0  0.15980  0.47205  0.83480  1.0000
  C   C16       1.0  0.84020  0.97205  0.66520  1.0000
  C   C17       1.0  0.75450  0.46681  0.10430  1.0000
  C   C18       1.0  0.24550  0.96681  0.39570  1.0000
  C   C19       1.0  0.24550  0.53319  0.89570  1.0000
  C   C20       1.0  0.75450  0.03319  0.60430  1.0000
  H   H5        1.0  0.71430  0.42570  0.16310  1.0000
  H   H6        1.0  0.28570  0.92570  0.33690  1.0000
  H   H7        1.0  0.28570  0.57430  0.83690  1.0000
  H   H8        1.0  0.71430  0.07430  0.66310  1.0000
  C   C21       1.0  0.72780  0.46596  0.95650  1.0000
  C   C22       1.0  0.27220  0.96596  0.54350  1.0000
  C   C23       1.0  0.27220  0.53404  0.04350  1.0000
  C   C24       1.0  0.72780  0.03404  0.45650  1.0000
  C   C25       1.0  0.79420  0.52591  0.86970  1.0000
  C   C26       1.0  0.20580  0.02591  0.63030  1.0000
  C   C27       1.0  0.20580  0.47409  0.13030  1.0000
  C   C28       1.0  0.79420  0.97409  0.36970  1.0000
  H   H9        1.0  0.78200  0.52410  0.77030  1.0000
  H   H10       1.0  0.21800  0.02410  0.72970  1.0000
  H   H11       1.0  0.21800  0.47590  0.22970  1.0000
  H   H12       1.0  0.78200  0.97590  0.27030  1.0000
  C   C29       1.0  0.62700  0.40356  0.89570  1.0000
  C   C30       1.0  0.37300  0.90356  0.60430  1.0000
  C   C31       1.0  0.37300  0.59644  0.10430  1.0000
  C   C32       1.0  0.62700  0.09644  0.39570  1.0000
  H   H13       1.0  0.56440  0.43710  0.83840  1.0000
  H   H14       1.0  0.43560  0.93710  0.66160  1.0000
  H   H15       1.0  0.43560  0.56290  0.16160  1.0000
  H   H16       1.0  0.56440  0.06290  0.33840  1.0000
  H   H17       1.0  0.57880  0.37880  0.97560  1.0000
  H   H18       1.0  0.42120  0.87880  0.52440  1.0000
  H   H19       1.0  0.42120  0.62120  0.02440  1.0000
  H   H20       1.0  0.57880  0.12120  0.47560  1.0000
  C   C33       1.0  0.86870  0.52602  0.32390  1.0000
  C   C34       1.0  0.13130  0.02602  0.17610  1.0000
  C   C35       1.0  0.13130  0.47398  0.67610  1.0000
  C   C36       1.0  0.86870  0.97398  0.82390  1.0000
