data_image0
_chemical_formula_structural       Tb4Zn4O64C12H4C4H4C20H4C4H4C20H4C4H4C12H4C4H12C4H12N4
_chemical_formula_sum              "Tb4 Zn4 O64 C84 H52 N4"
_cell_length_a       17.9663
_cell_length_b       12.9541
_cell_length_c       14.8528
_cell_angle_alpha    90
_cell_angle_beta     113.249
_cell_angle_gamma    90

_space_group_name_H-M_alt    "P 1"
_space_group_IT_number       1

loop_
  _space_group_symop_operation_xyz
  'x, y, z'

loop_
  _atom_site_type_symbol
  _atom_site_label
  _atom_site_symmetry_multiplicity
  _atom_site_fract_x
  _atom_site_fract_y
  _atom_site_fract_z
  _atom_site_occupancy
  Tb  Tb1       1.0  0.37811  0.97455  0.45206  1.0000
  Tb  Tb2       1.0  0.62189  0.47455  0.04794  1.0000
  Tb  Tb3       1.0  0.62189  0.02545  0.54794  1.0000
  Tb  Tb4       1.0  0.37811  0.52545  0.95206  1.0000
  Zn  Zn1       1.0  0.14202  0.08990  0.35800  1.0000
  Zn  Zn2       1.0  0.85798  0.58990  0.14200  1.0000
  Zn  Zn3       1.0  0.85798  0.91010  0.64200  1.0000
  Zn  Zn4       1.0  0.14202  0.41010  0.85800  1.0000
  O   O1        1.0  0.31264  0.34960  0.89572  1.0000
  O   O2        1.0  0.68736  0.84960  0.60428  1.0000
  O   O3        1.0  0.68736  0.65040  0.10428  1.0000
  O   O4        1.0  0.31264  0.15040  0.39572  1.0000
  O   O5        1.0  0.18634  0.31800  0.78670  1.0000
  O   O6        1.0  0.81366  0.81800  0.71330  1.0000
  O   O7        1.0  0.81366  0.68200  0.21330  1.0000
  O   O8        1.0  0.18634  0.18200  0.28670  1.0000
  O   O9        1.0  0.24489  0.19010  0.68578  1.0000
  O   O10       1.0  0.75511  0.69010  0.81422  1.0000
  O   O11       1.0  0.75511  0.80990  0.31422  1.0000
  O   O12       1.0  0.24489  0.30990  0.18578  1.0000
  O   O13       1.0  0.18529  0.11210  0.50050  1.0000
  O   O14       1.0  0.81471  0.61210  0.99950  1.0000
  O   O15       1.0  0.81471  0.88790  0.49950  1.0000
  O   O16       1.0  0.18529  0.38790  0.00050  1.0000
  O   O17       1.0  0.29583  0.01370  0.53710  1.0000
  O   O18       1.0  0.70417  0.51370  0.96290  1.0000
  O   O19       1.0  0.70417  0.98630  0.46290  1.0000
  O   O20       1.0  0.29583  0.48630  0.03710  1.0000
  O   O21       1.0  0.45400  0.90840  0.61420  1.0000
  O   O22       1.0  0.54600  0.40840  0.88580  1.0000
  O   O23       1.0  0.54600  0.09160  0.38580  1.0000
  O   O24       1.0  0.45400  0.59160  0.11420  1.0000
  O   O25       1.0  0.58383  0.96147  0.67015  1.0000
  O   O26       1.0  0.41617  0.46147  0.82985  1.0000
  O   O27       1.0  0.41617  0.03853  0.32985  1.0000
  O   O28       1.0  0.58383  0.53853  0.17015  1.0000
  O   O29       1.0  0.49171  0.79300  0.78415  1.0000
  O   O30       1.0  0.50829  0.29300  0.71585  1.0000
  O   O31       1.0  0.50829  0.20700  0.21585  1.0000
  O   O32       1.0  0.49171  0.70700  0.28415  1.0000
  O   O33       1.0  0.41127  0.67500  0.87260  1.0000
  O   O34       1.0  0.58873  0.17500  0.62740  1.0000
  O   O35       1.0  0.58873  0.32500  0.12740  1.0000
  O   O36       1.0  0.41127  0.82500  0.37260  1.0000
  O   O37       1.0  0.52582  0.60180  0.96805  1.0000
  O   O38       1.0  0.47418  0.10180  0.53195  1.0000
  O   O39       1.0  0.47418  0.39820  0.03195  1.0000
  O   O40       1.0  0.52582  0.89820  0.46805  1.0000
  O   O41       1.0  0.25786  0.94620  0.31280  1.0000
  O   O42       1.0  0.74214  0.44620  0.18720  1.0000
  O   O43       1.0  0.74214  0.05380  0.68720  1.0000
  O   O44       1.0  0.25786  0.55380  0.81280  1.0000
  O   O45       1.0  0.13203  0.94880  0.30970  1.0000
  O   O46       1.0  0.86797  0.44880  0.19030  1.0000
  O   O47       1.0  0.86797  0.05120  0.69030  1.0000
  O   O48       1.0  0.13203  0.55120  0.80970  1.0000
  O   O49       1.0  0.09963  0.76150  0.23630  1.0000
  O   O50       1.0  0.90037  0.26150  0.26370  1.0000
  O   O51       1.0  0.90037  0.23850  0.76370  1.0000
  O   O52       1.0  0.09963  0.73850  0.73630  1.0000
  O   O53       1.0  0.96532  0.65390  0.18630  1.0000
  O   O54       1.0  0.03468  0.15390  0.31370  1.0000
  O   O55       1.0  0.03468  0.34610  0.81370  1.0000
  O   O56       1.0  0.96532  0.84610  0.68630  1.0000
  O   O57       1.0  0.02330  0.51210  0.15610  1.0000
  O   O58       1.0  0.97670  0.01210  0.34390  1.0000
  O   O59       1.0  0.97670  0.48790  0.84390  1.0000
  O   O60       1.0  0.02330  0.98790  0.65610  1.0000
  O   O61       1.0  0.31508  0.81580  0.47520  1.0000
  O   O62       1.0  0.68492  0.31580  0.02480  1.0000
  O   O63       1.0  0.68492  0.18420  0.52480  1.0000
  O   O64       1.0  0.31508  0.68420  0.97520  1.0000
  C   C1        1.0  0.26210  0.30280  0.82400  1.0000
  C   C2        1.0  0.73790  0.80280  0.67600  1.0000
  C   C3        1.0  0.73790  0.69720  0.17600  1.0000
  C   C4        1.0  0.26210  0.19720  0.32400  1.0000
  C   C5        1.0  0.29280  0.21880  0.77990  1.0000
  C   C6        1.0  0.70720  0.71880  0.72010  1.0000
  C   C7        1.0  0.70720  0.78120  0.22010  1.0000
  C   C8        1.0  0.29280  0.28120  0.27990  1.0000
  C   C9        1.0  0.36070  0.16030  0.81470  1.0000
  C   C10       1.0  0.63930  0.66030  0.68530  1.0000
  C   C11       1.0  0.63930  0.83970  0.18530  1.0000
  C   C12       1.0  0.36070  0.33970  0.31470  1.0000
  H   H1        1.0  0.40320  0.16440  0.87800  1.0000
  H   H2        1.0  0.59680  0.66440  0.62200  1.0000
  H   H3        1.0  0.59680  0.83560  0.12200  1.0000
  H   H4        1.0  0.40320  0.33560  0.37800  1.0000
  C   C13       1.0  0.35600  0.09180  0.73830  1.0000
  C   C14       1.0  0.64400  0.59180  0.76170  1.0000
  C   C15       1.0  0.64400  0.90820  0.26170  1.0000
  C   C16       1.0  0.35600  0.40820  0.23830  1.0000
  H   H5        1.0  0.39480  0.04080  0.74070  1.0000
  H   H6        1.0  0.60520  0.54080  0.75930  1.0000
  H   H7        1.0  0.60520  0.95920  0.25930  1.0000
  H   H8        1.0  0.39480  0.45920  0.24070  1.0000
  C   C17       1.0  0.28540  0.11300  0.66080  1.0000
  C   C18       1.0  0.71460  0.61300  0.83920  1.0000
  C   C19       1.0  0.71460  0.88700  0.33920  1.0000
  C   C20       1.0  0.28540  0.38700  0.16080  1.0000
  C   C21       1.0  0.25310  0.07620  0.55850  1.0000
  C   C22       1.0  0.74690  0.57620  0.94150  1.0000
  C   C23       1.0  0.74690  0.92380  0.44150  1.0000
  C   C24       1.0  0.25310  0.42380  0.05850  1.0000
  C   C25       1.0  0.52580  0.91280  0.67610  1.0000
  C   C26       1.0  0.47420  0.41280  0.82390  1.0000
  C   C27       1.0  0.47420  0.08720  0.32390  1.0000
  C   C28       1.0  0.52580  0.58720  0.17610  1.0000
  C   C29       1.0  0.54790  0.85390  0.76900  1.0000
  C   C30       1.0  0.45210  0.35390  0.73100  1.0000
  C   C31       1.0  0.45210  0.14610  0.23100  1.0000
  C   C32       1.0  0.54790  0.64610  0.26900  1.0000
  C   C33       1.0  0.62110  0.84420  0.84480  1.0000
  C   C34       1.0  0.37890  0.34420  0.65520  1.0000
  C   C35       1.0  0.37890  0.15580  0.15520  1.0000
  C   C36       1.0  0.62110  0.65580  0.34480  1.0000
  H   H9        1.0  0.66970  0.87890  0.85200  1.0000
  H   H10       1.0  0.33030  0.37890  0.64800  1.0000
  H   H11       1.0  0.33030  0.12110  0.14800  1.0000
  H   H12       1.0  0.66970  0.62110  0.35200  1.0000
  C   C37       1.0  0.61110  0.77270  0.91040  1.0000
  C   C38       1.0  0.38890  0.27270  0.58960  1.0000
  C   C39       1.0  0.38890  0.22730  0.08960  1.0000
  C   C40       1.0  0.61110  0.72730  0.41040  1.0000
  H   H13       1.0  0.65170  0.74970  0.97050  1.0000
  H   H14       1.0  0.34830  0.24970  0.52950  1.0000
  H   H15       1.0  0.34830  0.25030  0.02950  1.0000
  H   H16       1.0  0.65170  0.75030  0.47050  1.0000
  C   C41       1.0  0.53240  0.74290  0.87150  1.0000
  C   C42       1.0  0.46760  0.24290  0.62850  1.0000
  C   C43       1.0  0.46760  0.25710  0.12850  1.0000
  C   C44       1.0  0.53240  0.75710  0.37150  1.0000
  C   C45       1.0  0.48690  0.66920  0.90550  1.0000
  C   C46       1.0  0.51310  0.16920  0.59450  1.0000
  C   C47       1.0  0.51310  0.33080  0.09450  1.0000
  C   C48       1.0  0.48690  0.83080  0.40550  1.0000
  C   C49       1.0  0.19110  0.90520  0.29690  1.0000
  C   C50       1.0  0.80890  0.40520  0.20310  1.0000
  C   C51       1.0  0.80890  0.09480  0.70310  1.0000
  C   C52       1.0  0.19110  0.59480  0.79690  1.0000
  C   C53       1.0  0.17670  0.79890  0.26120  1.0000
  C   C54       1.0  0.82330  0.29890  0.23880  1.0000
  C   C55       1.0  0.82330  0.20110  0.73880  1.0000
  C   C56       1.0  0.17670  0.70110  0.76120  1.0000
  C   C57       1.0  0.22560  0.72370  0.25270  1.0000
  C   C58       1.0  0.77440  0.22370  0.24730  1.0000
  C   C59       1.0  0.77440  0.27630  0.74730  1.0000
  C   C60       1.0  0.22560  0.77630  0.75270  1.0000
  H   H17       1.0  0.28150  0.72990  0.26530  1.0000
  H   H18       1.0  0.71850  0.22990  0.23470  1.0000
  H   H19       1.0  0.71850  0.27010  0.73470  1.0000
  H   H20       1.0  0.28150  0.77010  0.76530  1.0000
  C   C61       1.0  0.17710  0.63340  0.22130  1.0000
  C   C62       1.0  0.82290  0.13340  0.27870  1.0000
  C   C63       1.0  0.82290  0.36660  0.77870  1.0000
  C   C64       1.0  0.17710  0.86660  0.72130  1.0000
  H   H21       1.0  0.19420  0.56740  0.20920  1.0000
  H   H22       1.0  0.80580  0.06740  0.29080  1.0000
  H   H23       1.0  0.80580  0.43260  0.79080  1.0000
  H   H24       1.0  0.19420  0.93260  0.70920  1.0000
  C   C65       1.0  0.10130  0.66060  0.21200  1.0000
  C   C66       1.0  0.89870  0.16060  0.28800  1.0000
  C   C67       1.0  0.89870  0.33940  0.78800  1.0000
  C   C68       1.0  0.10130  0.83940  0.71200  1.0000
  C   C69       1.0  0.02400  0.60270  0.18190  1.0000
  C   C70       1.0  0.97600  0.10270  0.31810  1.0000
  C   C71       1.0  0.97600  0.39730  0.81810  1.0000
  C   C72       1.0  0.02400  0.89730  0.68190  1.0000
  C   C73       1.0  0.32710  0.76640  0.55040  1.0000
  C   C74       1.0  0.67290  0.26640  0.94960  1.0000
  C   C75       1.0  0.67290  0.23360  0.44960  1.0000
  C   C76       1.0  0.32710  0.73360  0.05040  1.0000
  H   H25       1.0  0.32890  0.80360  0.60630  1.0000
  H   H26       1.0  0.67110  0.30360  0.89370  1.0000
  H   H27       1.0  0.67110  0.19640  0.39370  1.0000
  H   H28       1.0  0.32890  0.69640  0.10630  1.0000
  C   C77       1.0  0.35050  0.61210  0.64880  1.0000
  C   C78       1.0  0.64950  0.11210  0.85120  1.0000
  C   C79       1.0  0.64950  0.38790  0.35120  1.0000
  C   C80       1.0  0.35050  0.88790  0.14880  1.0000
  H   H29       1.0  0.35680  0.53830  0.63910  1.0000
  H   H30       1.0  0.64320  0.03830  0.86090  1.0000
  H   H31       1.0  0.64320  0.46170  0.36090  1.0000
  H   H32       1.0  0.35680  0.96170  0.13910  1.0000
  H   H33       1.0  0.39960  0.63820  0.70150  1.0000
  H   H34       1.0  0.60040  0.13820  0.79850  1.0000
  H   H35       1.0  0.60040  0.36180  0.29850  1.0000
  H   H36       1.0  0.39960  0.86180  0.20150  1.0000
  H   H37       1.0  0.30390  0.62250  0.66640  1.0000
  H   H38       1.0  0.69610  0.12250  0.83360  1.0000
  H   H39       1.0  0.69610  0.37750  0.33360  1.0000
  H   H40       1.0  0.30390  0.87750  0.16640  1.0000
  C   C81       1.0  0.34580  0.60620  0.48190  1.0000
  C   C82       1.0  0.65420  0.10620  0.01810  1.0000
  C   C83       1.0  0.65420  0.39380  0.51810  1.0000
  C   C84       1.0  0.34580  0.89380  0.98190  1.0000
  H   H41       1.0  0.35310  0.53340  0.50160  1.0000
  H   H42       1.0  0.64690  0.03340  0.99840  1.0000
  H   H43       1.0  0.64690  0.46660  0.49840  1.0000
  H   H44       1.0  0.35310  0.96660  0.00160  1.0000
  H   H45       1.0  0.29690  0.61370  0.42160  1.0000
  H   H46       1.0  0.70310  0.11370  0.07840  1.0000
  H   H47       1.0  0.70310  0.38630  0.57840  1.0000
  H   H48       1.0  0.29690  0.88630  0.92160  1.0000
  H   H49       1.0  0.39300  0.63010  0.47030  1.0000
  H   H50       1.0  0.60700  0.13010  0.02970  1.0000
  H   H51       1.0  0.60700  0.36990  0.52970  1.0000
  H   H52       1.0  0.39300  0.86990  0.97030  1.0000
  N   N1        1.0  0.33740  0.66730  0.55910  1.0000
  N   N2        1.0  0.66260  0.16730  0.94090  1.0000
  N   N3        1.0  0.66260  0.33270  0.44090  1.0000
  N   N4        1.0  0.33740  0.83270  0.05910  1.0000
