data_image0
_chemical_formula_structural       Eu4Zn4O64C12H4C4H4C20H4C4H4C20H4C4H4C12H4C4H12C4H12N4
_chemical_formula_sum              "Eu4 Zn4 O64 C84 H52 N4"
_cell_length_a       18.0405
_cell_length_b       12.9922
_cell_length_c       14.9125
_cell_angle_alpha    90
_cell_angle_beta     113.297
_cell_angle_gamma    90

_space_group_name_H-M_alt    "P 1"
_space_group_IT_number       1

loop_
  _space_group_symop_operation_xyz
  'x, y, z'

loop_
  _atom_site_type_symbol
  _atom_site_label
  _atom_site_symmetry_multiplicity
  _atom_site_fract_x
  _atom_site_fract_y
  _atom_site_fract_z
  _atom_site_occupancy
  Eu  Eu1       1.0  0.12181  0.02431  0.04783  1.0000
  Eu  Eu2       1.0  0.87819  0.52431  0.45217  1.0000
  Eu  Eu3       1.0  0.87819  0.97569  0.95217  1.0000
  Eu  Eu4       1.0  0.12181  0.47569  0.54783  1.0000
  Zn  Zn1       1.0  0.35828  0.90953  0.14172  1.0000
  Zn  Zn2       1.0  0.64172  0.40953  0.35828  1.0000
  Zn  Zn3       1.0  0.64172  0.09047  0.85828  1.0000
  Zn  Zn4       1.0  0.35828  0.59047  0.64172  1.0000
  O   O1        1.0  0.18727  0.84908  0.10420  1.0000
  O   O2        1.0  0.81273  0.34908  0.39580  1.0000
  O   O3        1.0  0.81273  0.15092  0.89580  1.0000
  O   O4        1.0  0.18727  0.65092  0.60420  1.0000
  O   O5        1.0  0.31312  0.81804  0.21227  1.0000
  O   O6        1.0  0.68688  0.31804  0.28773  1.0000
  O   O7        1.0  0.68688  0.18196  0.78773  1.0000
  O   O8        1.0  0.31312  0.68196  0.71227  1.0000
  O   O9        1.0  0.25560  0.69166  0.31448  1.0000
  O   O10       1.0  0.74440  0.19166  0.18552  1.0000
  O   O11       1.0  0.74440  0.30834  0.68552  1.0000
  O   O12       1.0  0.25560  0.80834  0.81448  1.0000
  O   O13       1.0  0.31559  0.61370  0.49950  1.0000
  O   O14       1.0  0.68441  0.11370  0.00050  1.0000
  O   O15       1.0  0.68441  0.38630  0.50050  1.0000
  O   O16       1.0  0.31559  0.88630  0.99950  1.0000
  O   O17       1.0  0.20639  0.51429  0.46359  1.0000
  O   O18       1.0  0.79361  0.01429  0.03641  1.0000
  O   O19       1.0  0.79361  0.48571  0.53641  1.0000
  O   O20       1.0  0.20639  0.98571  0.96359  1.0000
  O   O21       1.0  0.09083  0.17559  0.13015  1.0000
  O   O22       1.0  0.90917  0.67559  0.36985  1.0000
  O   O23       1.0  0.90917  0.82441  0.86985  1.0000
  O   O24       1.0  0.09083  0.32441  0.63015  1.0000
  O   O25       1.0  0.97745  0.10377  0.03103  1.0000
  O   O26       1.0  0.02255  0.60377  0.46897  1.0000
  O   O27       1.0  0.02255  0.89623  0.96897  1.0000
  O   O28       1.0  0.97745  0.39623  0.53103  1.0000
  O   O29       1.0  0.00908  0.29406  0.21514  1.0000
  O   O30       1.0  0.99092  0.79406  0.28486  1.0000
  O   O31       1.0  0.99092  0.70594  0.78486  1.0000
  O   O32       1.0  0.00908  0.20594  0.71514  1.0000
  O   O33       1.0  0.04661  0.41202  0.38314  1.0000
  O   O34       1.0  0.95339  0.91202  0.11686  1.0000
  O   O35       1.0  0.95339  0.58798  0.61686  1.0000
  O   O36       1.0  0.04661  0.08798  0.88314  1.0000
  O   O37       1.0  0.91640  0.46100  0.32826  1.0000
  O   O38       1.0  0.08360  0.96100  0.17174  1.0000
  O   O39       1.0  0.08360  0.53900  0.67174  1.0000
  O   O40       1.0  0.91640  0.03900  0.82826  1.0000
  O   O41       1.0  0.24357  0.05305  0.18757  1.0000
  O   O42       1.0  0.75643  0.55305  0.31243  1.0000
  O   O43       1.0  0.75643  0.94695  0.81243  1.0000
  O   O44       1.0  0.24357  0.44695  0.68757  1.0000
  O   O45       1.0  0.36835  0.05063  0.18972  1.0000
  O   O46       1.0  0.63165  0.55063  0.31028  1.0000
  O   O47       1.0  0.63165  0.94937  0.81028  1.0000
  O   O48       1.0  0.36835  0.44937  0.68972  1.0000
  O   O49       1.0  0.40084  0.23768  0.26320  1.0000
  O   O50       1.0  0.59916  0.73768  0.23680  1.0000
  O   O51       1.0  0.59916  0.76232  0.73680  1.0000
  O   O52       1.0  0.40084  0.26232  0.76320  1.0000
  O   O53       1.0  0.47699  0.48590  0.34400  1.0000
  O   O54       1.0  0.52301  0.98590  0.15600  1.0000
  O   O55       1.0  0.52301  0.51410  0.65600  1.0000
  O   O56       1.0  0.47699  0.01410  0.84400  1.0000
  O   O57       1.0  0.53467  0.34578  0.31279  1.0000
  O   O58       1.0  0.46533  0.84578  0.18721  1.0000
  O   O59       1.0  0.46533  0.65422  0.68721  1.0000
  O   O60       1.0  0.53467  0.15422  0.81279  1.0000
  O   O61       1.0  0.18432  0.18415  0.02395  1.0000
  O   O62       1.0  0.81568  0.68415  0.47605  1.0000
  O   O63       1.0  0.81568  0.81585  0.97605  1.0000
  O   O64       1.0  0.18432  0.31585  0.52395  1.0000
  C   C1        1.0  0.23760  0.80320  0.17560  1.0000
  C   C2        1.0  0.76240  0.30320  0.32440  1.0000
  C   C3        1.0  0.76240  0.19680  0.82440  1.0000
  C   C4        1.0  0.23760  0.69680  0.67560  1.0000
  C   C5        1.0  0.20780  0.71960  0.22120  1.0000
  C   C6        1.0  0.79220  0.21960  0.27880  1.0000
  C   C7        1.0  0.79220  0.28040  0.77880  1.0000
  C   C8        1.0  0.20780  0.78040  0.72120  1.0000
  C   C9        1.0  0.13950  0.66130  0.18660  1.0000
  C   C10       1.0  0.86050  0.16130  0.31340  1.0000
  C   C11       1.0  0.86050  0.33870  0.81340  1.0000
  C   C12       1.0  0.13950  0.83870  0.68660  1.0000
  H   H1        1.0  0.09680  0.66560  0.12390  1.0000
  H   H2        1.0  0.90320  0.16560  0.37610  1.0000
  H   H3        1.0  0.90320  0.33440  0.87610  1.0000
  H   H4        1.0  0.09680  0.83440  0.62390  1.0000
  C   C13       1.0  0.14490  0.59270  0.26340  1.0000
  C   C14       1.0  0.85510  0.09270  0.23660  1.0000
  C   C15       1.0  0.85510  0.40730  0.73660  1.0000
  C   C16       1.0  0.14490  0.90730  0.76340  1.0000
  H   H5        1.0  0.10680  0.54160  0.26170  1.0000
  H   H6        1.0  0.89320  0.04160  0.23830  1.0000
  H   H7        1.0  0.89320  0.45840  0.73830  1.0000
  H   H8        1.0  0.10680  0.95840  0.76170  1.0000
  C   C17       1.0  0.21540  0.61480  0.33940  1.0000
  C   C18       1.0  0.78460  0.11480  0.16060  1.0000
  C   C19       1.0  0.78460  0.38520  0.66060  1.0000
  C   C20       1.0  0.21540  0.88520  0.83940  1.0000
  C   C21       1.0  0.24840  0.57770  0.44180  1.0000
  C   C22       1.0  0.75160  0.07770  0.05820  1.0000
  C   C23       1.0  0.75160  0.42230  0.55820  1.0000
  C   C24       1.0  0.24840  0.92230  0.94180  1.0000
  C   C25       1.0  0.01553  0.17020  0.09530  1.0000
  C   C26       1.0  0.98447  0.67020  0.40470  1.0000
  C   C27       1.0  0.98447  0.82980  0.90470  1.0000
  C   C28       1.0  0.01553  0.32980  0.59530  1.0000
  C   C29       1.0  0.96906  0.24340  0.12830  1.0000
  C   C30       1.0  0.03094  0.74340  0.37170  1.0000
  C   C31       1.0  0.03094  0.75660  0.87170  1.0000
  C   C32       1.0  0.96906  0.25660  0.62830  1.0000
  C   C33       1.0  0.89080  0.27190  0.08900  1.0000
  C   C34       1.0  0.10920  0.77190  0.41100  1.0000
  C   C35       1.0  0.10920  0.72810  0.91100  1.0000
  C   C36       1.0  0.89080  0.22810  0.58900  1.0000
  H   H9        1.0  0.85080  0.24840  0.02910  1.0000
  H   H10       1.0  0.14920  0.74840  0.47090  1.0000
  H   H11       1.0  0.14920  0.75160  0.97090  1.0000
  H   H12       1.0  0.85080  0.25160  0.52910  1.0000
  C   C37       1.0  0.87980  0.34370  0.15420  1.0000
  C   C38       1.0  0.12020  0.84370  0.34580  1.0000
  C   C39       1.0  0.12020  0.65630  0.84580  1.0000
  C   C40       1.0  0.87980  0.15630  0.65420  1.0000
  H   H13       1.0  0.83100  0.37760  0.14670  1.0000
  H   H14       1.0  0.16900  0.87760  0.35330  1.0000
  H   H15       1.0  0.16900  0.62240  0.85330  1.0000
  H   H16       1.0  0.83100  0.12240  0.64670  1.0000
  C   C41       1.0  0.95258  0.35450  0.22960  1.0000
  C   C42       1.0  0.04742  0.85450  0.27040  1.0000
  C   C43       1.0  0.04742  0.64550  0.77040  1.0000
  C   C44       1.0  0.95258  0.14550  0.72960  1.0000
  C   C45       1.0  0.97482  0.41350  0.32180  1.0000
  C   C46       1.0  0.02518  0.91350  0.17820  1.0000
  C   C47       1.0  0.02518  0.58650  0.67820  1.0000
  C   C48       1.0  0.97482  0.08650  0.82180  1.0000
  C   C49       1.0  0.31000  0.09370  0.20270  1.0000
  C   C50       1.0  0.69000  0.59370  0.29730  1.0000
  C   C51       1.0  0.69000  0.90630  0.79730  1.0000
  C   C52       1.0  0.31000  0.40630  0.70270  1.0000
  C   C53       1.0  0.32420  0.20040  0.23870  1.0000
  C   C54       1.0  0.67580  0.70040  0.26130  1.0000
  C   C55       1.0  0.67580  0.79960  0.76130  1.0000
  C   C56       1.0  0.32420  0.29960  0.73870  1.0000
  C   C57       1.0  0.27510  0.27550  0.24690  1.0000
  C   C58       1.0  0.72490  0.77550  0.25310  1.0000
  C   C59       1.0  0.72490  0.72450  0.75310  1.0000
  C   C60       1.0  0.27510  0.22450  0.74690  1.0000
  H   H17       1.0  0.21940  0.26930  0.23420  1.0000
  H   H18       1.0  0.78060  0.76930  0.26580  1.0000
  H   H19       1.0  0.78060  0.73070  0.76580  1.0000
  H   H20       1.0  0.21940  0.23070  0.73420  1.0000
  C   C61       1.0  0.32340  0.36510  0.27810  1.0000
  C   C62       1.0  0.67660  0.86510  0.22190  1.0000
  C   C63       1.0  0.67660  0.63490  0.72190  1.0000
  C   C64       1.0  0.32340  0.13490  0.77810  1.0000
  H   H21       1.0  0.30610  0.43080  0.29020  1.0000
  H   H22       1.0  0.69390  0.93080  0.20980  1.0000
  H   H23       1.0  0.69390  0.56920  0.70980  1.0000
  H   H24       1.0  0.30610  0.06920  0.79020  1.0000
  C   C65       1.0  0.39900  0.33890  0.28760  1.0000
  C   C66       1.0  0.60100  0.83890  0.21240  1.0000
  C   C67       1.0  0.60100  0.66110  0.71240  1.0000
  C   C68       1.0  0.39900  0.16110  0.78760  1.0000
  C   C69       1.0  0.47620  0.39600  0.31780  1.0000
  C   C70       1.0  0.52380  0.89600  0.18220  1.0000
  C   C71       1.0  0.52380  0.60400  0.68220  1.0000
  C   C72       1.0  0.47620  0.10400  0.81780  1.0000
  C   C73       1.0  0.17330  0.23400  0.95020  1.0000
  C   C74       1.0  0.82670  0.73400  0.54980  1.0000
  C   C75       1.0  0.82670  0.76600  0.04980  1.0000
  C   C76       1.0  0.17330  0.26600  0.45020  1.0000
  H   H25       1.0  0.17140  0.19700  0.89440  1.0000
  H   H26       1.0  0.82860  0.69700  0.60560  1.0000
  H   H27       1.0  0.82860  0.80300  0.10560  1.0000
  H   H28       1.0  0.17140  0.30300  0.39440  1.0000
  C   C77       1.0  0.15220  0.38830  0.85290  1.0000
  C   C78       1.0  0.84780  0.88830  0.64710  1.0000
  C   C79       1.0  0.84780  0.61170  0.14710  1.0000
  C   C80       1.0  0.15220  0.11170  0.35290  1.0000
  H   H29       1.0  0.19770  0.43510  0.86480  1.0000
  H   H30       1.0  0.80230  0.93510  0.63520  1.0000
  H   H31       1.0  0.80230  0.56490  0.13520  1.0000
  H   H32       1.0  0.19770  0.06490  0.36480  1.0000
  H   H33       1.0  0.10200  0.42790  0.83210  1.0000
  H   H34       1.0  0.89800  0.92790  0.66790  1.0000
  H   H35       1.0  0.89800  0.57210  0.16790  1.0000
  H   H36       1.0  0.10200  0.07210  0.33210  1.0000
  H   H37       1.0  0.14900  0.33910  0.80170  1.0000
  H   H38       1.0  0.85100  0.83910  0.69830  1.0000
  H   H39       1.0  0.85100  0.66090  0.19830  1.0000
  H   H40       1.0  0.14900  0.16090  0.30170  1.0000
  C   C81       1.0  0.15610  0.39350  0.01930  1.0000
  C   C82       1.0  0.84390  0.89350  0.48070  1.0000
  C   C83       1.0  0.84390  0.60650  0.98070  1.0000
  C   C84       1.0  0.15610  0.10650  0.51930  1.0000
  H   H41       1.0  0.13730  0.34900  0.05900  1.0000
  H   H42       1.0  0.86270  0.84900  0.44100  1.0000
  H   H43       1.0  0.86270  0.65100  0.94100  1.0000
  H   H44       1.0  0.13730  0.15100  0.55900  1.0000
  H   H45       1.0  0.11710  0.44910  0.99110  1.0000
  H   H46       1.0  0.88290  0.94910  0.50890  1.0000
  H   H47       1.0  0.88290  0.55090  0.00890  1.0000
  H   H48       1.0  0.11710  0.05090  0.49110  1.0000
  H   H49       1.0  0.20860  0.42300  0.06030  1.0000
  H   H50       1.0  0.79140  0.92300  0.43970  1.0000
  H   H51       1.0  0.79140  0.57700  0.93970  1.0000
  H   H52       1.0  0.20860  0.07700  0.56030  1.0000
  N   N1        1.0  0.16390  0.33350  0.94130  1.0000
  N   N2        1.0  0.83610  0.83350  0.55870  1.0000
  N   N3        1.0  0.83610  0.66650  0.05870  1.0000
  N   N4        1.0  0.16390  0.16650  0.44130  1.0000
