data_image0
_chemical_formula_structural       Dy4P4O32C6H2C4H4C4H4C8H4C4H4C12H4C4H4C8H4C4H4C12H4C4H4C8H4C4H4C4
_chemical_formula_sum              "Dy4 P4 O32 C86 H50"
_cell_length_a       14.537
_cell_length_b       10.492
_cell_length_c       23.403
_cell_angle_alpha    90
_cell_angle_beta     107.32
_cell_angle_gamma    90

_space_group_name_H-M_alt    "P 1"
_space_group_IT_number       1

loop_
  _space_group_symop_operation_xyz
  'x, y, z'

loop_
  _atom_site_type_symbol
  _atom_site_label
  _atom_site_symmetry_multiplicity
  _atom_site_fract_x
  _atom_site_fract_y
  _atom_site_fract_z
  _atom_site_occupancy
  Dy  Dy1       1.0  0.15497  0.93606  0.22651  1.0000
  Dy  Dy2       1.0  0.84503  0.93606  0.27348  1.0000
  Dy  Dy3       1.0  0.84503  0.06394  0.77348  1.0000
  Dy  Dy4       1.0  0.15497  0.06394  0.72651  1.0000
  P   P1        1.0  0.23095  0.14155  0.12079  1.0000
  P   P2        1.0  0.76905  0.14155  0.37921  1.0000
  P   P3        1.0  0.76905  0.85845  0.87921  1.0000
  P   P4        1.0  0.23095  0.85845  0.62079  1.0000
  O   O1        1.0  0.17370  0.05480  0.14790  1.0000
  O   O2        1.0  0.82630  0.05480  0.35210  1.0000
  O   O3        1.0  0.82630  0.94520  0.85210  1.0000
  O   O4        1.0  0.17370  0.94520  0.64790  1.0000
  O   O5        1.0  0.15460  0.70650  0.23600  1.0000
  O   O6        1.0  0.84540  0.70650  0.26400  1.0000
  O   O7        1.0  0.84540  0.29350  0.76400  1.0000
  O   O8        1.0  0.15460  0.29350  0.73600  1.0000
  O   O9        1.0  0.07370  0.12250  0.23610  1.0000
  O   O10       1.0  0.92630  0.12250  0.26390  1.0000
  O   O11       1.0  0.92630  0.87750  0.76390  1.0000
  O   O12       1.0  0.07370  0.87750  0.73610  1.0000
  O   O13       1.0  0.18900  0.78150  0.15680  1.0000
  O   O14       1.0  0.81100  0.78150  0.34320  1.0000
  O   O15       1.0  0.81100  0.21850  0.84320  1.0000
  O   O16       1.0  0.18900  0.21850  0.65680  1.0000
  O   O17       1.0  0.99820  0.11370  0.82470  1.0000
  O   O18       1.0  0.00180  0.11370  0.67530  1.0000
  O   O19       1.0  0.00180  0.88630  0.17530  1.0000
  O   O20       1.0  0.99820  0.88630  0.32470  1.0000
  O   O21       1.0  0.14880  0.09310  0.82260  1.0000
  O   O22       1.0  0.85120  0.09310  0.67740  1.0000
  O   O23       1.0  0.85120  0.90690  0.17740  1.0000
  O   O24       1.0  0.14880  0.90690  0.32260  1.0000
  O   O25       1.0  0.71910  0.08320  0.22140  1.0000
  O   O26       1.0  0.28090  0.08320  0.27860  1.0000
  O   O27       1.0  0.28090  0.91680  0.77860  1.0000
  O   O28       1.0  0.71910  0.91680  0.72140  1.0000
  O   O29       1.0  0.67680  0.88350  0.22850  1.0000
  O   O30       1.0  0.32320  0.88350  0.27150  1.0000
  O   O31       1.0  0.32320  0.11650  0.77150  1.0000
  O   O32       1.0  0.67680  0.11650  0.72850  1.0000
  C   C1        1.0  0.21910  0.30310  0.13980  1.0000
  C   C2        1.0  0.78090  0.30310  0.36020  1.0000
  C   C3        1.0  0.78090  0.69690  0.86020  1.0000
  C   C4        1.0  0.21910  0.69690  0.63980  1.0000
  C   C5        1.0  0.00000  0.16690  0.25000  1.0000
  C   C6        1.0  0.00000  0.83310  0.75000  1.0000
  H   H1        1.0  0.00000  0.25550  0.25000  1.0000
  H   H2        1.0  0.00000  0.74450  0.75000  1.0000
  C   C7        1.0  0.20550  0.33250  0.19480  1.0000
  C   C8        1.0  0.79450  0.33250  0.30520  1.0000
  C   C9        1.0  0.79450  0.66750  0.80520  1.0000
  C   C10       1.0  0.20550  0.66750  0.69480  1.0000
  H   H3        1.0  0.20400  0.26690  0.22130  1.0000
  H   H4        1.0  0.79600  0.26690  0.27870  1.0000
  H   H5        1.0  0.79600  0.73310  0.77870  1.0000
  H   H6        1.0  0.20400  0.73310  0.72130  1.0000
  C   C11       1.0  0.19420  0.45820  0.21120  1.0000
  C   C12       1.0  0.80580  0.45820  0.28880  1.0000
  C   C13       1.0  0.80580  0.54180  0.78880  1.0000
  C   C14       1.0  0.19420  0.54180  0.71120  1.0000
  H   H7        1.0  0.18650  0.47590  0.24840  1.0000
  H   H8        1.0  0.81350  0.47590  0.25160  1.0000
  H   H9        1.0  0.81350  0.52410  0.75160  1.0000
  H   H10       1.0  0.18650  0.52410  0.74840  1.0000
  C   C15       1.0  0.19440  0.55380  0.17260  1.0000
  C   C16       1.0  0.80560  0.55380  0.32740  1.0000
  C   C17       1.0  0.80560  0.44620  0.82740  1.0000
  C   C18       1.0  0.19440  0.44620  0.67260  1.0000
  C   C19       1.0  0.20770  0.53080  0.11690  1.0000
  C   C20       1.0  0.79230  0.53080  0.38310  1.0000
  C   C21       1.0  0.79230  0.46920  0.88310  1.0000
  C   C22       1.0  0.20770  0.46920  0.61690  1.0000
  H   H11       1.0  0.20770  0.59720  0.09060  1.0000
  H   H12       1.0  0.79230  0.59720  0.40940  1.0000
  H   H13       1.0  0.79230  0.40280  0.90940  1.0000
  H   H14       1.0  0.20770  0.40280  0.59060  1.0000
  C   C23       1.0  0.22090  0.40550  0.10200  1.0000
  C   C24       1.0  0.77910  0.40550  0.39800  1.0000
  C   C25       1.0  0.77910  0.59450  0.89800  1.0000
  C   C26       1.0  0.22090  0.59450  0.60200  1.0000
  H   H15       1.0  0.23130  0.38910  0.06540  1.0000
  H   H16       1.0  0.76870  0.38910  0.43460  1.0000
  H   H17       1.0  0.76870  0.61090  0.93460  1.0000
  H   H18       1.0  0.23130  0.61090  0.56540  1.0000
  C   C27       1.0  0.17850  0.69140  0.18850  1.0000
  C   C28       1.0  0.82150  0.69140  0.31150  1.0000
  C   C29       1.0  0.82150  0.30860  0.81150  1.0000
  C   C30       1.0  0.17850  0.30860  0.68850  1.0000
  C   C31       1.0  0.18970  0.13180  0.04030  1.0000
  C   C32       1.0  0.81030  0.13180  0.45970  1.0000
  C   C33       1.0  0.81030  0.86820  0.95970  1.0000
  C   C34       1.0  0.18970  0.86820  0.54030  1.0000
  C   C35       1.0  0.09290  0.12960  0.01090  1.0000
  C   C36       1.0  0.90710  0.12960  0.48910  1.0000
  C   C37       1.0  0.90710  0.87040  0.98910  1.0000
  C   C38       1.0  0.09290  0.87040  0.51090  1.0000
  H   H19       1.0  0.04900  0.13350  0.03280  1.0000
  H   H20       1.0  0.95100  0.13350  0.46720  1.0000
  H   H21       1.0  0.95100  0.86650  0.96720  1.0000
  H   H22       1.0  0.04900  0.86650  0.53280  1.0000
  C   C39       1.0  0.05970  0.12200  0.95000  1.0000
  C   C40       1.0  0.94030  0.12200  0.55000  1.0000
  C   C41       1.0  0.94030  0.87800  0.05000  1.0000
  C   C42       1.0  0.05970  0.87800  0.45000  1.0000
  H   H23       1.0  0.99370  0.12110  0.93090  1.0000
  H   H24       1.0  0.00630  0.12110  0.56910  1.0000
  H   H25       1.0  0.00630  0.87890  0.06910  1.0000
  H   H26       1.0  0.99370  0.87890  0.43090  1.0000
  C   C43       1.0  0.12300  0.11550  0.91650  1.0000
  C   C44       1.0  0.87700  0.11550  0.58350  1.0000
  C   C45       1.0  0.87700  0.88450  0.08350  1.0000
  C   C46       1.0  0.12300  0.88450  0.41650  1.0000
  C   C47       1.0  0.22020  0.11970  0.94460  1.0000
  C   C48       1.0  0.77980  0.11970  0.55540  1.0000
  C   C49       1.0  0.77980  0.88030  0.05540  1.0000
  C   C50       1.0  0.22020  0.88030  0.44460  1.0000
  H   H27       1.0  0.26320  0.11790  0.92210  1.0000
  H   H28       1.0  0.73680  0.11790  0.57790  1.0000
  H   H29       1.0  0.73680  0.88210  0.07790  1.0000
  H   H30       1.0  0.26320  0.88210  0.42210  1.0000
  C   C51       1.0  0.25470  0.12670  0.00690  1.0000
  C   C52       1.0  0.74530  0.12670  0.49310  1.0000
  C   C53       1.0  0.74530  0.87330  0.99310  1.0000
  C   C54       1.0  0.25470  0.87330  0.50690  1.0000
  H   H31       1.0  0.32060  0.12790  0.02600  1.0000
  H   H32       1.0  0.67940  0.12790  0.47400  1.0000
  H   H33       1.0  0.67940  0.87210  0.97400  1.0000
  H   H34       1.0  0.32060  0.87210  0.52600  1.0000
  C   C55       1.0  0.08600  0.10550  0.84920  1.0000
  C   C56       1.0  0.91400  0.10550  0.65080  1.0000
  C   C57       1.0  0.91400  0.89450  0.15080  1.0000
  C   C58       1.0  0.08600  0.89450  0.34920  1.0000
  C   C59       1.0  0.35810  0.10180  0.14540  1.0000
  C   C60       1.0  0.64190  0.10180  0.35460  1.0000
  C   C61       1.0  0.64190  0.89820  0.85460  1.0000
  C   C62       1.0  0.35810  0.89820  0.64540  1.0000
  C   C63       1.0  0.38420  0.97510  0.15190  1.0000
  C   C64       1.0  0.61580  0.97510  0.34810  1.0000
  C   C65       1.0  0.61580  0.02490  0.84810  1.0000
  C   C66       1.0  0.38420  0.02490  0.65190  1.0000
  H   H35       1.0  0.33680  0.91250  0.14250  1.0000
  H   H36       1.0  0.66320  0.91250  0.35750  1.0000
  H   H37       1.0  0.66320  0.08750  0.85750  1.0000
  H   H38       1.0  0.33680  0.08750  0.64250  1.0000
  C   C67       1.0  0.47910  0.94060  0.17210  1.0000
  C   C68       1.0  0.52090  0.94060  0.32790  1.0000
  C   C69       1.0  0.52090  0.05940  0.82790  1.0000
  C   C70       1.0  0.47910  0.05940  0.67210  1.0000
  H   H39       1.0  0.49560  0.85480  0.17650  1.0000
  H   H40       1.0  0.50440  0.85480  0.32350  1.0000
  H   H41       1.0  0.50440  0.14520  0.82350  1.0000
  H   H42       1.0  0.49560  0.14520  0.67650  1.0000
  C   C71       1.0  0.55010  0.03150  0.18600  1.0000
  C   C72       1.0  0.44990  0.03150  0.31400  1.0000
  C   C73       1.0  0.44990  0.96850  0.81400  1.0000
  C   C74       1.0  0.55010  0.96850  0.68600  1.0000
  C   C75       1.0  0.52520  0.15860  0.17780  1.0000
  C   C76       1.0  0.47480  0.15860  0.32220  1.0000
  C   C77       1.0  0.47480  0.84140  0.82220  1.0000
  C   C78       1.0  0.52520  0.84140  0.67780  1.0000
  H   H43       1.0  0.57330  0.22020  0.18540  1.0000
  H   H44       1.0  0.42670  0.22020  0.31460  1.0000
  H   H45       1.0  0.42670  0.77980  0.81460  1.0000
  H   H46       1.0  0.57330  0.77980  0.68540  1.0000
  C   C79       1.0  0.42870  0.19580  0.15820  1.0000
  C   C80       1.0  0.57130  0.19580  0.34180  1.0000
  C   C81       1.0  0.57130  0.80420  0.84180  1.0000
  C   C82       1.0  0.42870  0.80420  0.65820  1.0000
  H   H47       1.0  0.41200  0.28160  0.15370  1.0000
  H   H48       1.0  0.58800  0.28160  0.34630  1.0000
  H   H49       1.0  0.58800  0.71840  0.84630  1.0000
  H   H50       1.0  0.41200  0.71840  0.65370  1.0000
  C   C83       1.0  0.65440  0.99700  0.21280  1.0000
  C   C84       1.0  0.34560  0.99700  0.28720  1.0000
  C   C85       1.0  0.34560  0.00300  0.78720  1.0000
  C   C86       1.0  0.65440  0.00300  0.71280  1.0000
