data_image0
_chemical_formula_structural       Mn8O40C6H2C2H2C4H2C2H2C6H2C2H2C4H2C2H2C6H2C2H2C4H2C2H2C6H2C2H2C4H2C2H2C6H2C2H2C4H2C2H2C6H2C2H2C4H2C2H2C6H2C2H2C4H2C2H2C6H2C2H2C4H2C2H2C6H2C2H2C2H2C6H2C2H2C4H2C2H2C4H2C2H6C2H6C2H6C2H6C2H6C2H6C2H6C2H6C2H6C2H6
_chemical_formula_sum              "Mn8 O40 C160 H140"
_cell_length_a       13.2372
_cell_length_b       16.1349
_cell_length_c       27.301
_cell_angle_alpha    101.212
_cell_angle_beta     90.012
_cell_angle_gamma    114.199

_space_group_name_H-M_alt    "P 1"
_space_group_IT_number       1

loop_
  _space_group_symop_operation_xyz
  'x, y, z'

loop_
  _atom_site_type_symbol
  _atom_site_label
  _atom_site_symmetry_multiplicity
  _atom_site_fract_x
  _atom_site_fract_y
  _atom_site_fract_z
  _atom_site_occupancy
  Mn  Mn1       1.0  0.42859  0.60850  0.77747  1.0000
  Mn  Mn2       1.0  0.57141  0.39150  0.22253  1.0000
  Mn  Mn3       1.0  0.82030  0.39156  0.72256  1.0000
  Mn  Mn4       1.0  0.17970  0.60844  0.27744  1.0000
  Mn  Mn5       1.0  0.62560  0.50657  0.73311  1.0000
  Mn  Mn6       1.0  0.37440  0.49343  0.26689  1.0000
  Mn  Mn7       1.0  0.11930  0.49327  0.76717  1.0000
  Mn  Mn8       1.0  0.88070  0.50673  0.23283  1.0000
  O   O1        1.0  0.08970  0.38790  0.69930  1.0000
  O   O2        1.0  0.91030  0.61210  0.30070  1.0000
  O   O3        1.0  0.94380  0.40420  0.67010  1.0000
  O   O4        1.0  0.05620  0.59580  0.32990  1.0000
  O   O5        1.0  0.87070  0.30030  0.75080  1.0000
  O   O6        1.0  0.12930  0.69970  0.24920  1.0000
  O   O7        1.0  0.02420  0.38640  0.80490  1.0000
  O   O8        1.0  0.97580  0.61360  0.19510  1.0000
  O   O9        1.0  0.94990  0.52570  0.77350  1.0000
  O   O10       1.0  0.05010  0.47430  0.22650  1.0000
  O   O11       1.0  0.82510  0.53380  0.72460  1.0000
  O   O12       1.0  0.17490  0.46620  0.27540  1.0000
  O   O13       1.0  0.70420  0.36530  0.77350  1.0000
  O   O14       1.0  0.29580  0.63470  0.22650  1.0000
  O   O15       1.0  0.70120  0.32810  0.66070  1.0000
  O   O16       1.0  0.29880  0.67190  0.33930  1.0000
  O   O17       1.0  0.18930  0.58320  0.83790  1.0000
  O   O18       1.0  0.81070  0.41680  0.16210  1.0000
  O   O19       1.0  0.36870  0.67260  0.83850  1.0000
  O   O20       1.0  0.63130  0.32740  0.16150  1.0000
  O   O21       1.0  0.28710  0.46540  0.77610  1.0000
  O   O22       1.0  0.71290  0.53460  0.22390  1.0000
  O   O23       1.0  0.42430  0.47640  0.72750  1.0000
  O   O24       1.0  0.57570  0.52360  0.27250  1.0000
  O   O25       1.0  0.15710  0.59990  0.72650  1.0000
  O   O26       1.0  0.84290  0.40010  0.27350  1.0000
  O   O27       1.0  0.33530  0.63650  0.72630  1.0000
  O   O28       1.0  0.66470  0.36350  0.27370  1.0000
  O   O29       1.0  0.57200  0.69970  0.74820  1.0000
  O   O30       1.0  0.42800  0.30030  0.25180  1.0000
  O   O31       1.0  0.63580  0.61100  0.69520  1.0000
  O   O32       1.0  0.36420  0.38900  0.30480  1.0000
  O   O33       1.0  0.54100  0.59550  0.83010  1.0000
  O   O34       1.0  0.45900  0.40450  0.16990  1.0000
  O   O35       1.0  0.70380  0.61080  0.80010  1.0000
  O   O36       1.0  0.29620  0.38920  0.19990  1.0000
  O   O37       1.0  0.55820  0.39920  0.77360  1.0000
  O   O38       1.0  0.44180  0.60080  0.22640  1.0000
  O   O39       1.0  0.60720  0.41670  0.66180  1.0000
  O   O40       1.0  0.39280  0.58330  0.33820  1.0000
  C   C1        1.0  0.00210  0.36270  0.66750  1.0000
  C   C2        1.0  0.99790  0.63730  0.33250  1.0000
  C   C3        1.0  0.99050  0.28950  0.62420  1.0000
  C   C4        1.0  0.00950  0.71050  0.37580  1.0000
  C   C5        1.0  0.07050  0.25500  0.61310  1.0000
  C   C6        1.0  0.92950  0.74500  0.38690  1.0000
  H   H1        1.0  0.13430  0.27540  0.63460  1.0000
  H   H2        1.0  0.86570  0.72460  0.36540  1.0000
  C   C7        1.0  0.05140  0.18640  0.56680  1.0000
  C   C8        1.0  0.94860  0.81360  0.43320  1.0000
  H   H3        1.0  0.10480  0.16340  0.55930  1.0000
  H   H4        1.0  0.89520  0.83660  0.44070  1.0000
  C   C9        1.0  0.96300  0.15480  0.53480  1.0000
  C   C10       1.0  0.03700  0.84520  0.46520  1.0000
  C   C11       1.0  0.88270  0.18780  0.54890  1.0000
  C   C12       1.0  0.11730  0.81220  0.45110  1.0000
  H   H5        1.0  0.81670  0.16530  0.52850  1.0000
  H   H6        1.0  0.18330  0.83470  0.47150  1.0000
  C   C13       1.0  0.89930  0.25360  0.59270  1.0000
  C   C14       1.0  0.10070  0.74640  0.40730  1.0000
  H   H7        1.0  0.84360  0.27380  0.60040  1.0000
  H   H8        1.0  0.15640  0.72620  0.39960  1.0000
  C   C15       1.0  0.93860  0.31040  0.78640  1.0000
  C   C16       1.0  0.06140  0.68960  0.21360  1.0000
  C   C17       1.0  0.92260  0.22990  0.80770  1.0000
  C   C18       1.0  0.07740  0.77010  0.19230  1.0000
  C   C19       1.0  0.82500  0.15120  0.79380  1.0000
  C   C20       1.0  0.17500  0.84880  0.20620  1.0000
  H   H9        1.0  0.77030  0.14930  0.77170  1.0000
  H   H10       1.0  0.22970  0.85070  0.22830  1.0000
  C   C21       1.0  0.80950  0.07080  0.81480  1.0000
  C   C22       1.0  0.19050  0.92920  0.18520  1.0000
  H   H11       1.0  0.74440  0.01680  0.80530  1.0000
  H   H12       1.0  0.25560  0.98320  0.19470  1.0000
  C   C23       1.0  0.88800  0.07280  0.84790  1.0000
  C   C24       1.0  0.11200  0.92720  0.15210  1.0000
  C   C25       1.0  0.97570  0.14920  0.86230  1.0000
  C   C26       1.0  0.02430  0.85080  0.13770  1.0000
  H   H13       1.0  0.02790  0.15100  0.88580  1.0000
  H   H14       1.0  0.97210  0.84900  0.11420  1.0000
  C   C27       1.0  0.99600  0.22890  0.84430  1.0000
  C   C28       1.0  0.00400  0.77110  0.15570  1.0000
  H   H15       1.0  0.05970  0.28280  0.85680  1.0000
  H   H16       1.0  0.94030  0.71720  0.14320  1.0000
  C   C29       1.0  0.91180  0.57320  0.75600  1.0000
  C   C30       1.0  0.08820  0.42680  0.24400  1.0000
  C   C31       1.0  0.96600  0.67610  0.77080  1.0000
  C   C32       1.0  0.03400  0.32390  0.22920  1.0000
  C   C33       1.0  0.05690  0.71690  0.80690  1.0000
  C   C34       1.0  0.94310  0.28310  0.19310  1.0000
  H   H17       1.0  0.08330  0.68130  0.82160  1.0000
  H   H18       1.0  0.91670  0.31870  0.17840  1.0000
  C   C35       1.0  0.10170  0.80520  0.81870  1.0000
  C   C36       1.0  0.89830  0.19480  0.18130  1.0000
  H   H19       1.0  0.16380  0.83360  0.84190  1.0000
  H   H20       1.0  0.83620  0.16640  0.15810  1.0000
  C   C37       1.0  0.06360  0.86410  0.79870  1.0000
  C   C38       1.0  0.93640  0.13590  0.20130  1.0000
  C   C39       1.0  0.97430  0.82250  0.76350  1.0000
  C   C40       1.0  0.02570  0.17750  0.23650  1.0000
  H   H21       1.0  0.94720  0.85770  0.74890  1.0000
  H   H22       1.0  0.05280  0.14230  0.25110  1.0000
  C   C41       1.0  0.92780  0.73100  0.75080  1.0000
  C   C42       1.0  0.07220  0.26900  0.24920  1.0000
  H   H23       1.0  0.86630  0.70210  0.72730  1.0000
  H   H24       1.0  0.13370  0.29790  0.27270  1.0000
  C   C43       1.0  0.27600  0.65200  0.85470  1.0000
  C   C44       1.0  0.72400  0.34800  0.14530  1.0000
  C   C45       1.0  0.27260  0.71800  0.90130  1.0000
  C   C46       1.0  0.72740  0.28200  0.09870  1.0000
  C   C47       1.0  0.36220  0.79010  0.92450  1.0000
  C   C48       1.0  0.63780  0.20990  0.07550  1.0000
  H   H25       1.0  0.42950  0.79650  0.91170  1.0000
  H   H26       1.0  0.57050  0.20350  0.08830  1.0000
  C   C49       1.0  0.36700  0.85680  0.96530  1.0000
  C   C50       1.0  0.63300  0.14320  0.03470  1.0000
  H   H27       1.0  0.43370  0.90600  0.97940  1.0000
  H   H28       1.0  0.56630  0.09400  0.02060  1.0000
  C   C51       1.0  0.26500  0.84630  0.98470  1.0000
  C   C52       1.0  0.73500  0.15370  0.01530  1.0000
  C   C53       1.0  0.16900  0.76960  0.96170  1.0000
  C   C54       1.0  0.83100  0.23040  0.03830  1.0000
  H   H29       1.0  0.10100  0.76050  0.97450  1.0000
  H   H30       1.0  0.89900  0.23950  0.02550  1.0000
  C   C55       1.0  0.17340  0.70660  0.92030  1.0000
  C   C56       1.0  0.82660  0.29340  0.07970  1.0000
  H   H31       1.0  0.10840  0.65630  0.90530  1.0000
  H   H32       1.0  0.89160  0.34370  0.09470  1.0000
  C   C57       1.0  0.25020  0.64680  0.71580  1.0000
  C   C58       1.0  0.74980  0.35320  0.28420  1.0000
  C   C59       1.0  0.26480  0.71830  0.68520  1.0000
  C   C60       1.0  0.73520  0.28170  0.31480  1.0000
  C   C61       1.0  0.17800  0.74160  0.67410  1.0000
  C   C62       1.0  0.82200  0.25840  0.32590  1.0000
  H   H33       1.0  0.11110  0.71650  0.68820  1.0000
  H   H34       1.0  0.88890  0.28350  0.31180  1.0000
  C   C63       1.0  0.19070  0.80090  0.64260  1.0000
  C   C64       1.0  0.80930  0.19910  0.35740  1.0000
  H   H35       1.0  0.13050  0.81080  0.63210  1.0000
  H   H36       1.0  0.86950  0.18920  0.36790  1.0000
  C   C65       1.0  0.29900  0.84790  0.62600  1.0000
  C   C66       1.0  0.70100  0.15210  0.37400  1.0000
  C   C67       1.0  0.38420  0.82440  0.63690  1.0000
  C   C68       1.0  0.61580  0.17560  0.36310  1.0000
  H   H37       1.0  0.45230  0.85040  0.62380  1.0000
  H   H38       1.0  0.54770  0.14960  0.37620  1.0000
  C   C69       1.0  0.36810  0.76310  0.66670  1.0000
  C   C70       1.0  0.63190  0.23690  0.33330  1.0000
  H   H39       1.0  0.42720  0.75010  0.67520  1.0000
  H   H40       1.0  0.57280  0.24990  0.32480  1.0000
  C   C71       1.0  0.33630  0.42610  0.74570  1.0000
  C   C72       1.0  0.66370  0.57390  0.25430  1.0000
  C   C73       1.0  0.28640  0.32190  0.72850  1.0000
  C   C74       1.0  0.71360  0.67810  0.27150  1.0000
  C   C75       1.0  0.19260  0.26890  0.74950  1.0000
  C   C76       1.0  0.80740  0.73110  0.25050  1.0000
  H   H41       1.0  0.15900  0.29810  0.77230  1.0000
  H   H42       1.0  0.84100  0.70190  0.22770  1.0000
  C   C77       1.0  0.14990  0.17500  0.73690  1.0000
  C   C78       1.0  0.85010  0.82500  0.26310  1.0000
  H   H43       1.0  0.09050  0.13860  0.75250  1.0000
  H   H44       1.0  0.90950  0.86140  0.24750  1.0000
  C   C79       1.0  0.20000  0.13360  0.69840  1.0000
  C   C80       1.0  0.80000  0.86640  0.30160  1.0000
  C   C81       1.0  0.29590  0.18790  0.67820  1.0000
  C   C82       1.0  0.70410  0.81210  0.32180  1.0000
  H   H45       1.0  0.33130  0.16100  0.65520  1.0000
  H   H46       1.0  0.66870  0.83900  0.34480  1.0000
  C   C83       1.0  0.33370  0.27900  0.69350  1.0000
  C   C84       1.0  0.66630  0.72100  0.30650  1.0000
  H   H47       1.0  0.39610  0.31630  0.67980  1.0000
  H   H48       1.0  0.60390  0.68370  0.32020  1.0000
  C   C85       1.0  0.64560  0.63570  0.83110  1.0000
  C   C86       1.0  0.35440  0.36430  0.16890  1.0000
  C   C87       1.0  0.70960  0.71420  0.87670  1.0000
  C   C88       1.0  0.29040  0.28580  0.12330  1.0000
  C   C89       1.0  0.64700  0.74890  0.91000  1.0000
  C   C90       1.0  0.35300  0.25110  0.09000  1.0000
  H   H49       1.0  0.57080  0.72780  0.90270  1.0000
  H   H50       1.0  0.42920  0.27220  0.09730  1.0000
  C   C91       1.0  0.70090  0.81560  0.95400  1.0000
  C   C92       1.0  0.29910  0.18440  0.04600  1.0000
  H   H51       1.0  0.65890  0.83830  0.97520  1.0000
  H   H52       1.0  0.34110  0.16170  0.02480  1.0000
  C   C93       1.0  0.81200  0.84840  0.96690  1.0000
  C   C94       1.0  0.18800  0.15160  0.03310  1.0000
  C   C95       1.0  0.87030  0.81510  0.93410  1.0000
  C   C96       1.0  0.12970  0.18490  0.06590  1.0000
  H   H53       1.0  0.94660  0.83710  0.94180  1.0000
  H   H54       1.0  0.05340  0.16290  0.05820  1.0000
  C   C97       1.0  0.82240  0.74950  0.88940  1.0000
  C   C98       1.0  0.17760  0.25050  0.11060  1.0000
  H   H55       1.0  0.86670  0.72960  0.86820  1.0000
  H   H56       1.0  0.13330  0.27040  0.13180  1.0000
  C   C99       1.0  0.62810  0.68580  0.71180  1.0000
  C   C100      1.0  0.37190  0.31420  0.28820  1.0000
  C   C101      1.0  0.69100  0.77140  0.69090  1.0000
  C   C102      1.0  0.30900  0.22860  0.30910  1.0000
  C   C103      1.0  0.76720  0.76820  0.65640  1.0000
  C   C104      1.0  0.23280  0.23180  0.34360  1.0000
  H   H57       1.0  0.77740  0.71390  0.64620  1.0000
  H   H58       1.0  0.22260  0.28610  0.35380  1.0000
  C   C105      1.0  0.82810  0.84600  0.63710  1.0000
  C   C106      1.0  0.17190  0.15400  0.36290  1.0000
  H   H59       1.0  0.87900  0.84390  0.61400  1.0000
  H   H60       1.0  0.12100  0.15610  0.38600  1.0000
  C   C107      1.0  0.81280  0.92720  0.65230  1.0000
  C   C108      1.0  0.18720  0.07280  0.34770  1.0000
  C   C109      1.0  0.73660  0.93040  0.68690  1.0000
  C   C110      1.0  0.26340  0.06960  0.31310  1.0000
  H   H61       1.0  0.72640  0.98470  0.69710  1.0000
  H   H62       1.0  0.27360  0.01530  0.30290  1.0000
  C   C111      1.0  0.67570  0.85250  0.70610  1.0000
  C   C112      1.0  0.32430  0.14750  0.29390  1.0000
  H   H63       1.0  0.62480  0.85470  0.72920  1.0000
  H   H64       1.0  0.37520  0.14530  0.27080  1.0000
  C   C113      1.0  0.60910  0.35250  0.78230  1.0000
  C   C114      1.0  0.39090  0.64750  0.21770  1.0000
  C   C115      1.0  0.55210  0.28240  0.81480  1.0000
  C   C116      1.0  0.44790  0.71760  0.18520  1.0000
  C   C117      1.0  0.43890  0.25790  0.82680  1.0000
  C   C118      1.0  0.56110  0.74210  0.17320  1.0000
  H   H65       1.0  0.39720  0.28490  0.81430  1.0000
  H   H66       1.0  0.60280  0.71510  0.18570  1.0000
  C   C119      1.0  0.39350  0.19690  0.85580  1.0000
  C   C120      1.0  0.60650  0.80310  0.14420  1.0000
  H   H67       1.0  0.32100  0.18260  0.86420  1.0000
  H   H68       1.0  0.67900  0.81740  0.13580  1.0000
  C   C121      1.0  0.60590  0.23640  0.83230  1.0000
  C   C122      1.0  0.39410  0.76360  0.16770  1.0000
  H   H69       1.0  0.67780  0.24880  0.82360  1.0000
  H   H70       1.0  0.32220  0.75120  0.17640  1.0000
  C   C123      1.0  0.62850  0.34890  0.64440  1.0000
  C   C124      1.0  0.37150  0.65110  0.35560  1.0000
  C   C125      1.0  0.55820  0.28290  0.59900  1.0000
  C   C126      1.0  0.44180  0.71710  0.40100  1.0000
  C   C127      1.0  0.57450  0.20470  0.57410  1.0000
  C   C128      1.0  0.42550  0.79530  0.42590  1.0000
  H   H71       1.0  0.63440  0.19550  0.58570  1.0000
  H   H72       1.0  0.36560  0.80450  0.41430  1.0000
  C   C129      1.0  0.50530  0.14110  0.53350  1.0000
  C   C130      1.0  0.49470  0.85890  0.46650  1.0000
  H   H73       1.0  0.51650  0.08880  0.51890  1.0000
  H   H74       1.0  0.48350  0.91120  0.48110  1.0000
  C   C131      1.0  0.42000  0.15690  0.51520  1.0000
  C   C132      1.0  0.58000  0.84310  0.48480  1.0000
  C   C133      1.0  0.46640  0.29140  0.57860  1.0000
  C   C134      1.0  0.53360  0.70860  0.42140  1.0000
  H   H75       1.0  0.45140  0.34130  0.59410  1.0000
  H   H76       1.0  0.54860  0.65870  0.40590  1.0000
  C   C135      1.0  0.39660  0.23060  0.53700  1.0000
  C   C136      1.0  0.60340  0.76940  0.46300  1.0000
  H   H77       1.0  0.33710  0.23940  0.52460  1.0000
  H   H78       1.0  0.66290  0.76060  0.47540  1.0000
  C   C137      1.0  0.45800  0.15270  0.87410  1.0000
  C   C138      1.0  0.54200  0.84730  0.12590  1.0000
  C   C139      1.0  0.56150  0.17470  0.86100  1.0000
  C   C140      1.0  0.43850  0.82530  0.13900  1.0000
  H   H79       1.0  0.60330  0.14650  0.87200  1.0000
  H   H80       1.0  0.39670  0.85350  0.12800  1.0000
  C   C141      1.0  0.95710  0.09030  0.48620  1.0000
  C   C142      1.0  0.04290  0.90970  0.51380  1.0000
  H   H81       1.0  0.02190  0.07760  0.48550  1.0000
  H   H82       1.0  0.97810  0.92240  0.51450  1.0000
  H   H83       1.0  0.95400  0.11880  0.45880  1.0000
  H   H84       1.0  0.04600  0.88120  0.54120  1.0000
  H   H85       1.0  0.89170  0.03320  0.48320  1.0000
  H   H86       1.0  0.10830  0.96680  0.51680  1.0000
  C   C143      1.0  0.87320  0.99000  0.86920  1.0000
  C   C144      1.0  0.12680  0.01000  0.13080  1.0000
  H   H87       1.0  0.93620  0.00560  0.89220  1.0000
  H   H88       1.0  0.06380  0.99440  0.10780  1.0000
  H   H89       1.0  0.86730  0.93930  0.84250  1.0000
  H   H90       1.0  0.13270  0.06070  0.15750  1.0000
  H   H91       1.0  0.80690  0.97200  0.88640  1.0000
  H   H92       1.0  0.19310  0.02800  0.11360  1.0000
  C   C145      1.0  0.87570  0.00850  0.63150  1.0000
  C   C146      1.0  0.12430  0.99150  0.36850  1.0000
  H   H93       1.0  0.92350  0.99440  0.60810  1.0000
  H   H94       1.0  0.07650  0.00560  0.39190  1.0000
  H   H95       1.0  0.91990  0.05970  0.65800  1.0000
  H   H96       1.0  0.08010  0.94030  0.34200  1.0000
  H   H97       1.0  0.82520  0.02480  0.61460  1.0000
  H   H98       1.0  0.17480  0.97520  0.38540  1.0000
  C   C147      1.0  0.24800  0.90930  0.03330  1.0000
  C   C148      1.0  0.75200  0.09070  0.96670  1.0000
  H   H99       1.0  0.17060  0.88770  0.03810  1.0000
  H   H100      1.0  0.82940  0.11230  0.96190  1.0000
  H   H101      1.0  0.27700  0.97250  0.02940  1.0000
  H   H102      1.0  0.72300  0.02750  0.97060  1.0000
  H   H103      1.0  0.28760  0.90580  0.06190  1.0000
  H   H104      1.0  0.71240  0.09420  0.93810  1.0000
  C   C149      1.0  0.33500  0.08720  0.46850  1.0000
  C   C150      1.0  0.66500  0.91280  0.53150  1.0000
  H   H105      1.0  0.28310  0.11110  0.46080  1.0000
  H   H106      1.0  0.71690  0.88890  0.53920  1.0000
  H   H107      1.0  0.29600  0.02740  0.47650  1.0000
  H   H108      1.0  0.70400  0.97260  0.52350  1.0000
  H   H109      1.0  0.37610  0.08110  0.43990  1.0000
  H   H110      1.0  0.62390  0.91890  0.56010  1.0000
  C   C151      1.0  0.14280  0.02010  0.68140  1.0000
  C   C152      1.0  0.85720  0.97990  0.31860  1.0000
  H   H111      1.0  0.18210  0.00080  0.65530  1.0000
  H   H112      1.0  0.81790  0.99920  0.34470  1.0000
  H   H113      1.0  0.06650  0.99910  0.66930  1.0000
  H   H114      1.0  0.93350  0.00090  0.33070  1.0000
  H   H115      1.0  0.14660  0.99390  0.70970  1.0000
  H   H116      1.0  0.85340  0.00610  0.29030  1.0000
  C   C153      1.0  0.13250  0.98070  0.81450  1.0000
  C   C154      1.0  0.86750  0.01930  0.18550  1.0000
  H   H117      1.0  0.09600  0.00850  0.79710  1.0000
  H   H118      1.0  0.90400  0.99150  0.20290  1.0000
  H   H119      1.0  0.20750  0.99870  0.80550  1.0000
  H   H120      1.0  0.79250  0.00130  0.19450  1.0000
  H   H121      1.0  0.13340  0.00120  0.85000  1.0000
  H   H122      1.0  0.86660  0.99880  0.15000  1.0000
  C   C155      1.0  0.30800  0.91060  0.59250  1.0000
  C   C156      1.0  0.69200  0.08940  0.40750  1.0000
  H   H123      1.0  0.23960  0.91720  0.58990  1.0000
  H   H124      1.0  0.76040  0.08280  0.41010  1.0000
  H   H125      1.0  0.32310  0.88540  0.55990  1.0000
  H   H126      1.0  0.67690  0.11460  0.44010  1.0000
  H   H127      1.0  0.36760  0.97040  0.60560  1.0000
  H   H128      1.0  0.63240  0.02960  0.39440  1.0000
  C   C157      1.0  0.40200  0.08540  0.90860  1.0000
  C   C158      1.0  0.59800  0.91460  0.09140  1.0000
  H   H129      1.0  0.45190  0.06050  0.91800  1.0000
  H   H130      1.0  0.54810  0.93950  0.08200  1.0000
  H   H131      1.0  0.33520  0.03550  0.89120  1.0000
  H   H132      1.0  0.66480  0.96450  0.10880  1.0000
  H   H133      1.0  0.38380  0.11790  0.93810  1.0000
  H   H134      1.0  0.61620  0.88210  0.06190  1.0000
  C   C159      1.0  0.86670  0.90830  0.01550  1.0000
  C   C160      1.0  0.13330  0.09170  0.98450  1.0000
  H   H135      1.0  0.81410  0.92520  0.03420  1.0000
  H   H136      1.0  0.18590  0.07480  0.96580  1.0000
  H   H137      1.0  0.92760  0.96350  0.01040  1.0000
  H   H138      1.0  0.07240  0.03650  0.98960  1.0000
  H   H139      1.0  0.89410  0.87550  0.03380  1.0000
  H   H140      1.0  0.10590  0.12450  0.96620  1.0000
