data_image0
_chemical_formula_structural       C4H2C2H2C2H2C2H2C2H2C4H2C2H2C2H2C2H2C2H2C4H2C2H2C2H2C2H2C2H2C4H2C2H2C2H2C2H2C2H2C4H2C2H2C2H2C2H2C2H2C4H2C2H2C2H2C2H2C2H2O16Mo4Sn4
_chemical_formula_sum              "C72 H60 O16 Mo4 Sn4"
_cell_length_a       13.4262
_cell_length_b       22.803
_cell_length_c       13.4399
_cell_angle_alpha    90
_cell_angle_beta     118.344
_cell_angle_gamma    90

_space_group_name_H-M_alt    "P 1"
_space_group_IT_number       1

loop_
  _space_group_symop_operation_xyz
  'x, y, z'

loop_
  _atom_site_type_symbol
  _atom_site_label
  _atom_site_symmetry_multiplicity
  _atom_site_fract_x
  _atom_site_fract_y
  _atom_site_fract_z
  _atom_site_occupancy
  C   C1        1.0  0.96650  0.30530  0.50260  1.0000
  C   C2        1.0  0.03350  0.80530  0.49740  1.0000
  C   C3        1.0  0.05810  0.27920  0.50380  1.0000
  C   C4        1.0  0.94190  0.77920  0.49620  1.0000
  H   H1        1.0  0.05410  0.26860  0.43520  1.0000
  H   H2        1.0  0.94590  0.76860  0.56480  1.0000
  C   C5        1.0  0.15620  0.26750  0.60120  1.0000
  C   C6        1.0  0.84380  0.76750  0.39880  1.0000
  H   H3        1.0  0.21400  0.24590  0.59920  1.0000
  H   H4        1.0  0.78600  0.74590  0.40080  1.0000
  C   C7        1.0  0.16740  0.28880  0.70330  1.0000
  C   C8        1.0  0.83260  0.78880  0.29670  1.0000
  H   H5        1.0  0.23570  0.28490  0.76940  1.0000
  H   H6        1.0  0.76430  0.78490  0.23060  1.0000
  C   C9        1.0  0.07580  0.31580  0.70510  1.0000
  C   C10       1.0  0.92420  0.81580  0.29490  1.0000
  H   H7        1.0  0.08080  0.32790  0.77350  1.0000
  H   H8        1.0  0.91920  0.82790  0.22650  1.0000
  C   C11       1.0  0.97690  0.32470  0.60550  1.0000
  C   C12       1.0  0.02310  0.82470  0.39450  1.0000
  H   H9        1.0  0.91650  0.34390  0.60710  1.0000
  H   H10       1.0  0.08350  0.84390  0.39290  1.0000
  C   C13       1.0  0.73010  0.40520  0.33340  1.0000
  C   C14       1.0  0.26990  0.90520  0.66660  1.0000
  C   C15       1.0  0.61020  0.40630  0.29290  1.0000
  C   C16       1.0  0.38980  0.90630  0.70710  1.0000
  H   H11       1.0  0.56850  0.37170  0.27260  1.0000
  H   H12       1.0  0.43150  0.87170  0.72740  1.0000
  C   C17       1.0  0.55730  0.46010  0.28450  1.0000
  C   C18       1.0  0.44270  0.96010  0.71550  1.0000
  H   H13       1.0  0.47940  0.46130  0.25750  1.0000
  H   H14       1.0  0.52060  0.96130  0.74250  1.0000
  C   C19       1.0  0.61750  0.51080  0.31500  1.0000
  C   C20       1.0  0.38250  0.01080  0.68500  1.0000
  H   H15       1.0  0.58010  0.54600  0.30930  1.0000
  H   H16       1.0  0.41990  0.04600  0.69070  1.0000
  C   C21       1.0  0.73230  0.51120  0.35430  1.0000
  C   C22       1.0  0.26770  0.01120  0.64570  1.0000
  H   H17       1.0  0.77250  0.54620  0.37460  1.0000
  H   H18       1.0  0.22750  0.04620  0.62540  1.0000
  C   C23       1.0  0.78810  0.45790  0.36320  1.0000
  C   C24       1.0  0.21190  0.95790  0.63680  1.0000
  H   H19       1.0  0.86590  0.45790  0.38980  1.0000
  H   H20       1.0  0.13410  0.95790  0.61020  1.0000
  C   C25       1.0  0.75240  0.25470  0.22050  1.0000
  C   C26       1.0  0.24760  0.75470  0.77950  1.0000
  C   C27       1.0  0.64310  0.23350  0.17500  1.0000
  C   C28       1.0  0.35690  0.73350  0.82500  1.0000
  H   H21       1.0  0.59180  0.25070  0.19440  1.0000
  H   H22       1.0  0.40820  0.75070  0.80560  1.0000
  C   C29       1.0  0.60940  0.18590  0.09900  1.0000
  C   C30       1.0  0.39060  0.68590  0.90100  1.0000
  H   H23       1.0  0.53530  0.17230  0.06740  1.0000
  H   H24       1.0  0.46470  0.67230  0.93260  1.0000
  C   C31       1.0  0.68250  0.16020  0.07200  1.0000
  C   C32       1.0  0.31750  0.66020  0.92800  1.0000
  H   H25       1.0  0.65850  0.12890  0.02170  1.0000
  H   H26       1.0  0.34150  0.62890  0.97830  1.0000
  C   C33       1.0  0.79080  0.17880  0.11600  1.0000
  C   C34       1.0  0.20920  0.67880  0.88400  1.0000
  H   H27       1.0  0.84060  0.15980  0.09690  1.0000
  H   H28       1.0  0.15940  0.65980  0.90310  1.0000
  C   C35       1.0  0.82860  0.22700  0.19100  1.0000
  C   C36       1.0  0.17140  0.72700  0.80900  1.0000
  H   H29       1.0  0.90270  0.24030  0.22050  1.0000
  H   H30       1.0  0.09730  0.74030  0.77950  1.0000
  C   C37       1.0  0.29930  0.34730  0.19650  1.0000
  C   C38       1.0  0.70070  0.84730  0.80350  1.0000
  C   C39       1.0  0.36130  0.31490  0.15430  1.0000
  C   C40       1.0  0.63870  0.81490  0.84570  1.0000
  H   H31       1.0  0.40780  0.28440  0.19700  1.0000
  H   H32       1.0  0.59220  0.78440  0.80300  1.0000
  C   C41       1.0  0.35390  0.32810  0.05020  1.0000
  C   C42       1.0  0.64610  0.82810  0.94980  1.0000
  H   H33       1.0  0.39480  0.30650  0.02330  1.0000
  H   H34       1.0  0.60520  0.80650  0.97670  1.0000
  C   C43       1.0  0.28580  0.37330  0.98750  1.0000
  C   C44       1.0  0.71420  0.87330  0.01250  1.0000
  H   H35       1.0  0.28050  0.38240  0.91770  1.0000
  H   H36       1.0  0.71950  0.88240  0.08230  1.0000
  C   C45       1.0  0.22410  0.40570  0.02770  1.0000
  C   C46       1.0  0.77590  0.90570  0.97230  1.0000
  H   H37       1.0  0.17800  0.43620  0.98410  1.0000
  H   H38       1.0  0.82200  0.93620  0.01590  1.0000
  C   C47       1.0  0.23040  0.39320  0.13200  1.0000
  C   C48       1.0  0.76960  0.89320  0.86800  1.0000
  H   H39       1.0  0.18920  0.41510  0.15820  1.0000
  H   H40       1.0  0.81080  0.91510  0.84180  1.0000
  C   C49       1.0  0.27960  0.23720  0.38480  1.0000
  C   C50       1.0  0.72040  0.73720  0.61520  1.0000
  C   C51       1.0  0.36480  0.20000  0.46270  1.0000
  C   C52       1.0  0.63520  0.70000  0.53730  1.0000
  H   H41       1.0  0.43800  0.21410  0.50650  1.0000
  H   H42       1.0  0.56200  0.71410  0.49350  1.0000
  C   C53       1.0  0.33850  0.14210  0.47340  1.0000
  C   C54       1.0  0.66150  0.64210  0.52660  1.0000
  H   H43       1.0  0.39550  0.11730  0.52300  1.0000
  H   H44       1.0  0.60450  0.61730  0.47700  1.0000
  C   C55       1.0  0.23020  0.12070  0.41230  1.0000
  C   C56       1.0  0.76980  0.62070  0.58770  1.0000
  H   H45       1.0  0.21360  0.08200  0.42130  1.0000
  H   H46       1.0  0.78640  0.58200  0.57870  1.0000
  C   C57       1.0  0.14550  0.15780  0.33660  1.0000
  C   C58       1.0  0.85450  0.65780  0.66340  1.0000
  H   H47       1.0  0.07190  0.14390  0.29520  1.0000
  H   H48       1.0  0.92810  0.64390  0.70480  1.0000
  C   C59       1.0  0.17020  0.21570  0.32230  1.0000
  C   C60       1.0  0.82980  0.71570  0.67770  1.0000
  H   H49       1.0  0.11330  0.24000  0.27090  1.0000
  H   H50       1.0  0.88670  0.74000  0.72910  1.0000
  C   C61       1.0  0.37410  0.38950  0.49250  1.0000
  C   C62       1.0  0.62590  0.88950  0.50750  1.0000
  C   C63       1.0  0.32650  0.39050  0.56570  1.0000
  C   C64       1.0  0.67350  0.89050  0.43430  1.0000
  H   H51       1.0  0.26830  0.36490  0.55490  1.0000
  H   H52       1.0  0.73170  0.86490  0.44510  1.0000
  C   C65       1.0  0.36910  0.43180  0.65740  1.0000
  C   C66       1.0  0.63090  0.93180  0.34260  1.0000
  H   H53       1.0  0.33890  0.43290  0.70700  1.0000
  H   H54       1.0  0.66110  0.93290  0.29300  1.0000
  C   C67       1.0  0.45450  0.46960  0.67170  1.0000
  C   C68       1.0  0.54550  0.96960  0.32830  1.0000
  H   H55       1.0  0.48140  0.49650  0.73080  1.0000
  H   H56       1.0  0.51860  0.99650  0.26920  1.0000
  C   C69       1.0  0.49950  0.46810  0.60160  1.0000
  C   C70       1.0  0.50050  0.96810  0.39840  1.0000
  H   H57       1.0  0.55710  0.49420  0.61240  1.0000
  H   H58       1.0  0.44290  0.99420  0.38760  1.0000
  C   C71       1.0  0.46110  0.42800  0.51240  1.0000
  C   C72       1.0  0.53890  0.92800  0.48760  1.0000
  H   H59       1.0  0.49460  0.42710  0.46570  1.0000
  H   H60       1.0  0.50540  0.92710  0.53430  1.0000
  O   O1        1.0  0.14300  0.35090  0.30650  1.0000
  O   O2        1.0  0.85700  0.85090  0.69350  1.0000
  O   O3        1.0  0.07640  0.43560  0.42220  1.0000
  O   O4        1.0  0.92360  0.93560  0.57780  1.0000
  O   O5        1.0  0.00210  0.45100  0.19450  1.0000
  O   O6        1.0  0.99790  0.95100  0.80550  1.0000
  O   O7        1.0  0.91010  0.35670  0.26790  1.0000
  O   O8        1.0  0.08990  0.85670  0.73210  1.0000
  O   O9        1.0  0.71080  0.28310  0.41920  1.0000
  O   O10       1.0  0.28920  0.78310  0.58080  1.0000
  O   O11       1.0  0.70040  0.36080  0.58570  1.0000
  O   O12       1.0  0.29960  0.86080  0.41430  1.0000
  O   O13       1.0  0.67560  0.24000  0.60080  1.0000
  O   O14       1.0  0.32440  0.74000  0.39920  1.0000
  O   O15       1.0  0.49670  0.30390  0.42070  1.0000
  O   O16       1.0  0.50330  0.80390  0.57930  1.0000
  Mo  Mo1       1.0  0.03291  0.39899  0.29777  1.0000
  Mo  Mo2       1.0  0.96709  0.89899  0.70223  1.0000
  Mo  Mo3       1.0  0.64650  0.29740  0.50751  1.0000
  Mo  Mo4       1.0  0.35350  0.79740  0.49249  1.0000
  Sn  Sn1       1.0  0.81277  0.32266  0.34840  1.0000
  Sn  Sn2       1.0  0.18723  0.82266  0.65160  1.0000
  Sn  Sn3       1.0  0.31820  0.32575  0.36014  1.0000
  Sn  Sn4       1.0  0.68180  0.82575  0.63986  1.0000
