data_image0
_chemical_formula_structural       C8H4C4H4C4H4C4H4C4H4C8H4C4H4C4H4C4H4C4H4C8H4C4H4C4H4C4H4C4H4O16Mo4Sn4
_chemical_formula_sum              "C72 H60 O16 Mo4 Sn4"
_cell_length_a       13.3991
_cell_length_b       15.0889
_cell_length_c       17.332
_cell_angle_alpha    90
_cell_angle_beta     90
_cell_angle_gamma    90

_space_group_name_H-M_alt    "P 1"
_space_group_IT_number       1

loop_
  _space_group_symop_operation_xyz
  'x, y, z'

loop_
  _atom_site_type_symbol
  _atom_site_label
  _atom_site_symmetry_multiplicity
  _atom_site_fract_x
  _atom_site_fract_y
  _atom_site_fract_z
  _atom_site_occupancy
  C   C1        1.0  0.51090  0.89440  0.01841  1.0000
  C   C2        1.0  0.98910  0.10560  0.51841  1.0000
  C   C3        1.0  0.01090  0.60560  0.98159  1.0000
  C   C4        1.0  0.48910  0.39440  0.48159  1.0000
  C   C5        1.0  0.58740  0.90480  0.07410  1.0000
  C   C6        1.0  0.91260  0.09520  0.57410  1.0000
  C   C7        1.0  0.08740  0.59520  0.92590  1.0000
  C   C8        1.0  0.41260  0.40480  0.42590  1.0000
  H   H1        1.0  0.60700  0.85700  0.09900  1.0000
  H   H2        1.0  0.89300  0.14300  0.59900  1.0000
  H   H3        1.0  0.10700  0.64300  0.90100  1.0000
  H   H4        1.0  0.39300  0.35700  0.40100  1.0000
  C   C9        1.0  0.63010  0.98660  0.08680  1.0000
  C   C10       1.0  0.86990  0.01340  0.58680  1.0000
  C   C11       1.0  0.13010  0.51340  0.91320  1.0000
  C   C12       1.0  0.36990  0.48660  0.41320  1.0000
  H   H5        1.0  0.67900  0.99700  0.12600  1.0000
  H   H6        1.0  0.82100  0.00300  0.62600  1.0000
  H   H7        1.0  0.17900  0.50300  0.87400  1.0000
  H   H8        1.0  0.32100  0.49700  0.37400  1.0000
  C   C13       1.0  0.60060  0.05830  0.04440  1.0000
  C   C14       1.0  0.89940  0.94170  0.54440  1.0000
  C   C15       1.0  0.10060  0.44170  0.95560  1.0000
  C   C16       1.0  0.39940  0.55830  0.45560  1.0000
  H   H9        1.0  0.62100  0.11600  0.04500  1.0000
  H   H10       1.0  0.87900  0.88400  0.54500  1.0000
  H   H11       1.0  0.12100  0.38400  0.95500  1.0000
  H   H12       1.0  0.37900  0.61600  0.45500  1.0000
  C   C17       1.0  0.52760  0.05040  0.98870  1.0000
  C   C18       1.0  0.97240  0.94960  0.48870  1.0000
  C   C19       1.0  0.02760  0.44960  0.01130  1.0000
  C   C20       1.0  0.47240  0.55040  0.51130  1.0000
  H   H13       1.0  0.49900  0.08600  0.95800  1.0000
  H   H14       1.0  0.00100  0.91400  0.45800  1.0000
  H   H15       1.0  0.99900  0.41400  0.04200  1.0000
  H   H16       1.0  0.50100  0.58600  0.54200  1.0000
  C   C21       1.0  0.48190  0.96880  0.97760  1.0000
  C   C22       1.0  0.01810  0.03120  0.47760  1.0000
  C   C23       1.0  0.98190  0.53120  0.02240  1.0000
  C   C24       1.0  0.51810  0.46880  0.52240  1.0000
  H   H17       1.0  0.44500  0.96500  0.94200  1.0000
  H   H18       1.0  0.05500  0.03500  0.44200  1.0000
  H   H19       1.0  0.94500  0.53500  0.05800  1.0000
  H   H20       1.0  0.55500  0.46500  0.55800  1.0000
  C   C25       1.0  0.37400  0.69040  0.08800  1.0000
  C   C26       1.0  0.12600  0.30960  0.58800  1.0000
  C   C27       1.0  0.87400  0.80960  0.91200  1.0000
  C   C28       1.0  0.62600  0.19040  0.41200  1.0000
  C   C29       1.0  0.27480  0.66210  0.07940  1.0000
  C   C30       1.0  0.22520  0.33790  0.57940  1.0000
  C   C31       1.0  0.77480  0.83790  0.92060  1.0000
  C   C32       1.0  0.72520  0.16210  0.42060  1.0000
  H   H21       1.0  0.24500  0.68100  0.03620  1.0000
  H   H22       1.0  0.25500  0.31900  0.53620  1.0000
  H   H23       1.0  0.74500  0.81900  0.96380  1.0000
  H   H24       1.0  0.75500  0.18100  0.46380  1.0000
  C   C33       1.0  0.22840  0.61070  0.13450  1.0000
  C   C34       1.0  0.27160  0.38930  0.63450  1.0000
  C   C35       1.0  0.72840  0.88930  0.86550  1.0000
  C   C36       1.0  0.77160  0.11070  0.36550  1.0000
  H   H25       1.0  0.16800  0.58900  0.12400  1.0000
  H   H26       1.0  0.33200  0.41100  0.62400  1.0000
  H   H27       1.0  0.66800  0.91100  0.87600  1.0000
  H   H28       1.0  0.83200  0.08900  0.37600  1.0000
  C   C37       1.0  0.27930  0.58660  0.20080  1.0000
  C   C38       1.0  0.22070  0.41340  0.70080  1.0000
  C   C39       1.0  0.77930  0.91340  0.79920  1.0000
  C   C40       1.0  0.72070  0.08660  0.29920  1.0000
  H   H29       1.0  0.24800  0.55500  0.24300  1.0000
  H   H30       1.0  0.25200  0.44500  0.74300  1.0000
  H   H31       1.0  0.74800  0.94500  0.75700  1.0000
  H   H32       1.0  0.75200  0.05500  0.25700  1.0000
  C   C41       1.0  0.37730  0.61370  0.21090  1.0000
  C   C42       1.0  0.12270  0.38630  0.71090  1.0000
  C   C43       1.0  0.87730  0.88630  0.78910  1.0000
  C   C44       1.0  0.62270  0.11370  0.28910  1.0000
  H   H33       1.0  0.41300  0.59900  0.25600  1.0000
  H   H34       1.0  0.08700  0.40100  0.75600  1.0000
  H   H35       1.0  0.91300  0.90100  0.74400  1.0000
  H   H36       1.0  0.58700  0.09900  0.24400  1.0000
  C   C45       1.0  0.42380  0.66510  0.15620  1.0000
  C   C46       1.0  0.07620  0.33490  0.65620  1.0000
  C   C47       1.0  0.92380  0.83490  0.84380  1.0000
  C   C48       1.0  0.57620  0.16510  0.34380  1.0000
  H   H37       1.0  0.48800  0.68500  0.16300  1.0000
  H   H38       1.0  0.01200  0.31500  0.66300  1.0000
  H   H39       1.0  0.98800  0.81500  0.83700  1.0000
  H   H40       1.0  0.51200  0.18500  0.33700  1.0000
  C   C49       1.0  0.45130  0.70740  0.88580  1.0000
  C   C50       1.0  0.04870  0.29260  0.38580  1.0000
  C   C51       1.0  0.95130  0.79260  0.11420  1.0000
  C   C52       1.0  0.54870  0.20740  0.61420  1.0000
  C   C53       1.0  0.36440  0.67650  0.84900  1.0000
  C   C54       1.0  0.13560  0.32350  0.34900  1.0000
  C   C55       1.0  0.86440  0.82350  0.15100  1.0000
  C   C56       1.0  0.63560  0.17650  0.65100  1.0000
  H   H41       1.0  0.30000  0.68000  0.87900  1.0000
  H   H42       1.0  0.20000  0.32000  0.37900  1.0000
  H   H43       1.0  0.80000  0.82000  0.12100  1.0000
  H   H44       1.0  0.70000  0.18000  0.62100  1.0000
  C   C57       1.0  0.36890  0.63820  0.77600  1.0000
  C   C58       1.0  0.13110  0.36180  0.27600  1.0000
  C   C59       1.0  0.86890  0.86180  0.22400  1.0000
  C   C60       1.0  0.63110  0.13820  0.72400  1.0000
  H   H45       1.0  0.31900  0.62500  0.76200  1.0000
  H   H46       1.0  0.18100  0.37500  0.26200  1.0000
  H   H47       1.0  0.81900  0.87500  0.23800  1.0000
  H   H48       1.0  0.68100  0.12500  0.73800  1.0000
  C   C61       1.0  0.45780  0.63160  0.73730  1.0000
  C   C62       1.0  0.04220  0.36840  0.23730  1.0000
  C   C63       1.0  0.95780  0.86840  0.26270  1.0000
  C   C64       1.0  0.54220  0.13160  0.76270  1.0000
  H   H49       1.0  0.46300  0.60600  0.68500  1.0000
  H   H50       1.0  0.03700  0.39400  0.18500  1.0000
  H   H51       1.0  0.96300  0.89400  0.31500  1.0000
  H   H52       1.0  0.53700  0.10600  0.81500  1.0000
  C   C65       1.0  0.54480  0.66150  0.77250  1.0000
  C   C66       1.0  0.95520  0.33850  0.27250  1.0000
  C   C67       1.0  0.04480  0.83850  0.22750  1.0000
  C   C68       1.0  0.45520  0.16150  0.72750  1.0000
  H   H53       1.0  0.60700  0.65900  0.74800  1.0000
  H   H54       1.0  0.89300  0.34100  0.24800  1.0000
  H   H55       1.0  0.10700  0.84100  0.25200  1.0000
  H   H56       1.0  0.39300  0.15900  0.75200  1.0000
  C   C69       1.0  0.54120  0.69750  0.84630  1.0000
  C   C70       1.0  0.95880  0.30250  0.34630  1.0000
  C   C71       1.0  0.04120  0.80250  0.15370  1.0000
  C   C72       1.0  0.45880  0.19750  0.65370  1.0000
  H   H57       1.0  0.60100  0.71700  0.86700  1.0000
  H   H58       1.0  0.89900  0.28300  0.36700  1.0000
  H   H59       1.0  0.10100  0.78300  0.13300  1.0000
  H   H60       1.0  0.39900  0.21700  0.63300  1.0000
  O   O1        1.0  0.18160  0.84970  0.83763  1.0000
  O   O2        1.0  0.31840  0.15030  0.33763  1.0000
  O   O3        1.0  0.68160  0.65030  0.16237  1.0000
  O   O4        1.0  0.81840  0.34970  0.66237  1.0000
  O   O5        1.0  0.08934  0.79410  0.97384  1.0000
  O   O6        1.0  0.41066  0.20590  0.47384  1.0000
  O   O7        1.0  0.58934  0.70590  0.02616  1.0000
  O   O8        1.0  0.91066  0.29410  0.52616  1.0000
  O   O9        1.0  0.30359  0.82910  0.97146  1.0000
  O   O10       1.0  0.19641  0.17090  0.47146  1.0000
  O   O11       1.0  0.80359  0.67090  0.02854  1.0000
  O   O12       1.0  0.69641  0.32910  0.52854  1.0000
  O   O13       1.0  0.16020  0.96840  0.95830  1.0000
  O   O14       1.0  0.33980  0.03160  0.45830  1.0000
  O   O15       1.0  0.66020  0.53160  0.04170  1.0000
  O   O16       1.0  0.83980  0.46840  0.54170  1.0000
  Mo  Mo1       1.0  0.18384  0.86137  0.93498  1.0000
  Mo  Mo2       1.0  0.31616  0.13863  0.43498  1.0000
  Mo  Mo3       1.0  0.68384  0.63863  0.06502  1.0000
  Mo  Mo4       1.0  0.81616  0.36137  0.56502  1.0000
  Sn  Sn1       1.0  0.44555  0.76607  0.99883  1.0000
  Sn  Sn2       1.0  0.05445  0.23393  0.49883  1.0000
  Sn  Sn3       1.0  0.94555  0.73393  0.00117  1.0000
  Sn  Sn4       1.0  0.55445  0.26607  0.50117  1.0000
