data_image0
_chemical_formula_structural       Zn4O24C12H12
_chemical_formula_sum              "Zn4 O24 C12 H12"
_cell_length_a       8.552
_cell_length_b       12.027
_cell_length_c       8.696
_cell_angle_alpha    90
_cell_angle_beta     90
_cell_angle_gamma    90

_space_group_name_H-M_alt    "P 1"
_space_group_IT_number       1

loop_
  _space_group_symop_operation_xyz
  'x, y, z'

loop_
  _atom_site_type_symbol
  _atom_site_label
  _atom_site_symmetry_multiplicity
  _atom_site_fract_x
  _atom_site_fract_y
  _atom_site_fract_z
  _atom_site_occupancy
  Zn  Zn1       1.0  0.50000  0.50000  0.50000  1.0000
  Zn  Zn2       1.0  0.00000  0.50000  0.00000  1.0000
  Zn  Zn3       1.0  0.00000  0.00000  0.00000  1.0000
  Zn  Zn4       1.0  0.50000  0.00000  0.50000  1.0000
  O   O1        1.0  0.71294  0.45073  0.60507  1.0000
  O   O2        1.0  0.78706  0.54927  0.10507  1.0000
  O   O3        1.0  0.21294  0.04927  0.89493  1.0000
  O   O4        1.0  0.28706  0.95073  0.39493  1.0000
  O   O5        1.0  0.28706  0.54927  0.39493  1.0000
  O   O6        1.0  0.21294  0.45073  0.89493  1.0000
  O   O7        1.0  0.78706  0.95073  0.10507  1.0000
  O   O8        1.0  0.71294  0.04927  0.60507  1.0000
  O   O9        1.0  0.88552  0.44652  0.79318  1.0000
  O   O10       1.0  0.61448  0.55348  0.29318  1.0000
  O   O11       1.0  0.38552  0.05348  0.70682  1.0000
  O   O12       1.0  0.11448  0.94652  0.20682  1.0000
  O   O13       1.0  0.11448  0.55348  0.20682  1.0000
  O   O14       1.0  0.38552  0.44652  0.70682  1.0000
  O   O15       1.0  0.61448  0.94652  0.29318  1.0000
  O   O16       1.0  0.88552  0.05348  0.79318  1.0000
  O   O17       1.0  0.52315  0.65816  0.59245  1.0000
  O   O18       1.0  0.97685  0.34184  0.09245  1.0000
  O   O19       1.0  0.02315  0.84184  0.90755  1.0000
  O   O20       1.0  0.47685  0.15816  0.40755  1.0000
  O   O21       1.0  0.47685  0.34184  0.40755  1.0000
  O   O22       1.0  0.02315  0.65816  0.90755  1.0000
  O   O23       1.0  0.97685  0.15816  0.09245  1.0000
  O   O24       1.0  0.52315  0.84184  0.59245  1.0000
  C   C1        1.0  0.77080  0.48733  0.72650  1.0000
  C   C2        1.0  0.72920  0.51267  0.22650  1.0000
  C   C3        1.0  0.27080  0.01267  0.77350  1.0000
  C   C4        1.0  0.22920  0.98733  0.27350  1.0000
  C   C5        1.0  0.22920  0.51267  0.27350  1.0000
  C   C6        1.0  0.27080  0.48733  0.77350  1.0000
  C   C7        1.0  0.72920  0.98733  0.22650  1.0000
  C   C8        1.0  0.77080  0.01267  0.72650  1.0000
  C   C9        1.0  0.49910  0.75000  0.53120  1.0000
  C   C10       1.0  0.00090  0.25000  0.03120  1.0000
  C   C11       1.0  0.99910  0.75000  0.96880  1.0000
  C   C12       1.0  0.50090  0.25000  0.46880  1.0000
  H   H1        1.0  0.72410  0.54960  0.77030  1.0000
  H   H2        1.0  0.77590  0.45040  0.27030  1.0000
  H   H3        1.0  0.22410  0.95040  0.72970  1.0000
  H   H4        1.0  0.27590  0.04960  0.22970  1.0000
  H   H5        1.0  0.27590  0.45040  0.22970  1.0000
  H   H6        1.0  0.22410  0.54960  0.72970  1.0000
  H   H7        1.0  0.77590  0.04960  0.27030  1.0000
  H   H8        1.0  0.72410  0.95040  0.77030  1.0000
  H   H9        1.0  0.45990  0.75000  0.43150  1.0000
  H   H10       1.0  0.04010  0.25000  0.93150  1.0000
  H   H11       1.0  0.95990  0.75000  0.06850  1.0000
  H   H12       1.0  0.54010  0.25000  0.56850  1.0000
