data_image0
_chemical_formula_structural       Zn4O24C12H12
_chemical_formula_sum              "Zn4 O24 C12 H12"
_cell_length_a       8.5159
_cell_length_b       8.7275
_cell_length_c       12.014
_cell_angle_alpha    90
_cell_angle_beta     90
_cell_angle_gamma    90

_space_group_name_H-M_alt    "P 1"
_space_group_IT_number       1

loop_
  _space_group_symop_operation_xyz
  'x, y, z'

loop_
  _atom_site_type_symbol
  _atom_site_label
  _atom_site_symmetry_multiplicity
  _atom_site_fract_x
  _atom_site_fract_y
  _atom_site_fract_z
  _atom_site_occupancy
  Zn  Zn1       1.0  0.51572  0.50062  0.44889  1.0000
  Zn  Zn2       1.0  0.98428  0.00062  0.94889  1.0000
  Zn  Zn3       1.0  0.01572  0.99938  0.44889  1.0000
  Zn  Zn4       1.0  0.48428  0.49938  0.94889  1.0000
  O   O1        1.0  0.63000  0.29429  0.39579  1.0000
  O   O2        1.0  0.87000  0.79429  0.89579  1.0000
  O   O3        1.0  0.13000  0.20571  0.39579  1.0000
  O   O4        1.0  0.37000  0.70571  0.89579  1.0000
  O   O5        1.0  0.80354  0.10549  0.39964  1.0000
  O   O6        1.0  0.69646  0.60549  0.89964  1.0000
  O   O7        1.0  0.30354  0.39451  0.39964  1.0000
  O   O8        1.0  0.19646  0.89451  0.89964  1.0000
  O   O9        1.0  0.48676  0.40844  0.60660  1.0000
  O   O10       1.0  0.01324  0.90844  0.10660  1.0000
  O   O11       1.0  0.98676  0.09156  0.60660  1.0000
  O   O12       1.0  0.51324  0.59156  0.10660  1.0000
  O   O13       1.0  0.46561  0.40811  0.79048  1.0000
  O   O14       1.0  0.03439  0.90811  0.29048  1.0000
  O   O15       1.0  0.96561  0.09189  0.79048  1.0000
  O   O16       1.0  0.53439  0.59189  0.29048  1.0000
  O   O17       1.0  0.40217  0.70652  0.50288  1.0000
  O   O18       1.0  0.09783  0.20652  0.00288  1.0000
  O   O19       1.0  0.90217  0.79348  0.50288  1.0000
  O   O20       1.0  0.59783  0.29348  0.00288  1.0000
  O   O21       1.0  0.23216  0.89742  0.49922  1.0000
  O   O22       1.0  0.26784  0.39742  0.99922  1.0000
  O   O23       1.0  0.73216  0.60258  0.49922  1.0000
  O   O24       1.0  0.76784  0.10258  0.99922  1.0000
  C   C1        1.0  0.75066  0.22995  0.43564  1.0000
  C   C2        1.0  0.74934  0.72995  0.93564  1.0000
  C   C3        1.0  0.25066  0.27005  0.43564  1.0000
  C   C4        1.0  0.24934  0.77005  0.93564  1.0000
  C   C5        1.0  0.49922  0.46903  0.69960  1.0000
  C   C6        1.0  0.00078  0.96903  0.19960  1.0000
  C   C7        1.0  0.99922  0.03097  0.69960  1.0000
  C   C8        1.0  0.50078  0.53097  0.19960  1.0000
  C   C9        1.0  0.29461  0.78065  0.45785  1.0000
  C   C10       1.0  0.20539  0.28065  0.95785  1.0000
  C   C11       1.0  0.79461  0.71935  0.45785  1.0000
  C   C12       1.0  0.70539  0.21935  0.95785  1.0000
  H   H1        1.0  0.80250  0.27730  0.49660  1.0000
  H   H2        1.0  0.69750  0.77730  0.99660  1.0000
  H   H3        1.0  0.30250  0.22270  0.49660  1.0000
  H   H4        1.0  0.19750  0.72270  0.99660  1.0000
  H   H5        1.0  0.53970  0.57040  0.70260  1.0000
  H   H6        1.0  0.96030  0.07040  0.20260  1.0000
  H   H7        1.0  0.03970  0.92960  0.70260  1.0000
  H   H8        1.0  0.46030  0.42960  0.20260  1.0000
  H   H9        1.0  0.25660  0.74560  0.38800  1.0000
  H   H10       1.0  0.24340  0.24560  0.88800  1.0000
  H   H11       1.0  0.75660  0.75440  0.38800  1.0000
  H   H12       1.0  0.74340  0.25440  0.88800  1.0000
