data_image0
_chemical_formula_structural       Zn4O24C12H12
_chemical_formula_sum              "Zn4 O24 C12 H12"
_cell_length_a       12.0925
_cell_length_b       8.7896
_cell_length_c       8.4772
_cell_angle_alpha    90
_cell_angle_beta     95.2
_cell_angle_gamma    90

_space_group_name_H-M_alt    "P 1"
_space_group_IT_number       1

loop_
  _space_group_symop_operation_xyz
  'x, y, z'

loop_
  _atom_site_type_symbol
  _atom_site_label
  _atom_site_symmetry_multiplicity
  _atom_site_fract_x
  _atom_site_fract_y
  _atom_site_fract_z
  _atom_site_occupancy
  Zn  Zn1       1.0  0.00000  0.00000  0.00000  1.0000
  Zn  Zn2       1.0  0.00000  0.50000  0.50000  1.0000
  Zn  Zn3       1.0  0.50000  0.00000  0.00000  1.0000
  Zn  Zn4       1.0  0.50000  0.50000  0.50000  1.0000
  O   O1        1.0  0.94708  0.79956  0.11154  1.0000
  O   O2        1.0  0.05292  0.29956  0.38846  1.0000
  O   O3        1.0  0.05292  0.20044  0.88846  1.0000
  O   O4        1.0  0.94708  0.70044  0.61154  1.0000
  O   O5        1.0  0.94569  0.60676  0.28128  1.0000
  O   O6        1.0  0.05431  0.10676  0.21872  1.0000
  O   O7        1.0  0.05431  0.39324  0.71872  1.0000
  O   O8        1.0  0.94569  0.89324  0.78128  1.0000
  O   O9        1.0  0.84207  0.09050  0.01450  1.0000
  O   O10       1.0  0.15793  0.59050  0.48550  1.0000
  O   O11       1.0  0.15793  0.90950  0.98550  1.0000
  O   O12       1.0  0.84207  0.40950  0.51450  1.0000
  O   O13       1.0  0.65874  0.08580  0.03080  1.0000
  O   O14       1.0  0.34126  0.58580  0.46920  1.0000
  O   O15       1.0  0.34126  0.91420  0.96920  1.0000
  O   O16       1.0  0.65874  0.41420  0.53080  1.0000
  O   O17       1.0  0.45969  0.09610  0.21942  1.0000
  O   O18       1.0  0.54031  0.59610  0.28058  1.0000
  O   O19       1.0  0.54031  0.90390  0.78058  1.0000
  O   O20       1.0  0.45969  0.40390  0.71942  1.0000
  O   O21       1.0  0.44915  0.28551  0.39000  1.0000
  O   O22       1.0  0.55085  0.78551  0.11000  1.0000
  O   O23       1.0  0.55085  0.71449  0.61000  1.0000
  O   O24       1.0  0.44915  0.21449  0.89000  1.0000
  C   C1        1.0  0.98620  0.72820  0.23140  1.0000
  C   C2        1.0  0.01380  0.22820  0.26860  1.0000
  C   C3        1.0  0.01380  0.27180  0.76860  1.0000
  C   C4        1.0  0.98620  0.77180  0.73140  1.0000
  C   C5        1.0  0.74910  0.02790  0.00000  1.0000
  C   C6        1.0  0.25090  0.52790  0.50000  1.0000
  C   C7        1.0  0.25090  0.97210  0.00000  1.0000
  C   C8        1.0  0.74910  0.47210  0.50000  1.0000
  C   C9        1.0  0.49240  0.21900  0.27940  1.0000
  C   C10       1.0  0.50760  0.71900  0.22060  1.0000
  C   C11       1.0  0.50760  0.78100  0.72060  1.0000
  C   C12       1.0  0.49240  0.28100  0.77940  1.0000
  H   H1        1.0  0.05090  0.76750  0.28930  1.0000
  H   H2        1.0  0.94910  0.26750  0.21070  1.0000
  H   H3        1.0  0.94910  0.23250  0.71070  1.0000
  H   H4        1.0  0.05090  0.73250  0.78930  1.0000
  H   H5        1.0  0.74600  0.92760  0.95790  1.0000
  H   H6        1.0  0.25400  0.42760  0.54210  1.0000
  H   H7        1.0  0.25400  0.07240  0.04210  1.0000
  H   H8        1.0  0.74600  0.57240  0.45790  1.0000
  H   H9        1.0  0.55530  0.26540  0.24000  1.0000
  H   H10       1.0  0.44470  0.76540  0.26000  1.0000
  H   H11       1.0  0.44470  0.73460  0.76000  1.0000
  H   H12       1.0  0.55530  0.23460  0.74000  1.0000
