data_image0
_chemical_formula_structural       Zn16O160C40H8C8H8C40H8C8H8C40H8C8H8C40H8C8H8
_chemical_formula_sum              "Zn16 O160 C192 H64"
_cell_length_a       23.9341
_cell_length_b       23.9427
_cell_length_c       15.0301
_cell_angle_alpha    90
_cell_angle_beta     113.383
_cell_angle_gamma    90

_space_group_name_H-M_alt    "P 1"
_space_group_IT_number       1

loop_
  _space_group_symop_operation_xyz
  'x, y, z'

loop_
  _atom_site_type_symbol
  _atom_site_label
  _atom_site_symmetry_multiplicity
  _atom_site_fract_x
  _atom_site_fract_y
  _atom_site_fract_z
  _atom_site_occupancy
  Zn  Zn1       1.0  0.75134  0.68758  0.24987  1.0000
  Zn  Zn2       1.0  0.24866  0.68758  0.25013  1.0000
  Zn  Zn3       1.0  0.25134  0.18758  0.24987  1.0000
  Zn  Zn4       1.0  0.74866  0.18758  0.25013  1.0000
  Zn  Zn5       1.0  0.24866  0.31242  0.75013  1.0000
  Zn  Zn6       1.0  0.75134  0.31242  0.74987  1.0000
  Zn  Zn7       1.0  0.74866  0.81242  0.75013  1.0000
  Zn  Zn8       1.0  0.25134  0.81242  0.74987  1.0000
  Zn  Zn9       1.0  0.50000  0.93578  0.25000  1.0000
  Zn  Zn10      1.0  0.00000  0.43578  0.25000  1.0000
  Zn  Zn11      1.0  0.50000  0.06422  0.75000  1.0000
  Zn  Zn12      1.0  0.00000  0.56422  0.75000  1.0000
  Zn  Zn13      1.0  1.00000  0.93834  0.25000  1.0000
  Zn  Zn14      1.0  0.50000  0.43834  0.25000  1.0000
  Zn  Zn15      1.0  0.00000  0.06166  0.75000  1.0000
  Zn  Zn16      1.0  0.50000  0.56166  0.75000  1.0000
  O   O1        1.0  0.67880  0.73497  0.18457  1.0000
  O   O2        1.0  0.32120  0.73497  0.31543  1.0000
  O   O3        1.0  0.17880  0.23497  0.18457  1.0000
  O   O4        1.0  0.82120  0.23497  0.31543  1.0000
  O   O5        1.0  0.32120  0.26503  0.81543  1.0000
  O   O6        1.0  0.67880  0.26503  0.68457  1.0000
  O   O7        1.0  0.82120  0.76503  0.81543  1.0000
  O   O8        1.0  0.17880  0.76503  0.68457  1.0000
  O   O9        1.0  0.63993  0.66762  0.07420  1.0000
  O   O10       1.0  0.36007  0.66762  0.42580  1.0000
  O   O11       1.0  0.13993  0.16762  0.07420  1.0000
  O   O12       1.0  0.86007  0.16762  0.42580  1.0000
  O   O13       1.0  0.36007  0.33238  0.92580  1.0000
  O   O14       1.0  0.63993  0.33238  0.57420  1.0000
  O   O15       1.0  0.86007  0.83238  0.92580  1.0000
  O   O16       1.0  0.13993  0.83238  0.57420  1.0000
  O   O17       1.0  0.57128  0.78972  0.12008  1.0000
  O   O18       1.0  0.42872  0.78972  0.37992  1.0000
  O   O19       1.0  0.07128  0.28972  0.12008  1.0000
  O   O20       1.0  0.92872  0.28972  0.37992  1.0000
  O   O21       1.0  0.42872  0.21028  0.87992  1.0000
  O   O22       1.0  0.57128  0.21028  0.62008  1.0000
  O   O23       1.0  0.92872  0.71028  0.87992  1.0000
  O   O24       1.0  0.07128  0.71028  0.62008  1.0000
  O   O25       1.0  0.53337  0.88183  0.18428  1.0000
  O   O26       1.0  0.46663  0.88183  0.31572  1.0000
  O   O27       1.0  0.03337  0.38183  0.18428  1.0000
  O   O28       1.0  0.96663  0.38183  0.31572  1.0000
  O   O29       1.0  0.46663  0.11817  0.81572  1.0000
  O   O30       1.0  0.53337  0.11817  0.68428  1.0000
  O   O31       1.0  0.96663  0.61817  0.81572  1.0000
  O   O32       1.0  0.03337  0.61817  0.68428  1.0000
  O   O33       1.0  0.43767  0.86907  0.07507  1.0000
  O   O34       1.0  0.56233  0.86907  0.42493  1.0000
  O   O35       1.0  0.93767  0.36907  0.07507  1.0000
  O   O36       1.0  0.06233  0.36907  0.42493  1.0000
  O   O37       1.0  0.56233  0.13093  0.92493  1.0000
  O   O38       1.0  0.43767  0.13093  0.57507  1.0000
  O   O39       1.0  0.06233  0.63093  0.92493  1.0000
  O   O40       1.0  0.93767  0.63093  0.57507  1.0000
  O   O41       1.0  0.81470  0.74399  0.31509  1.0000
  O   O42       1.0  0.18530  0.74399  0.18491  1.0000
  O   O43       1.0  0.31470  0.24399  0.31509  1.0000
  O   O44       1.0  0.68530  0.24399  0.18491  1.0000
  O   O45       1.0  0.18530  0.25601  0.68491  1.0000
  O   O46       1.0  0.81470  0.25601  0.81509  1.0000
  O   O47       1.0  0.68530  0.75601  0.68491  1.0000
  O   O48       1.0  0.31470  0.75601  0.81509  1.0000
  O   O49       1.0  0.77463  0.75599  0.42536  1.0000
  O   O50       1.0  0.22537  0.75599  0.07464  1.0000
  O   O51       1.0  0.27463  0.25599  0.42536  1.0000
  O   O52       1.0  0.72537  0.25599  0.07464  1.0000
  O   O53       1.0  0.22537  0.24401  0.57464  1.0000
  O   O54       1.0  0.77463  0.24401  0.92536  1.0000
  O   O55       1.0  0.72537  0.74401  0.57464  1.0000
  O   O56       1.0  0.27463  0.74401  0.92536  1.0000
  O   O57       1.0  0.88597  0.83496  0.37966  1.0000
  O   O58       1.0  0.11403  0.83496  0.12034  1.0000
  O   O59       1.0  0.38597  0.33496  0.37966  1.0000
  O   O60       1.0  0.61403  0.33496  0.12034  1.0000
  O   O61       1.0  0.11403  0.16504  0.62034  1.0000
  O   O62       1.0  0.88597  0.16504  0.87966  1.0000
  O   O63       1.0  0.61403  0.66504  0.62034  1.0000
  O   O64       1.0  0.38597  0.66504  0.87966  1.0000
  O   O65       1.0  0.96275  0.88824  0.31592  1.0000
  O   O66       1.0  0.03725  0.88824  0.18408  1.0000
  O   O67       1.0  0.46275  0.38824  0.31592  1.0000
  O   O68       1.0  0.53725  0.38824  0.18408  1.0000
  O   O69       1.0  0.03725  0.11176  0.68408  1.0000
  O   O70       1.0  0.96275  0.11176  0.81592  1.0000
  O   O71       1.0  0.53725  0.61176  0.68408  1.0000
  O   O72       1.0  0.46275  0.61176  0.81592  1.0000
  O   O73       1.0  0.97774  0.95681  0.42534  1.0000
  O   O74       1.0  0.02226  0.95681  0.07466  1.0000
  O   O75       1.0  0.47774  0.45681  0.42534  1.0000
  O   O76       1.0  0.52226  0.45681  0.07466  1.0000
  O   O77       1.0  0.02226  0.04319  0.57466  1.0000
  O   O78       1.0  0.97774  0.04319  0.92534  1.0000
  O   O79       1.0  0.52226  0.54319  0.57466  1.0000
  O   O80       1.0  0.47774  0.54319  0.92534  1.0000
  O   O81       1.0  0.71928  0.63149  0.31417  1.0000
  O   O82       1.0  0.28072  0.63149  0.18583  1.0000
  O   O83       1.0  0.21928  0.13149  0.31417  1.0000
  O   O84       1.0  0.78072  0.13149  0.18583  1.0000
  O   O85       1.0  0.28072  0.36851  0.68583  1.0000
  O   O86       1.0  0.71928  0.36851  0.81417  1.0000
  O   O87       1.0  0.78072  0.86851  0.68583  1.0000
  O   O88       1.0  0.21928  0.86851  0.81417  1.0000
  O   O89       1.0  0.81378  0.62018  0.42634  1.0000
  O   O90       1.0  0.18622  0.62018  0.07366  1.0000
  O   O91       1.0  0.31378  0.12018  0.42634  1.0000
  O   O92       1.0  0.68622  0.12018  0.07366  1.0000
  O   O93       1.0  0.18622  0.37982  0.57366  1.0000
  O   O94       1.0  0.81378  0.37982  0.92634  1.0000
  O   O95       1.0  0.68622  0.87982  0.57366  1.0000
  O   O96       1.0  0.31378  0.87982  0.92634  1.0000
  O   O97       1.0  0.67964  0.54091  0.37913  1.0000
  O   O98       1.0  0.32036  0.54091  0.12087  1.0000
  O   O99       1.0  0.17964  0.04091  0.37913  1.0000
  O   O100      1.0  0.82036  0.04091  0.12087  1.0000
  O   O101      1.0  0.32036  0.45909  0.62087  1.0000
  O   O102      1.0  0.67964  0.45909  0.87913  1.0000
  O   O103      1.0  0.82036  0.95909  0.62087  1.0000
  O   O104      1.0  0.17964  0.95909  0.87913  1.0000
  O   O105      1.0  0.57090  0.48796  0.31577  1.0000
  O   O106      1.0  0.42910  0.48796  0.18423  1.0000
  O   O107      1.0  0.07090  0.98796  0.31577  1.0000
  O   O108      1.0  0.92910  0.98796  0.18423  1.0000
  O   O109      1.0  0.42910  0.51204  0.68423  1.0000
  O   O110      1.0  0.57090  0.51204  0.81577  1.0000
  O   O111      1.0  0.92910  0.01204  0.68423  1.0000
  O   O112      1.0  0.07090  0.01204  0.81577  1.0000
  O   O113      1.0  0.61069  0.41870  0.42363  1.0000
  O   O114      1.0  0.38931  0.41870  0.07637  1.0000
  O   O115      1.0  0.11069  0.91870  0.42363  1.0000
  O   O116      1.0  0.88931  0.91870  0.07637  1.0000
  O   O117      1.0  0.38931  0.58130  0.57637  1.0000
  O   O118      1.0  0.61069  0.58130  0.92363  1.0000
  O   O119      1.0  0.88931  0.08130  0.57637  1.0000
  O   O120      1.0  0.11069  0.08130  0.92363  1.0000
  O   O121      1.0  0.79171  0.63986  0.18575  1.0000
  O   O122      1.0  0.20829  0.63986  0.31425  1.0000
  O   O123      1.0  0.29171  0.13986  0.18575  1.0000
  O   O124      1.0  0.70829  0.13986  0.31425  1.0000
  O   O125      1.0  0.20829  0.36014  0.81425  1.0000
  O   O126      1.0  0.79171  0.36014  0.68575  1.0000
  O   O127      1.0  0.70829  0.86014  0.81425  1.0000
  O   O128      1.0  0.29171  0.86014  0.68575  1.0000
  O   O129      1.0  0.77569  0.70645  0.07364  1.0000
  O   O130      1.0  0.22431  0.70645  0.42636  1.0000
  O   O131      1.0  0.27569  0.20645  0.07364  1.0000
  O   O132      1.0  0.72431  0.20645  0.42636  1.0000
  O   O133      1.0  0.22431  0.29355  0.92636  1.0000
  O   O134      1.0  0.77569  0.29355  0.57364  1.0000
  O   O135      1.0  0.72431  0.79355  0.92636  1.0000
  O   O136      1.0  0.27569  0.79355  0.57364  1.0000
  O   O137      1.0  0.86561  0.58330  0.12074  1.0000
  O   O138      1.0  0.13439  0.58330  0.37926  1.0000
  O   O139      1.0  0.36561  0.08330  0.12074  1.0000
  O   O140      1.0  0.63439  0.08330  0.37926  1.0000
  O   O141      1.0  0.13439  0.41670  0.87926  1.0000
  O   O142      1.0  0.86561  0.41670  0.62074  1.0000
  O   O143      1.0  0.63439  0.91670  0.87926  1.0000
  O   O144      1.0  0.36561  0.91670  0.62074  1.0000
  O   O145      1.0  0.93375  0.48992  0.18380  1.0000
  O   O146      1.0  0.06625  0.48992  0.31620  1.0000
  O   O147      1.0  0.43375  0.98992  0.18380  1.0000
  O   O148      1.0  0.56625  0.98992  0.31620  1.0000
  O   O149      1.0  0.06625  0.51008  0.81620  1.0000
  O   O150      1.0  0.93375  0.51008  0.68380  1.0000
  O   O151      1.0  0.56625  0.01008  0.81620  1.0000
  O   O152      1.0  0.43375  0.01008  0.68380  1.0000
  O   O153      1.0  0.97583  0.50225  0.07589  1.0000
  O   O154      1.0  0.02417  0.50225  0.42411  1.0000
  O   O155      1.0  0.47583  0.00225  0.07589  1.0000
  O   O156      1.0  0.52417  0.00225  0.42411  1.0000
  O   O157      1.0  0.02417  0.49775  0.92411  1.0000
  O   O158      1.0  0.97583  0.49775  0.57589  1.0000
  O   O159      1.0  0.52417  0.99775  0.92411  1.0000
  O   O160      1.0  0.47583  0.99775  0.57589  1.0000
  C   C1        1.0  0.63605  0.71247  0.11258  1.0000
  C   C2        1.0  0.36395  0.71247  0.38742  1.0000
  C   C3        1.0  0.13605  0.21247  0.11258  1.0000
  C   C4        1.0  0.86395  0.21247  0.38742  1.0000
  C   C5        1.0  0.36395  0.28753  0.88742  1.0000
  C   C6        1.0  0.63605  0.28753  0.61258  1.0000
  C   C7        1.0  0.86395  0.78753  0.88742  1.0000
  C   C8        1.0  0.13605  0.78753  0.61258  1.0000
  C   C9        1.0  0.57742  0.74247  0.07361  1.0000
  C   C10       1.0  0.42258  0.74247  0.42639  1.0000
  C   C11       1.0  0.07742  0.24247  0.07361  1.0000
  C   C12       1.0  0.92258  0.24247  0.42639  1.0000
  C   C13       1.0  0.42258  0.25753  0.92639  1.0000
  C   C14       1.0  0.57742  0.25753  0.57361  1.0000
  C   C15       1.0  0.92258  0.75753  0.92639  1.0000
  C   C16       1.0  0.07742  0.75753  0.57361  1.0000
  C   C17       1.0  0.51227  0.80708  0.07334  1.0000
  C   C18       1.0  0.48773  0.80708  0.42666  1.0000
  C   C19       1.0  0.01227  0.30708  0.07334  1.0000
  C   C20       1.0  0.98773  0.30708  0.42666  1.0000
  C   C21       1.0  0.48773  0.19292  0.92666  1.0000
  C   C22       1.0  0.51227  0.19292  0.57334  1.0000
  C   C23       1.0  0.98773  0.69292  0.92666  1.0000
  C   C24       1.0  0.01227  0.69292  0.57334  1.0000
  C   C25       1.0  0.49234  0.85653  0.11259  1.0000
  C   C26       1.0  0.50766  0.85653  0.38741  1.0000
  C   C27       1.0  0.99234  0.35653  0.11259  1.0000
  C   C28       1.0  0.00766  0.35653  0.38741  1.0000
  C   C29       1.0  0.50766  0.14347  0.88741  1.0000
  C   C30       1.0  0.49234  0.14347  0.61259  1.0000
  C   C31       1.0  0.00766  0.64347  0.88741  1.0000
  C   C32       1.0  0.99234  0.64347  0.61259  1.0000
  C   C33       1.0  0.48162  0.77215  0.99890  1.0000
  C   C34       1.0  0.51838  0.77215  0.50110  1.0000
  C   C35       1.0  0.98162  0.27215  0.99890  1.0000
  C   C36       1.0  0.01838  0.27215  0.50110  1.0000
  C   C37       1.0  0.51838  0.22785  0.00110  1.0000
  C   C38       1.0  0.48162  0.22785  0.49890  1.0000
  C   C39       1.0  0.01838  0.72785  0.00110  1.0000
  C   C40       1.0  0.98162  0.72785  0.49890  1.0000
  H   H1        1.0  0.44020  0.77520  0.95530  1.0000
  H   H2        1.0  0.55980  0.77520  0.54470  1.0000
  H   H3        1.0  0.94020  0.27520  0.95530  1.0000
  H   H4        1.0  0.05980  0.27520  0.54470  1.0000
  H   H5        1.0  0.55980  0.22480  0.04470  1.0000
  H   H6        1.0  0.44020  0.22480  0.45530  1.0000
  H   H7        1.0  0.05980  0.72480  0.04470  1.0000
  H   H8        1.0  0.94020  0.72480  0.45530  1.0000
  C   C41       1.0  0.52370  0.72998  0.99880  1.0000
  C   C42       1.0  0.47630  0.72998  0.50120  1.0000
  C   C43       1.0  0.02370  0.22998  0.99880  1.0000
  C   C44       1.0  0.97630  0.22998  0.50120  1.0000
  C   C45       1.0  0.47630  0.27002  0.00120  1.0000
  C   C46       1.0  0.52370  0.27002  0.49880  1.0000
  C   C47       1.0  0.97630  0.77002  0.00120  1.0000
  C   C48       1.0  0.02370  0.77002  0.49880  1.0000
  H   H9        1.0  0.51590  0.69930  0.95540  1.0000
  H   H10       1.0  0.48410  0.69930  0.54460  1.0000
  H   H11       1.0  0.01590  0.19930  0.95540  1.0000
  H   H12       1.0  0.98410  0.19930  0.54460  1.0000
  H   H13       1.0  0.48410  0.30070  0.04460  1.0000
  H   H14       1.0  0.51590  0.30070  0.45540  1.0000
  H   H15       1.0  0.98410  0.80070  0.04460  1.0000
  H   H16       1.0  0.01590  0.80070  0.45540  1.0000
  C   C49       1.0  0.80988  0.76888  0.38676  1.0000
  C   C50       1.0  0.19012  0.76888  0.11324  1.0000
  C   C51       1.0  0.30988  0.26888  0.38676  1.0000
  C   C52       1.0  0.69012  0.26888  0.11324  1.0000
  C   C53       1.0  0.19012  0.23112  0.61324  1.0000
  C   C54       1.0  0.80988  0.23112  0.88676  1.0000
  C   C55       1.0  0.69012  0.73112  0.61324  1.0000
  C   C56       1.0  0.30988  0.73112  0.88676  1.0000
  C   C57       1.0  0.85001  0.81831  0.42579  1.0000
  C   C58       1.0  0.14999  0.81831  0.07421  1.0000
  C   C59       1.0  0.35001  0.31831  0.42579  1.0000
  C   C60       1.0  0.64999  0.31831  0.07421  1.0000
  C   C61       1.0  0.14999  0.18169  0.57421  1.0000
  C   C62       1.0  0.85001  0.18169  0.92579  1.0000
  C   C63       1.0  0.64999  0.68169  0.57421  1.0000
  C   C64       1.0  0.35001  0.68169  0.92579  1.0000
  C   C65       1.0  0.91567  0.88227  0.42678  1.0000
  C   C66       1.0  0.08433  0.88227  0.07322  1.0000
  C   C67       1.0  0.41567  0.38227  0.42678  1.0000
  C   C68       1.0  0.58433  0.38227  0.07322  1.0000
  C   C69       1.0  0.08433  0.11773  0.57322  1.0000
  C   C70       1.0  0.91567  0.11773  0.92678  1.0000
  C   C71       1.0  0.58433  0.61773  0.57322  1.0000
  C   C72       1.0  0.41567  0.61773  0.92678  1.0000
  C   C73       1.0  0.95572  0.91145  0.38783  1.0000
  C   C74       1.0  0.04428  0.91145  0.11217  1.0000
  C   C75       1.0  0.45572  0.41145  0.38783  1.0000
  C   C76       1.0  0.54428  0.41145  0.11217  1.0000
  C   C77       1.0  0.04428  0.08855  0.61217  1.0000
  C   C78       1.0  0.95572  0.08855  0.88783  1.0000
  C   C79       1.0  0.54428  0.58855  0.61217  1.0000
  C   C80       1.0  0.45572  0.58855  0.88783  1.0000
  C   C81       1.0  0.89953  0.89439  0.50170  1.0000
  C   C82       1.0  0.10047  0.89439  0.99830  1.0000
  C   C83       1.0  0.39953  0.39439  0.50170  1.0000
  C   C84       1.0  0.60047  0.39439  0.99830  1.0000
  C   C85       1.0  0.10047  0.10561  0.49830  1.0000
  C   C86       1.0  0.89953  0.10561  0.00170  1.0000
  C   C87       1.0  0.60047  0.60561  0.49830  1.0000
  C   C88       1.0  0.39953  0.60561  0.00170  1.0000
  H   H17       1.0  0.91400  0.92460  0.54580  1.0000
  H   H18       1.0  0.08600  0.92460  0.95420  1.0000
  H   H19       1.0  0.41400  0.42460  0.54580  1.0000
  H   H20       1.0  0.58600  0.42460  0.95420  1.0000
  H   H21       1.0  0.08600  0.07540  0.45420  1.0000
  H   H22       1.0  0.91400  0.07540  0.04580  1.0000
  H   H23       1.0  0.58600  0.57540  0.45420  1.0000
  H   H24       1.0  0.41400  0.57540  0.04580  1.0000
  C   C89       1.0  0.85690  0.85301  0.50110  1.0000
  C   C90       1.0  0.14310  0.85301  0.99890  1.0000
  C   C91       1.0  0.35690  0.35301  0.50110  1.0000
  C   C92       1.0  0.64310  0.35301  0.99890  1.0000
  C   C93       1.0  0.14310  0.14699  0.49890  1.0000
  C   C94       1.0  0.85690  0.14699  0.00110  1.0000
  C   C95       1.0  0.64310  0.64699  0.49890  1.0000
  C   C96       1.0  0.35690  0.64699  0.00110  1.0000
  H   H25       1.0  0.83710  0.85010  0.54460  1.0000
  H   H26       1.0  0.16290  0.85010  0.95540  1.0000
  H   H27       1.0  0.33710  0.35010  0.54460  1.0000
  H   H28       1.0  0.66290  0.35010  0.95540  1.0000
  H   H29       1.0  0.16290  0.14990  0.45540  1.0000
  H   H30       1.0  0.83710  0.14990  0.04460  1.0000
  H   H31       1.0  0.66290  0.64990  0.45540  1.0000
  H   H32       1.0  0.33710  0.64990  0.04460  1.0000
  C   C97       1.0  0.75916  0.60691  0.38660  1.0000
  C   C98       1.0  0.24084  0.60691  0.11340  1.0000
  C   C99       1.0  0.25916  0.10691  0.38660  1.0000
  C   C100      1.0  0.74084  0.10691  0.11340  1.0000
  C   C101      1.0  0.24084  0.39309  0.61340  1.0000
  C   C102      1.0  0.75916  0.39309  0.88660  1.0000
  C   C103      1.0  0.74084  0.89309  0.61340  1.0000
  C   C104      1.0  0.25916  0.89309  0.88660  1.0000
  C   C105      1.0  0.73875  0.55798  0.42587  1.0000
  C   C106      1.0  0.26125  0.55798  0.07413  1.0000
  C   C107      1.0  0.23875  0.05798  0.42587  1.0000
  C   C108      1.0  0.76125  0.05798  0.07413  1.0000
  C   C109      1.0  0.26125  0.44202  0.57413  1.0000
  C   C110      1.0  0.73875  0.44202  0.92587  1.0000
  C   C111      1.0  0.76125  0.94202  0.57413  1.0000
  C   C112      1.0  0.23875  0.94202  0.92587  1.0000
  C   C113      1.0  0.67352  0.49360  0.42561  1.0000
  C   C114      1.0  0.32648  0.49360  0.07439  1.0000
  C   C115      1.0  0.17352  0.99360  0.42561  1.0000
  C   C116      1.0  0.82648  0.99360  0.07439  1.0000
  C   C117      1.0  0.32648  0.50640  0.57439  1.0000
  C   C118      1.0  0.67352  0.50640  0.92561  1.0000
  C   C119      1.0  0.82648  0.00640  0.57439  1.0000
  C   C120      1.0  0.17352  0.00640  0.92561  1.0000
  C   C121      1.0  0.61374  0.46415  0.38638  1.0000
  C   C122      1.0  0.38626  0.46415  0.11362  1.0000
  C   C123      1.0  0.11374  0.96415  0.38638  1.0000
  C   C124      1.0  0.88626  0.96415  0.11362  1.0000
  C   C125      1.0  0.38626  0.53585  0.61362  1.0000
  C   C126      1.0  0.61374  0.53585  0.88638  1.0000
  C   C127      1.0  0.88626  0.03585  0.61362  1.0000
  C   C128      1.0  0.11374  0.03585  0.88638  1.0000
  C   C129      1.0  0.72697  0.48144  0.50020  1.0000
  C   C130      1.0  0.27303  0.48144  0.99980  1.0000
  C   C131      1.0  0.22697  0.98144  0.50020  1.0000
  C   C132      1.0  0.77303  0.98144  0.99980  1.0000
  C   C133      1.0  0.27303  0.51856  0.49980  1.0000
  C   C134      1.0  0.72697  0.51856  0.00020  1.0000
  C   C135      1.0  0.77303  0.01856  0.49980  1.0000
  C   C136      1.0  0.22697  0.01856  0.00020  1.0000
  H   H33       1.0  0.73460  0.45090  0.54380  1.0000
  H   H34       1.0  0.26540  0.45090  0.95620  1.0000
  H   H35       1.0  0.23460  0.95090  0.54380  1.0000
  H   H36       1.0  0.76540  0.95090  0.95620  1.0000
  H   H37       1.0  0.26540  0.54910  0.45620  1.0000
  H   H38       1.0  0.73460  0.54910  0.04380  1.0000
  H   H39       1.0  0.76540  0.04910  0.45620  1.0000
  H   H40       1.0  0.23460  0.04910  0.04380  1.0000
  C   C137      1.0  0.76915  0.52282  0.50050  1.0000
  C   C138      1.0  0.23085  0.52282  0.99950  1.0000
  C   C139      1.0  0.26915  0.02282  0.50050  1.0000
  C   C140      1.0  0.73085  0.02282  0.99950  1.0000
  C   C141      1.0  0.23085  0.47718  0.49950  1.0000
  C   C142      1.0  0.76915  0.47718  0.00050  1.0000
  C   C143      1.0  0.73085  0.97718  0.49950  1.0000
  C   C144      1.0  0.26915  0.97718  0.00050  1.0000
  H   H41       1.0  0.81060  0.52550  0.54420  1.0000
  H   H42       1.0  0.18940  0.52550  0.95580  1.0000
  H   H43       1.0  0.31060  0.02550  0.54420  1.0000
  H   H44       1.0  0.68940  0.02550  0.95580  1.0000
  H   H45       1.0  0.18940  0.47450  0.45580  1.0000
  H   H46       1.0  0.81060  0.47450  0.04420  1.0000
  H   H47       1.0  0.68940  0.97450  0.45580  1.0000
  H   H48       1.0  0.31060  0.97450  0.04420  1.0000
  C   C145      1.0  0.79831  0.66168  0.11331  1.0000
  C   C146      1.0  0.20169  0.66168  0.38669  1.0000
  C   C147      1.0  0.29831  0.16168  0.11331  1.0000
  C   C148      1.0  0.70169  0.16168  0.38669  1.0000
  C   C149      1.0  0.20169  0.33832  0.88669  1.0000
  C   C150      1.0  0.79831  0.33832  0.61331  1.0000
  C   C151      1.0  0.70169  0.83832  0.88669  1.0000
  C   C152      1.0  0.29831  0.83832  0.61331  1.0000
  C   C153      1.0  0.83744  0.63101  0.07415  1.0000
  C   C154      1.0  0.16256  0.63101  0.42585  1.0000
  C   C155      1.0  0.33744  0.13101  0.07415  1.0000
  C   C156      1.0  0.66256  0.13101  0.42585  1.0000
  C   C157      1.0  0.16256  0.36899  0.92585  1.0000
  C   C158      1.0  0.83744  0.36899  0.57415  1.0000
  C   C159      1.0  0.66256  0.86899  0.92585  1.0000
  C   C160      1.0  0.33744  0.86899  0.57415  1.0000
  C   C161      1.0  0.90076  0.56470  0.07363  1.0000
  C   C162      1.0  0.09924  0.56470  0.42637  1.0000
  C   C163      1.0  0.40076  0.06470  0.07363  1.0000
  C   C164      1.0  0.59924  0.06470  0.42637  1.0000
  C   C165      1.0  0.09924  0.43530  0.92637  1.0000
  C   C166      1.0  0.90076  0.43530  0.57363  1.0000
  C   C167      1.0  0.59924  0.93530  0.92637  1.0000
  C   C168      1.0  0.40076  0.93530  0.57363  1.0000
  C   C169      1.0  0.93966  0.51510  0.11272  1.0000
  C   C170      1.0  0.06034  0.51510  0.38728  1.0000
  C   C171      1.0  0.43966  0.01510  0.11272  1.0000
  C   C172      1.0  0.56034  0.01510  0.38728  1.0000
  C   C173      1.0  0.06034  0.48490  0.88728  1.0000
  C   C174      1.0  0.93966  0.48490  0.61272  1.0000
  C   C175      1.0  0.56034  0.98490  0.88728  1.0000
  C   C176      1.0  0.43966  0.98490  0.61272  1.0000
  C   C177      1.0  0.89477  0.59978  0.99920  1.0000
  C   C178      1.0  0.10523  0.59978  0.50080  1.0000
  C   C179      1.0  0.39477  0.09978  0.99920  1.0000
  C   C180      1.0  0.60523  0.09978  0.50080  1.0000
  C   C181      1.0  0.10523  0.40022  0.00080  1.0000
  C   C182      1.0  0.89477  0.40022  0.49920  1.0000
  C   C183      1.0  0.60523  0.90022  0.00080  1.0000
  C   C184      1.0  0.39477  0.90022  0.49920  1.0000
  H   H49       1.0  0.91420  0.59630  0.95540  1.0000
  H   H50       1.0  0.08580  0.59630  0.54460  1.0000
  H   H51       1.0  0.41420  0.09630  0.95540  1.0000
  H   H52       1.0  0.58580  0.09630  0.54460  1.0000
  H   H53       1.0  0.08580  0.40370  0.04460  1.0000
  H   H54       1.0  0.91420  0.40370  0.45540  1.0000
  H   H55       1.0  0.58580  0.90370  0.04460  1.0000
  H   H56       1.0  0.41420  0.90370  0.45540  1.0000
  C   C185      1.0  0.85396  0.64258  0.99960  1.0000
  C   C186      1.0  0.14604  0.64258  0.50040  1.0000
  C   C187      1.0  0.35396  0.14258  0.99960  1.0000
  C   C188      1.0  0.64604  0.14258  0.50040  1.0000
  C   C189      1.0  0.14604  0.35742  0.00040  1.0000
  C   C190      1.0  0.85396  0.35742  0.49960  1.0000
  C   C191      1.0  0.64604  0.85742  0.00040  1.0000
  C   C192      1.0  0.35396  0.85742  0.49960  1.0000
  H   H57       1.0  0.84080  0.67330  0.95620  1.0000
  H   H58       1.0  0.15920  0.67330  0.54380  1.0000
  H   H59       1.0  0.34080  0.17330  0.95620  1.0000
  H   H60       1.0  0.65920  0.17330  0.54380  1.0000
  H   H61       1.0  0.15920  0.32670  0.04380  1.0000
  H   H62       1.0  0.84080  0.32670  0.45620  1.0000
  H   H63       1.0  0.65920  0.82670  0.04380  1.0000
  H   H64       1.0  0.34080  0.82670  0.45620  1.0000
