data_image0
_chemical_formula_structural       Cd4O48C16H8C16H8C24H8C8H8C8H8C24H8C8H8C24H8N8C8H8C16H8C16H8C8H8C16H8C8H8C8Cd8O8C4H4
_chemical_formula_sum              "Cd12 O56 C212 H116 N8"
_cell_length_a       16.7239
_cell_length_b       32.8138
_cell_length_c       12.8458
_cell_angle_alpha    90
_cell_angle_beta     90
_cell_angle_gamma    90

_space_group_name_H-M_alt    "P 1"
_space_group_IT_number       1

loop_
  _space_group_symop_operation_xyz
  'x, y, z'

loop_
  _atom_site_type_symbol
  _atom_site_label
  _atom_site_symmetry_multiplicity
  _atom_site_fract_x
  _atom_site_fract_y
  _atom_site_fract_z
  _atom_site_occupancy
  Cd  Cd1       1.0  0.50000  0.48541  0.75000  1.0000
  Cd  Cd2       1.0  0.00000  0.01459  0.25000  1.0000
  Cd  Cd3       1.0  0.50000  0.51459  0.25000  1.0000
  Cd  Cd4       1.0  0.00000  0.98541  0.75000  1.0000
  O   O1        1.0  0.55840  0.47071  0.92370  1.0000
  O   O2        1.0  0.94160  0.02929  0.42370  1.0000
  O   O3        1.0  0.05840  0.02929  0.07630  1.0000
  O   O4        1.0  0.44160  0.47071  0.57630  1.0000
  O   O5        1.0  0.44160  0.52929  0.07630  1.0000
  O   O6        1.0  0.05840  0.97071  0.57630  1.0000
  O   O7        1.0  0.94160  0.97071  0.92370  1.0000
  O   O8        1.0  0.55840  0.52929  0.42370  1.0000
  O   O9        1.0  0.63740  0.52176  0.97170  1.0000
  O   O10       1.0  0.86260  0.97824  0.47170  1.0000
  O   O11       1.0  0.13740  0.97824  0.02830  1.0000
  O   O12       1.0  0.36260  0.52176  0.52830  1.0000
  O   O13       1.0  0.36260  0.47824  0.02830  1.0000
  O   O14       1.0  0.13740  0.02176  0.52830  1.0000
  O   O15       1.0  0.86260  0.02176  0.97170  1.0000
  O   O16       1.0  0.63740  0.47824  0.47170  1.0000
  O   O17       1.0  0.01750  0.12812  0.00170  1.0000
  O   O18       1.0  0.48250  0.37188  0.50170  1.0000
  O   O19       1.0  0.51750  0.37188  0.99830  1.0000
  O   O20       1.0  0.98250  0.12812  0.49830  1.0000
  O   O21       1.0  0.98250  0.87188  0.99830  1.0000
  O   O22       1.0  0.51750  0.62812  0.49830  1.0000
  O   O23       1.0  0.48250  0.62812  0.00170  1.0000
  O   O24       1.0  0.01750  0.87188  0.50170  1.0000
  O   O25       1.0  0.35520  0.49284  0.77360  1.0000
  O   O26       1.0  0.14480  0.00716  0.27360  1.0000
  O   O27       1.0  0.85520  0.00716  0.22640  1.0000
  O   O28       1.0  0.64480  0.49284  0.72640  1.0000
  O   O29       1.0  0.64480  0.50716  0.22640  1.0000
  O   O30       1.0  0.85520  0.99284  0.72640  1.0000
  O   O31       1.0  0.14480  0.99284  0.77360  1.0000
  O   O32       1.0  0.35520  0.50716  0.27360  1.0000
  O   O33       1.0  0.41600  0.43733  0.82900  1.0000
  O   O34       1.0  0.08400  0.06267  0.32900  1.0000
  O   O35       1.0  0.91600  0.06267  0.17100  1.0000
  O   O36       1.0  0.58400  0.43733  0.67100  1.0000
  O   O37       1.0  0.58400  0.56267  0.17100  1.0000
  O   O38       1.0  0.91600  0.93733  0.67100  1.0000
  O   O39       1.0  0.08400  0.93733  0.82900  1.0000
  O   O40       1.0  0.41600  0.56267  0.32900  1.0000
  O   O41       1.0  0.89910  0.12506  0.92980  1.0000
  O   O42       1.0  0.60090  0.37494  0.42980  1.0000
  O   O43       1.0  0.39910  0.37494  0.07020  1.0000
  O   O44       1.0  0.10090  0.12506  0.57020  1.0000
  O   O45       1.0  0.10090  0.87494  0.07020  1.0000
  O   O46       1.0  0.39910  0.62506  0.57020  1.0000
  O   O47       1.0  0.60090  0.62506  0.92980  1.0000
  O   O48       1.0  0.89910  0.87494  0.42980  1.0000
  C   C1        1.0  0.62620  0.48540  0.95000  1.0000
  C   C2        1.0  0.87380  0.01460  0.45000  1.0000
  C   C3        1.0  0.12620  0.01460  0.05000  1.0000
  C   C4        1.0  0.37380  0.48540  0.55000  1.0000
  C   C5        1.0  0.37380  0.51460  0.05000  1.0000
  C   C6        1.0  0.12620  0.98540  0.55000  1.0000
  C   C7        1.0  0.87380  0.98540  0.95000  1.0000
  C   C8        1.0  0.62620  0.51460  0.45000  1.0000
  C   C9        1.0  0.97940  0.40280  0.89990  1.0000
  C   C10       1.0  0.52060  0.09720  0.39990  1.0000
  C   C11       1.0  0.47940  0.09720  0.10010  1.0000
  C   C12       1.0  0.02060  0.40280  0.60010  1.0000
  C   C13       1.0  0.02060  0.59720  0.10010  1.0000
  C   C14       1.0  0.47940  0.90280  0.60010  1.0000
  C   C15       1.0  0.52060  0.90280  0.89990  1.0000
  C   C16       1.0  0.97940  0.59720  0.39990  1.0000
  H   H1        1.0  0.98240  0.43110  0.89830  1.0000
  H   H2        1.0  0.51760  0.06890  0.39830  1.0000
  H   H3        1.0  0.48240  0.06890  0.10170  1.0000
  H   H4        1.0  0.01760  0.43110  0.60170  1.0000
  H   H5        1.0  0.01760  0.56890  0.10170  1.0000
  H   H6        1.0  0.48240  0.93110  0.60170  1.0000
  H   H7        1.0  0.51760  0.93110  0.89830  1.0000
  H   H8        1.0  0.98240  0.56890  0.39830  1.0000
  C   C17       1.0  0.35110  0.45750  0.80830  1.0000
  C   C18       1.0  0.14890  0.04250  0.30830  1.0000
  C   C19       1.0  0.85110  0.04250  0.19170  1.0000
  C   C20       1.0  0.64890  0.45750  0.69170  1.0000
  C   C21       1.0  0.64890  0.54250  0.19170  1.0000
  C   C22       1.0  0.85110  0.95750  0.69170  1.0000
  C   C23       1.0  0.14890  0.95750  0.80830  1.0000
  C   C24       1.0  0.35110  0.54250  0.30830  1.0000
  C   C25       1.0  0.20270  0.45800  0.80900  1.0000
  C   C26       1.0  0.29730  0.04200  0.30900  1.0000
  C   C27       1.0  0.70270  0.04200  0.19100  1.0000
  C   C28       1.0  0.79730  0.45800  0.69100  1.0000
  C   C29       1.0  0.79730  0.54200  0.19100  1.0000
  C   C30       1.0  0.70270  0.95800  0.69100  1.0000
  C   C31       1.0  0.29730  0.95800  0.80900  1.0000
  C   C32       1.0  0.20270  0.54200  0.30900  1.0000
  H   H9        1.0  0.20430  0.48390  0.77950  1.0000
  H   H10       1.0  0.29570  0.01610  0.27950  1.0000
  H   H11       1.0  0.70430  0.01610  0.22050  1.0000
  H   H12       1.0  0.79570  0.48390  0.72050  1.0000
  H   H13       1.0  0.79570  0.51610  0.22050  1.0000
  H   H14       1.0  0.70430  0.98390  0.72050  1.0000
  H   H15       1.0  0.29570  0.98390  0.77950  1.0000
  H   H16       1.0  0.20430  0.51610  0.27950  1.0000
  C   C33       1.0  0.69790  0.45780  0.94930  1.0000
  C   C34       1.0  0.80210  0.04220  0.44930  1.0000
  C   C35       1.0  0.19790  0.04220  0.05070  1.0000
  C   C36       1.0  0.30210  0.45780  0.55070  1.0000
  C   C37       1.0  0.30210  0.54220  0.05070  1.0000
  C   C38       1.0  0.19790  0.95780  0.55070  1.0000
  C   C39       1.0  0.80210  0.95780  0.94930  1.0000
  C   C40       1.0  0.69790  0.54220  0.44930  1.0000
  C   C41       1.0  0.27230  0.43800  0.83170  1.0000
  C   C42       1.0  0.22770  0.06200  0.33170  1.0000
  C   C43       1.0  0.77230  0.06200  0.16830  1.0000
  C   C44       1.0  0.72770  0.43800  0.66830  1.0000
  C   C45       1.0  0.72770  0.56200  0.16830  1.0000
  C   C46       1.0  0.77230  0.93800  0.66830  1.0000
  C   C47       1.0  0.22770  0.93800  0.83170  1.0000
  C   C48       1.0  0.27230  0.56200  0.33170  1.0000
  C   C49       1.0  0.75890  0.39320  0.91090  1.0000
  C   C50       1.0  0.74110  0.10680  0.41090  1.0000
  C   C51       1.0  0.25890  0.10680  0.08910  1.0000
  C   C52       1.0  0.24110  0.39320  0.58910  1.0000
  C   C53       1.0  0.24110  0.60680  0.08910  1.0000
  C   C54       1.0  0.25890  0.89320  0.58910  1.0000
  C   C55       1.0  0.74110  0.89320  0.91090  1.0000
  C   C56       1.0  0.75890  0.60680  0.41090  1.0000
  H   H17       1.0  0.75360  0.36630  0.88890  1.0000
  H   H18       1.0  0.74640  0.13370  0.38890  1.0000
  H   H19       1.0  0.25360  0.13370  0.11110  1.0000
  H   H20       1.0  0.24640  0.36630  0.61110  1.0000
  H   H21       1.0  0.24640  0.63370  0.11110  1.0000
  H   H22       1.0  0.25360  0.86630  0.61110  1.0000
  H   H23       1.0  0.74640  0.86630  0.88890  1.0000
  H   H24       1.0  0.75360  0.63370  0.38890  1.0000
  C   C57       1.0  0.69210  0.41730  0.92130  1.0000
  C   C58       1.0  0.80790  0.08270  0.42130  1.0000
  C   C59       1.0  0.19210  0.08270  0.07870  1.0000
  C   C60       1.0  0.30790  0.41730  0.57870  1.0000
  C   C61       1.0  0.30790  0.58270  0.07870  1.0000
  C   C62       1.0  0.19210  0.91730  0.57870  1.0000
  C   C63       1.0  0.80790  0.91730  0.92130  1.0000
  C   C64       1.0  0.69210  0.58270  0.42130  1.0000
  H   H25       1.0  0.64190  0.40600  0.90910  1.0000
  H   H26       1.0  0.85810  0.09400  0.40910  1.0000
  H   H27       1.0  0.14190  0.09400  0.09090  1.0000
  H   H28       1.0  0.35810  0.40600  0.59090  1.0000
  H   H29       1.0  0.35810  0.59400  0.09090  1.0000
  H   H30       1.0  0.14190  0.90600  0.59090  1.0000
  H   H31       1.0  0.85810  0.90600  0.90910  1.0000
  H   H32       1.0  0.64190  0.59400  0.40910  1.0000
  C   C65       1.0  0.77240  0.47320  0.97370  1.0000
  C   C66       1.0  0.72760  0.02680  0.47370  1.0000
  C   C67       1.0  0.27240  0.02680  0.02630  1.0000
  C   C68       1.0  0.22760  0.47320  0.52630  1.0000
  C   C69       1.0  0.22760  0.52680  0.02630  1.0000
  C   C70       1.0  0.27240  0.97320  0.52630  1.0000
  C   C71       1.0  0.72760  0.97320  0.97370  1.0000
  C   C72       1.0  0.77240  0.52680  0.47370  1.0000
  H   H33       1.0  0.77710  0.50000  0.99660  1.0000
  H   H34       1.0  0.72290  0.00000  0.49660  1.0000
  H   H35       1.0  0.27710  0.00000  0.00340  1.0000
  H   H36       1.0  0.22290  0.50000  0.50340  1.0000
  H   H37       1.0  0.22290  0.50000  0.00340  1.0000
  H   H38       1.0  0.27710  0.00000  0.50340  1.0000
  H   H39       1.0  0.72290  0.00000  0.99660  1.0000
  H   H40       1.0  0.77710  0.50000  0.49660  1.0000
  C   C73       1.0  0.83430  0.40870  0.93290  1.0000
  C   C74       1.0  0.66570  0.09130  0.43290  1.0000
  C   C75       1.0  0.33430  0.09130  0.06710  1.0000
  C   C76       1.0  0.16570  0.40870  0.56710  1.0000
  C   C77       1.0  0.16570  0.59130  0.06710  1.0000
  C   C78       1.0  0.33430  0.90870  0.56710  1.0000
  C   C79       1.0  0.66570  0.90870  0.93290  1.0000
  C   C80       1.0  0.83430  0.59130  0.43290  1.0000
  C   C81       1.0  0.95930  0.14500  0.96030  1.0000
  C   C82       1.0  0.54070  0.35500  0.46030  1.0000
  C   C83       1.0  0.45930  0.35500  0.03970  1.0000
  C   C84       1.0  0.04070  0.14500  0.53970  1.0000
  C   C85       1.0  0.04070  0.85500  0.03970  1.0000
  C   C86       1.0  0.45930  0.64500  0.53970  1.0000
  C   C87       1.0  0.54070  0.64500  0.96030  1.0000
  C   C88       1.0  0.95930  0.85500  0.46030  1.0000
  C   C89       1.0  0.12980  0.43980  0.83010  1.0000
  C   C90       1.0  0.37020  0.06020  0.33010  1.0000
  C   C91       1.0  0.62980  0.06020  0.16990  1.0000
  C   C92       1.0  0.87020  0.43980  0.66990  1.0000
  C   C93       1.0  0.87020  0.56020  0.16990  1.0000
  C   C94       1.0  0.62980  0.93980  0.66990  1.0000
  C   C95       1.0  0.37020  0.93980  0.83010  1.0000
  C   C96       1.0  0.12980  0.56020  0.33010  1.0000
  H   H41       1.0  0.08290  0.45450  0.81980  1.0000
  H   H42       1.0  0.41710  0.04550  0.31980  1.0000
  H   H43       1.0  0.58290  0.04550  0.18020  1.0000
  H   H44       1.0  0.91710  0.45450  0.68020  1.0000
  H   H45       1.0  0.91710  0.54550  0.18020  1.0000
  H   H46       1.0  0.58290  0.95450  0.68020  1.0000
  H   H47       1.0  0.41710  0.95450  0.81980  1.0000
  H   H48       1.0  0.08290  0.54550  0.31980  1.0000
  C   C97       1.0  0.19680  0.38030  0.88780  1.0000
  C   C98       1.0  0.30320  0.11970  0.38780  1.0000
  C   C99       1.0  0.69680  0.11970  0.11220  1.0000
  C   C100      1.0  0.80320  0.38030  0.61220  1.0000
  C   C101      1.0  0.80320  0.61970  0.11220  1.0000
  C   C102      1.0  0.69680  0.88030  0.61220  1.0000
  C   C103      1.0  0.30320  0.88030  0.88780  1.0000
  C   C104      1.0  0.19680  0.61970  0.38780  1.0000
  H   H49       1.0  0.19540  0.35390  0.91420  1.0000
  H   H50       1.0  0.30460  0.14610  0.41420  1.0000
  H   H51       1.0  0.69540  0.14610  0.08580  1.0000
  H   H52       1.0  0.80460  0.35390  0.58580  1.0000
  H   H53       1.0  0.80460  0.64610  0.08580  1.0000
  H   H54       1.0  0.69540  0.85390  0.58580  1.0000
  H   H55       1.0  0.30460  0.85390  0.91420  1.0000
  H   H56       1.0  0.19540  0.64610  0.41420  1.0000
  C   C105      1.0  0.12580  0.40030  0.86600  1.0000
  C   C106      1.0  0.37420  0.09970  0.36600  1.0000
  C   C107      1.0  0.62580  0.09970  0.13400  1.0000
  C   C108      1.0  0.87420  0.40030  0.63400  1.0000
  C   C109      1.0  0.87420  0.59970  0.13400  1.0000
  C   C110      1.0  0.62580  0.90030  0.63400  1.0000
  C   C111      1.0  0.37420  0.90030  0.86600  1.0000
  C   C112      1.0  0.12580  0.59970  0.36600  1.0000
  C   C113      1.0  0.90780  0.38420  0.91770  1.0000
  C   C114      1.0  0.59220  0.11580  0.41770  1.0000
  C   C115      1.0  0.40780  0.11580  0.08230  1.0000
  C   C116      1.0  0.09220  0.38420  0.58230  1.0000
  C   C117      1.0  0.09220  0.61580  0.08230  1.0000
  C   C118      1.0  0.40780  0.88420  0.58230  1.0000
  C   C119      1.0  0.59220  0.88420  0.91770  1.0000
  C   C120      1.0  0.90780  0.61580  0.41770  1.0000
  C   C121      1.0  0.83960  0.44940  0.96450  1.0000
  C   C122      1.0  0.66040  0.05060  0.46450  1.0000
  C   C123      1.0  0.33960  0.05060  0.03550  1.0000
  C   C124      1.0  0.16040  0.44940  0.53550  1.0000
  C   C125      1.0  0.16040  0.55060  0.03550  1.0000
  C   C126      1.0  0.33960  0.94940  0.53550  1.0000
  C   C127      1.0  0.66040  0.94940  0.96450  1.0000
  C   C128      1.0  0.83960  0.55060  0.46450  1.0000
  H   H57       1.0  0.88950  0.46050  0.97960  1.0000
  H   H58       1.0  0.61050  0.03950  0.47960  1.0000
  H   H59       1.0  0.38950  0.03950  0.02040  1.0000
  H   H60       1.0  0.11050  0.46050  0.52040  1.0000
  H   H61       1.0  0.11050  0.53950  0.02040  1.0000
  H   H62       1.0  0.38950  0.96050  0.52040  1.0000
  H   H63       1.0  0.61050  0.96050  0.97960  1.0000
  H   H64       1.0  0.88950  0.53950  0.47960  1.0000
  N   N1        1.0  0.90270  0.34200  0.92020  1.0000
  N   N2        1.0  0.59730  0.15800  0.42020  1.0000
  N   N3        1.0  0.40270  0.15800  0.07980  1.0000
  N   N4        1.0  0.09730  0.34200  0.57980  1.0000
  N   N5        1.0  0.09730  0.65800  0.07980  1.0000
  N   N6        1.0  0.40270  0.84200  0.57980  1.0000
  N   N7        1.0  0.59730  0.84200  0.92020  1.0000
  N   N8        1.0  0.90270  0.65800  0.42020  1.0000
  C   C129      1.0  0.26890  0.39880  0.87110  1.0000
  C   C130      1.0  0.23110  0.10120  0.37110  1.0000
  C   C131      1.0  0.76890  0.10120  0.12890  1.0000
  C   C132      1.0  0.73110  0.39880  0.62890  1.0000
  C   C133      1.0  0.73110  0.60120  0.12890  1.0000
  C   C134      1.0  0.76890  0.89880  0.62890  1.0000
  C   C135      1.0  0.23110  0.89880  0.87110  1.0000
  C   C136      1.0  0.26890  0.60120  0.37110  1.0000
  H   H65       1.0  0.31600  0.38500  0.88650  1.0000
  H   H66       1.0  0.18400  0.11500  0.38650  1.0000
  H   H67       1.0  0.81600  0.11500  0.11350  1.0000
  H   H68       1.0  0.68400  0.38500  0.61350  1.0000
  H   H69       1.0  0.68400  0.61500  0.11350  1.0000
  H   H70       1.0  0.81600  0.88500  0.61350  1.0000
  H   H71       1.0  0.18400  0.88500  0.88650  1.0000
  H   H72       1.0  0.31600  0.61500  0.38650  1.0000
  C   C137      1.0  0.04660  0.38010  0.88460  1.0000
  C   C138      1.0  0.45340  0.11990  0.38460  1.0000
  C   C139      1.0  0.54660  0.11990  0.11540  1.0000
  C   C140      1.0  0.95340  0.38010  0.61540  1.0000
  C   C141      1.0  0.95340  0.61990  0.11540  1.0000
  C   C142      1.0  0.54660  0.88010  0.61540  1.0000
  C   C143      1.0  0.45340  0.88010  0.88460  1.0000
  C   C144      1.0  0.04660  0.61990  0.38460  1.0000
  C   C145      1.0  0.04300  0.33830  0.88750  1.0000
  C   C146      1.0  0.45700  0.16170  0.38750  1.0000
  C   C147      1.0  0.54300  0.16170  0.11250  1.0000
  C   C148      1.0  0.95700  0.33830  0.61250  1.0000
  C   C149      1.0  0.95700  0.66170  0.11250  1.0000
  C   C150      1.0  0.54300  0.83830  0.61250  1.0000
  C   C151      1.0  0.45700  0.83830  0.88750  1.0000
  C   C152      1.0  0.04300  0.66170  0.38750  1.0000
  H   H73       1.0  0.08900  0.32290  0.87700  1.0000
  H   H74       1.0  0.41100  0.17710  0.37700  1.0000
  H   H75       1.0  0.58900  0.17710  0.12300  1.0000
  H   H76       1.0  0.91100  0.32290  0.62300  1.0000
  H   H77       1.0  0.91100  0.67710  0.12300  1.0000
  H   H78       1.0  0.58900  0.82290  0.62300  1.0000
  H   H79       1.0  0.41100  0.82290  0.87700  1.0000
  H   H80       1.0  0.08900  0.67710  0.37700  1.0000
  C   C153      1.0  0.97230  0.31960  0.90570  1.0000
  C   C154      1.0  0.52770  0.18040  0.40570  1.0000
  C   C155      1.0  0.47230  0.18040  0.09430  1.0000
  C   C156      1.0  0.02770  0.31960  0.59430  1.0000
  C   C157      1.0  0.02770  0.68040  0.09430  1.0000
  C   C158      1.0  0.47230  0.81960  0.59430  1.0000
  C   C159      1.0  0.52770  0.81960  0.90570  1.0000
  C   C160      1.0  0.97230  0.68040  0.40570  1.0000
  C   C161      1.0  0.03000  0.21080  0.95900  1.0000
  C   C162      1.0  0.47000  0.28920  0.45900  1.0000
  C   C163      1.0  0.53000  0.28920  0.04100  1.0000
  C   C164      1.0  0.97000  0.21080  0.54100  1.0000
  C   C165      1.0  0.97000  0.78920  0.04100  1.0000
  C   C166      1.0  0.53000  0.71080  0.54100  1.0000
  C   C167      1.0  0.47000  0.71080  0.95900  1.0000
  C   C168      1.0  0.03000  0.78920  0.45900  1.0000
  H   H81       1.0  0.07540  0.19710  0.98170  1.0000
  H   H82       1.0  0.42460  0.30290  0.48170  1.0000
  H   H83       1.0  0.57540  0.30290  0.01830  1.0000
  H   H84       1.0  0.92460  0.19710  0.51830  1.0000
  H   H85       1.0  0.92460  0.80290  0.01830  1.0000
  H   H86       1.0  0.57540  0.69710  0.51830  1.0000
  H   H87       1.0  0.42460  0.69710  0.98170  1.0000
  H   H88       1.0  0.07540  0.80290  0.48170  1.0000
  C   C169      1.0  0.03290  0.25320  0.94400  1.0000
  C   C170      1.0  0.46710  0.24680  0.44400  1.0000
  C   C171      1.0  0.53290  0.24680  0.05600  1.0000
  C   C172      1.0  0.96710  0.25320  0.55600  1.0000
  C   C173      1.0  0.96710  0.74680  0.05600  1.0000
  C   C174      1.0  0.53290  0.75320  0.55600  1.0000
  C   C175      1.0  0.46710  0.75320  0.94400  1.0000
  C   C176      1.0  0.03290  0.74680  0.44400  1.0000
  H   H89       1.0  0.08120  0.26670  0.95420  1.0000
  H   H90       1.0  0.41880  0.23330  0.45420  1.0000
  H   H91       1.0  0.58120  0.23330  0.04580  1.0000
  H   H92       1.0  0.91880  0.26670  0.54580  1.0000
  H   H93       1.0  0.91880  0.73330  0.04580  1.0000
  H   H94       1.0  0.58120  0.76670  0.54580  1.0000
  H   H95       1.0  0.41880  0.76670  0.95420  1.0000
  H   H96       1.0  0.08120  0.73330  0.45420  1.0000
  C   C177      1.0  0.96910  0.27470  0.91580  1.0000
  C   C178      1.0  0.53090  0.22530  0.41580  1.0000
  C   C179      1.0  0.46910  0.22530  0.08420  1.0000
  C   C180      1.0  0.03090  0.27470  0.58420  1.0000
  C   C181      1.0  0.03090  0.72530  0.08420  1.0000
  C   C182      1.0  0.46910  0.77470  0.58420  1.0000
  C   C183      1.0  0.53090  0.77470  0.91580  1.0000
  C   C184      1.0  0.96910  0.72530  0.41580  1.0000
  C   C185      1.0  0.90220  0.25300  0.88760  1.0000
  C   C186      1.0  0.59780  0.24700  0.38760  1.0000
  C   C187      1.0  0.40220  0.24700  0.11240  1.0000
  C   C188      1.0  0.09780  0.25300  0.61240  1.0000
  C   C189      1.0  0.09780  0.74700  0.11240  1.0000
  C   C190      1.0  0.40220  0.75300  0.61240  1.0000
  C   C191      1.0  0.59780  0.75300  0.88760  1.0000
  C   C192      1.0  0.90220  0.74700  0.38760  1.0000
  H   H97       1.0  0.85830  0.26670  0.86030  1.0000
  H   H98       1.0  0.64170  0.23330  0.36030  1.0000
  H   H99       1.0  0.35830  0.23330  0.13970  1.0000
  H   H100      1.0  0.14170  0.26670  0.63970  1.0000
  H   H101      1.0  0.14170  0.73330  0.13970  1.0000
  H   H102      1.0  0.35830  0.76670  0.63970  1.0000
  H   H103      1.0  0.64170  0.76670  0.86030  1.0000
  H   H104      1.0  0.85830  0.73330  0.36030  1.0000
  C   C193      1.0  0.89880  0.20990  0.89930  1.0000
  C   C194      1.0  0.60120  0.29010  0.39930  1.0000
  C   C195      1.0  0.39880  0.29010  0.10070  1.0000
  C   C196      1.0  0.10120  0.20990  0.60070  1.0000
  C   C197      1.0  0.10120  0.79010  0.10070  1.0000
  C   C198      1.0  0.39880  0.70990  0.60070  1.0000
  C   C199      1.0  0.60120  0.70990  0.89930  1.0000
  C   C200      1.0  0.89880  0.79010  0.39930  1.0000
  H   H105      1.0  0.85350  0.19560  0.87890  1.0000
  H   H106      1.0  0.64650  0.30440  0.37890  1.0000
  H   H107      1.0  0.35350  0.30440  0.12110  1.0000
  H   H108      1.0  0.14650  0.19560  0.62110  1.0000
  H   H109      1.0  0.14650  0.80440  0.12110  1.0000
  H   H110      1.0  0.35350  0.69560  0.62110  1.0000
  H   H111      1.0  0.64650  0.69560  0.87890  1.0000
  H   H112      1.0  0.85350  0.80440  0.37890  1.0000
  C   C201      1.0  0.96280  0.18990  0.94100  1.0000
  C   C202      1.0  0.53720  0.31010  0.44100  1.0000
  C   C203      1.0  0.46280  0.31010  0.05900  1.0000
  C   C204      1.0  0.03720  0.18990  0.55900  1.0000
  C   C205      1.0  0.03720  0.81010  0.05900  1.0000
  C   C206      1.0  0.46280  0.68990  0.55900  1.0000
  C   C207      1.0  0.53720  0.68990  0.94100  1.0000
  C   C208      1.0  0.96280  0.81010  0.44100  1.0000
  Cd  Cd5       1.0  0.46164  0.56530  0.50135  1.0000
  Cd  Cd6       1.0  0.03836  0.93470  0.00135  1.0000
  Cd  Cd7       1.0  0.96164  0.93470  0.49865  1.0000
  Cd  Cd8       1.0  0.53836  0.56530  0.99865  1.0000
  Cd  Cd9       1.0  0.53836  0.43470  0.49865  1.0000
  Cd  Cd10      1.0  0.96164  0.06530  0.99865  1.0000
  Cd  Cd11      1.0  0.03836  0.06530  0.50135  1.0000
  Cd  Cd12      1.0  0.46164  0.43470  0.00135  1.0000
  O   O49       1.0  0.50440  0.55087  0.66650  1.0000
  O   O50       1.0  0.99560  0.94913  0.16650  1.0000
  O   O51       1.0  0.00440  0.94913  0.33350  1.0000
  O   O52       1.0  0.49560  0.55087  0.83350  1.0000
  O   O53       1.0  0.49560  0.44913  0.33350  1.0000
  O   O54       1.0  0.00440  0.05087  0.83350  1.0000
  O   O55       1.0  0.99560  0.05087  0.66650  1.0000
  O   O56       1.0  0.50440  0.44913  0.16650  1.0000
  C   C209      1.0  0.50000  0.56930  0.75000  1.0000
  C   C210      1.0  0.00000  0.93070  0.25000  1.0000
  C   C211      1.0  0.50000  0.43070  0.25000  1.0000
  C   C212      1.0  0.00000  0.06930  0.75000  1.0000
  H   H113      1.0  0.50000  0.59760  0.75000  1.0000
  H   H114      1.0  0.00000  0.90240  0.25000  1.0000
  H   H115      1.0  0.50000  0.40240  0.25000  1.0000
  H   H116      1.0  0.00000  0.09760  0.75000  1.0000
