data_image0
_chemical_formula_structural       Mn3S8C4H2C8H2C2H4C4H2C8H2C2H4C4H2C8H2C2H4C4H2C8H2C2H4O4H4O4H4O2H4O4H2O2H4O2H4O4H4O6H2O8H2O8H2
_chemical_formula_sum              "Mn3 S8 C56 H64 O44"
_cell_length_a       11.458
_cell_length_b       12.694
_cell_length_c       14.918
_cell_angle_alpha    79.087
_cell_angle_beta     70.957
_cell_angle_gamma    89.248

_space_group_name_H-M_alt    "P 1"
_space_group_IT_number       1

loop_
  _space_group_symop_operation_xyz
  'x, y, z'

loop_
  _atom_site_type_symbol
  _atom_site_label
  _atom_site_symmetry_multiplicity
  _atom_site_fract_x
  _atom_site_fract_y
  _atom_site_fract_z
  _atom_site_occupancy
  Mn  Mn1       1.0  1.00000  0.00000  0.00000  1.0000
  Mn  Mn2       1.0  0.38256  0.79083  0.19298  1.0000
  Mn  Mn3       1.0  0.61744  0.20917  0.80702  1.0000
  S   S1        1.0  0.09236  0.85386  0.18933  1.0000
  S   S2        1.0  0.90764  0.14614  0.81067  1.0000
  S   S3        1.0  0.17163  0.45566  0.10031  1.0000
  S   S4        1.0  0.82837  0.54434  0.89969  1.0000
  S   S5        1.0  0.64312  0.70271  0.23559  1.0000
  S   S6        1.0  0.35688  0.29729  0.76441  1.0000
  S   S7        1.0  0.51152  0.15266  0.16691  1.0000
  S   S8        1.0  0.48848  0.84734  0.83309  1.0000
  C   C1        1.0  0.01930  0.93440  0.27380  1.0000
  C   C2        1.0  0.98070  0.06560  0.72620  1.0000
  C   C3        1.0  0.89190  0.92300  0.31740  1.0000
  C   C4        1.0  0.10810  0.07700  0.68260  1.0000
  H   H1        1.0  0.84620  0.87530  0.30000  1.0000
  H   H2        1.0  0.15380  0.12470  0.70000  1.0000
  C   C5        1.0  0.83240  0.98200  0.38640  1.0000
  C   C6        1.0  0.16760  0.01800  0.61360  1.0000
  C   C7        1.0  0.90420  0.05220  0.41250  1.0000
  C   C8        1.0  0.09580  0.94780  0.58750  1.0000
  C   C9        1.0  0.03160  0.06460  0.36880  1.0000
  C   C10       1.0  0.96840  0.93540  0.63120  1.0000
  C   C11       1.0  0.08840  0.00500  0.29850  1.0000
  C   C12       1.0  0.91160  0.99500  0.70150  1.0000
  H   H3        1.0  0.17350  0.01290  0.26800  1.0000
  H   H4        1.0  0.82650  0.98710  0.73200  1.0000
  C   C13       1.0  0.10610  0.14290  0.39590  1.0000
  C   C14       1.0  0.89390  0.85710  0.60410  1.0000
  H   H5        1.0  0.19340  0.13120  0.36870  1.0000
  H   H6        1.0  0.80660  0.86880  0.63130  1.0000
  H   H7        1.0  0.08460  0.13010  0.46570  1.0000
  H   H8        1.0  0.91540  0.86990  0.53430  1.0000
  C   C15       1.0  0.11310  0.40510  0.22540  1.0000
  C   C16       1.0  0.88690  0.59490  0.77460  1.0000
  C   C17       1.0  0.13370  0.30070  0.26220  1.0000
  C   C18       1.0  0.86630  0.69930  0.73780  1.0000
  H   H9        1.0  0.18270  0.25890  0.22100  1.0000
  H   H10       1.0  0.81730  0.74110  0.77900  1.0000
  C   C19       1.0  0.08240  0.25850  0.35910  1.0000
  C   C20       1.0  0.91760  0.74150  0.64090  1.0000
  C   C21       1.0  0.00840  0.32290  0.42000  1.0000
  C   C22       1.0  0.99160  0.67710  0.58000  1.0000
  C   C23       1.0  0.98600  0.42780  0.38280  1.0000
  C   C24       1.0  0.01400  0.57220  0.61720  1.0000
  C   C25       1.0  0.04040  0.46740  0.28600  1.0000
  C   C26       1.0  0.95960  0.53260  0.71400  1.0000
  H   H11       1.0  0.02800  0.53780  0.26060  1.0000
  H   H12       1.0  0.97200  0.46220  0.73940  1.0000
  C   C27       1.0  0.89750  0.49770  0.44370  1.0000
  C   C28       1.0  0.10250  0.50230  0.55630  1.0000
  H   H13       1.0  0.87770  0.46630  0.51180  1.0000
  H   H14       1.0  0.12230  0.53370  0.48820  1.0000
  H   H15       1.0  0.93630  0.56870  0.43210  1.0000
  H   H16       1.0  0.06370  0.43130  0.56790  1.0000
  C   C29       1.0  0.66030  0.59570  0.32360  1.0000
  C   C30       1.0  0.33970  0.40430  0.67640  1.0000
  C   C31       1.0  0.76300  0.59370  0.35280  1.0000
  C   C32       1.0  0.23700  0.40630  0.64720  1.0000
  H   H17       1.0  0.82100  0.65150  0.32880  1.0000
  H   H18       1.0  0.17900  0.34850  0.67120  1.0000
  C   C33       1.0  0.78030  0.50640  0.41750  1.0000
  C   C34       1.0  0.21970  0.49360  0.58250  1.0000
  C   C35       1.0  0.69160  0.42060  0.45390  1.0000
  C   C36       1.0  0.30840  0.57940  0.54610  1.0000
  C   C37       1.0  0.58740  0.42160  0.42410  1.0000
  C   C38       1.0  0.41260  0.57840  0.57590  1.0000
  C   C39       1.0  0.57430  0.51040  0.35910  1.0000
  C   C40       1.0  0.42570  0.48960  0.64090  1.0000
  H   H19       1.0  0.50550  0.51260  0.33880  1.0000
  H   H20       1.0  0.49450  0.48740  0.66120  1.0000
  C   C41       1.0  0.49380  0.32740  0.46060  1.0000
  C   C42       1.0  0.50620  0.67260  0.53940  1.0000
  H   H21       1.0  0.41590  0.35180  0.45380  1.0000
  H   H22       1.0  0.58410  0.64820  0.54620  1.0000
  H   H23       1.0  0.48000  0.30160  0.52890  1.0000
  H   H24       1.0  0.52000  0.69840  0.47110  1.0000
  C   C43       1.0  0.54380  0.15090  0.27410  1.0000
  C   C44       1.0  0.45620  0.84910  0.72590  1.0000
  C   C45       1.0  0.50820  0.23460  0.32350  1.0000
  C   C46       1.0  0.49180  0.76540  0.67650  1.0000
  H   H25       1.0  0.46720  0.29090  0.29940  1.0000
  H   H26       1.0  0.53280  0.70910  0.70060  1.0000
  C   C47       1.0  0.53280  0.23520  0.40780  1.0000
  C   C48       1.0  0.46720  0.76480  0.59220  1.0000
  C   C49       1.0  0.59660  0.15090  0.44360  1.0000
  C   C50       1.0  0.40340  0.84910  0.55640  1.0000
  C   C51       1.0  0.62750  0.06400  0.39570  1.0000
  C   C52       1.0  0.37250  0.93600  0.60430  1.0000
  C   C53       1.0  0.60070  0.06560  0.31140  1.0000
  C   C54       1.0  0.39930  0.93440  0.68860  1.0000
  H   H27       1.0  0.62130  0.00820  0.27950  1.0000
  H   H28       1.0  0.37870  0.99180  0.72050  1.0000
  C   C55       1.0  0.69390  0.97030  0.43360  1.0000
  C   C56       1.0  0.30610  0.02970  0.56640  1.0000
  H   H29       1.0  0.67400  0.96410  0.50280  1.0000
  H   H30       1.0  0.32600  0.03590  0.49720  1.0000
  H   H31       1.0  0.66370  0.90440  0.42260  1.0000
  H   H32       1.0  0.33630  0.09560  0.57740  1.0000
  O   O1        1.0  0.05040  0.88360  0.10590  1.0000
  O   O2        1.0  0.94960  0.11640  0.89410  1.0000
  O   O3        1.0  0.81350  0.97770  0.09810  1.0000
  O   O4        1.0  0.18650  0.02230  0.90190  1.0000
  H   H33       1.0  0.76300  0.01300  0.09600  1.0000
  H   H34       1.0  0.23700  0.98700  0.90400  1.0000
  H   H35       1.0  0.79600  0.91800  0.13300  1.0000
  H   H36       1.0  0.20400  0.08200  0.86700  1.0000
  O   O5        1.0  0.22430  0.87620  0.16410  1.0000
  O   O6        1.0  0.77570  0.12380  0.83590  1.0000
  O   O7        1.0  0.04030  0.13180  0.06090  1.0000
  O   O8        1.0  0.95970  0.86820  0.93910  1.0000
  H   H37       1.0  0.11000  0.14200  0.06300  1.0000
  H   H38       1.0  0.89000  0.85800  0.93700  1.0000
  H   H39       1.0  0.97200  0.15300  0.11500  1.0000
  H   H40       1.0  0.02800  0.84700  0.88500  1.0000
  O   O9        1.0  0.39160  0.68870  0.08900  1.0000
  O   O10       1.0  0.60840  0.31130  0.91100  1.0000
  H   H41       1.0  0.41600  0.71400  0.03700  1.0000
  H   H42       1.0  0.58400  0.28600  0.96300  1.0000
  H   H43       1.0  0.32900  0.66200  0.09600  1.0000
  H   H44       1.0  0.67100  0.33800  0.90400  1.0000
  O   O11       1.0  0.05430  0.74350  0.23560  1.0000
  O   O12       1.0  0.94570  0.25650  0.76440  1.0000
  O   O13       1.0  0.85440  0.10840  0.48300  1.0000
  O   O14       1.0  0.14560  0.89160  0.51700  1.0000
  H   H45       1.0  0.78170  0.11790  0.48830  1.0000
  H   H46       1.0  0.21830  0.88210  0.51170  1.0000
  O   O15       1.0  0.24930  0.67150  0.30510  1.0000
  O   O16       1.0  0.75070  0.32850  0.69490  1.0000
  H   H47       1.0  0.18800  0.68000  0.30500  1.0000
  H   H48       1.0  0.81200  0.32000  0.69500  1.0000
  H   H49       1.0  0.24700  0.67300  0.35200  1.0000
  H   H50       1.0  0.75300  0.32700  0.64800  1.0000
  O   O17       1.0  0.37320  0.89520  0.29210  1.0000
  O   O18       1.0  0.62680  0.10480  0.70790  1.0000
  H   H51       1.0  0.37900  0.95000  0.27400  1.0000
  H   H52       1.0  0.62100  0.05000  0.72600  1.0000
  H   H53       1.0  0.39100  0.88000  0.33600  1.0000
  H   H54       1.0  0.60900  0.12000  0.66400  1.0000
  O   O19       1.0  0.07390  0.43650  0.06350  1.0000
  O   O20       1.0  0.92610  0.56350  0.93650  1.0000
  O   O21       1.0  0.51820  0.89520  0.07910  1.0000
  O   O22       1.0  0.48180  0.10480  0.92090  1.0000
  H   H55       1.0  0.52800  0.95000  0.08000  1.0000
  H   H56       1.0  0.47200  0.05000  0.92000  1.0000
  H   H57       1.0  0.56600  0.87100  0.04500  1.0000
  H   H58       1.0  0.43400  0.12900  0.95500  1.0000
  O   O23       1.0  0.28090  0.40000  0.06280  1.0000
  O   O24       1.0  0.71910  0.60000  0.93720  1.0000
  O   O25       1.0  0.19490  0.56990  0.08790  1.0000
  O   O26       1.0  0.80510  0.43010  0.91210  1.0000
  O   O27       1.0  0.95920  0.28460  0.51700  1.0000
  O   O28       1.0  0.04080  0.71540  0.48300  1.0000
  H   H59       1.0  0.91980  0.22780  0.52670  1.0000
  H   H60       1.0  0.08020  0.77220  0.47330  1.0000
  O   O29       1.0  0.71070  0.67360  0.14330  1.0000
  O   O30       1.0  0.28930  0.32640  0.85670  1.0000
  O   O31       1.0  0.69250  0.79670  0.24640  1.0000
  O   O32       1.0  0.30750  0.20330  0.75360  1.0000
  O   O33       1.0  0.51540  0.69940  0.24470  1.0000
  O   O34       1.0  0.48460  0.30060  0.75530  1.0000
  O   O35       1.0  0.70780  0.33820  0.51950  1.0000
  O   O36       1.0  0.29220  0.66180  0.48050  1.0000
  H   H61       1.0  0.78170  0.33390  0.51200  1.0000
  H   H62       1.0  0.21830  0.66610  0.48800  1.0000
  O   O37       1.0  0.59990  0.08630  0.11200  1.0000
  O   O38       1.0  0.40010  0.91370  0.88800  1.0000
  O   O39       1.0  0.38630  0.10660  0.19470  1.0000
  O   O40       1.0  0.61370  0.89340  0.80530  1.0000
  O   O41       1.0  0.52050  0.26260  0.11680  1.0000
  O   O42       1.0  0.47950  0.73740  0.88320  1.0000
  O   O43       1.0  0.62870  0.15330  0.52100  1.0000
  O   O44       1.0  0.37130  0.84670  0.47900  1.0000
  H   H63       1.0  0.65430  0.21420  0.51830  1.0000
  H   H64       1.0  0.34570  0.78580  0.48170  1.0000
