data_image0
_chemical_formula_structural       Cd12O72C24H12C12H12C24H12C12H12C24H12C12H12C24H12C12H12C48H12C12H12C24H12C12H12C12
_chemical_formula_sum              "Cd12 O72 C252 H144"
_cell_length_a       26.712
_cell_length_b       26.712
_cell_length_c       15.919
_cell_angle_alpha    90
_cell_angle_beta     90
_cell_angle_gamma    120

_space_group_name_H-M_alt    "P 1"
_space_group_IT_number       1

loop_
  _space_group_symop_operation_xyz
  'x, y, z'

loop_
  _atom_site_type_symbol
  _atom_site_label
  _atom_site_symmetry_multiplicity
  _atom_site_fract_x
  _atom_site_fract_y
  _atom_site_fract_z
  _atom_site_occupancy
  Cd  Cd1       1.0  1.00000  0.41898  0.33330  1.0000
  Cd  Cd2       1.0  0.58102  0.00000  0.49997  1.0000
  Cd  Cd3       1.0  0.58102  0.58102  0.66663  1.0000
  Cd  Cd4       1.0  0.00000  0.58102  0.83330  1.0000
  Cd  Cd5       1.0  0.41898  0.00000  0.99997  1.0000
  Cd  Cd6       1.0  0.41898  0.41898  0.16663  1.0000
  Cd  Cd7       1.0  0.42026  0.42026  0.66670  1.0000
  Cd  Cd8       1.0  0.00000  0.42026  0.83337  1.0000
  Cd  Cd9       1.0  0.57974  0.00000  0.00003  1.0000
  Cd  Cd10      1.0  0.57974  0.57974  0.16670  1.0000
  Cd  Cd11      1.0  0.00000  0.57974  0.33337  1.0000
  Cd  Cd12      1.0  0.42026  0.00000  0.50003  1.0000
  O   O1        1.0  0.02940  0.41586  0.19921  1.0000
  O   O2        1.0  0.61354  0.02940  0.36588  1.0000
  O   O3        1.0  0.58414  0.61354  0.53254  1.0000
  O   O4        1.0  0.97060  0.58414  0.69921  1.0000
  O   O5        1.0  0.38646  0.97060  0.86588  1.0000
  O   O6        1.0  0.41586  0.38646  0.03254  1.0000
  O   O7        1.0  0.58414  0.97060  0.63412  1.0000
  O   O8        1.0  0.61354  0.58414  0.80079  1.0000
  O   O9        1.0  0.02940  0.61354  0.96746  1.0000
  O   O10       1.0  0.41586  0.02940  0.13412  1.0000
  O   O11       1.0  0.38646  0.41586  0.30079  1.0000
  O   O12       1.0  0.97060  0.38646  0.46746  1.0000
  O   O13       1.0  0.06965  0.38779  0.29364  1.0000
  O   O14       1.0  0.68186  0.06965  0.46031  1.0000
  O   O15       1.0  0.61221  0.68186  0.62697  1.0000
  O   O16       1.0  0.93035  0.61221  0.79364  1.0000
  O   O17       1.0  0.31814  0.93035  0.96031  1.0000
  O   O18       1.0  0.38779  0.31814  0.12697  1.0000
  O   O19       1.0  0.61221  0.93035  0.53969  1.0000
  O   O20       1.0  0.68186  0.61221  0.70636  1.0000
  O   O21       1.0  0.06965  0.68186  0.87303  1.0000
  O   O22       1.0  0.38779  0.06965  0.03969  1.0000
  O   O23       1.0  0.31814  0.38779  0.20636  1.0000
  O   O24       1.0  0.93035  0.31814  0.37303  1.0000
  O   O25       1.0  0.32341  0.39565  0.70392  1.0000
  O   O26       1.0  0.92776  0.32341  0.87059  1.0000
  O   O27       1.0  0.60435  0.92776  0.03725  1.0000
  O   O28       1.0  0.67659  0.60435  0.20392  1.0000
  O   O29       1.0  0.07224  0.67659  0.37059  1.0000
  O   O30       1.0  0.39565  0.07224  0.53725  1.0000
  O   O31       1.0  0.60435  0.67659  0.12941  1.0000
  O   O32       1.0  0.92776  0.60435  0.29608  1.0000
  O   O33       1.0  0.32341  0.92776  0.46275  1.0000
  O   O34       1.0  0.39565  0.32341  0.62941  1.0000
  O   O35       1.0  0.07224  0.39565  0.79608  1.0000
  O   O36       1.0  0.67659  0.07224  0.96275  1.0000
  O   O37       1.0  0.38992  0.41915  0.80100  1.0000
  O   O38       1.0  0.97077  0.38992  0.96767  1.0000
  O   O39       1.0  0.58085  0.97077  0.13433  1.0000
  O   O40       1.0  0.61008  0.58085  0.30100  1.0000
  O   O41       1.0  0.02923  0.61008  0.46767  1.0000
  O   O42       1.0  0.41915  0.02923  0.63433  1.0000
  O   O43       1.0  0.58085  0.61008  0.03233  1.0000
  O   O44       1.0  0.97077  0.58085  0.19900  1.0000
  O   O45       1.0  0.38992  0.97077  0.36567  1.0000
  O   O46       1.0  0.41915  0.38992  0.53233  1.0000
  O   O47       1.0  0.02923  0.41915  0.69900  1.0000
  O   O48       1.0  0.61008  0.02923  0.86567  1.0000
  O   O49       1.0  0.94096  0.48565  0.37540  1.0000
  O   O50       1.0  0.45531  0.94096  0.54207  1.0000
  O   O51       1.0  0.51435  0.45531  0.70873  1.0000
  O   O52       1.0  0.05904  0.51435  0.87540  1.0000
  O   O53       1.0  0.54469  0.05904  0.04207  1.0000
  O   O54       1.0  0.48565  0.54469  0.20873  1.0000
  O   O55       1.0  0.51435  0.05904  0.45793  1.0000
  O   O56       1.0  0.45531  0.51435  0.62460  1.0000
  O   O57       1.0  0.94096  0.45531  0.79127  1.0000
  O   O58       1.0  0.48565  0.94096  0.95793  1.0000
  O   O59       1.0  0.54469  0.48565  0.12460  1.0000
  O   O60       1.0  0.05904  0.54469  0.29127  1.0000
  O   O61       1.0  0.92139  0.41868  0.28121  1.0000
  O   O62       1.0  0.50271  0.92139  0.44788  1.0000
  O   O63       1.0  0.58132  0.50271  0.61454  1.0000
  O   O64       1.0  0.07861  0.58132  0.78121  1.0000
  O   O65       1.0  0.49729  0.07861  0.94788  1.0000
  O   O66       1.0  0.41868  0.49729  0.11454  1.0000
  O   O67       1.0  0.58132  0.07861  0.55212  1.0000
  O   O68       1.0  0.50271  0.58132  0.71879  1.0000
  O   O69       1.0  0.92139  0.50271  0.88546  1.0000
  O   O70       1.0  0.41868  0.92139  0.05212  1.0000
  O   O71       1.0  0.49729  0.41868  0.21879  1.0000
  O   O72       1.0  0.07861  0.49729  0.38546  1.0000
  C   C1        1.0  0.10313  0.39740  0.15180  1.0000
  C   C2        1.0  0.70573  0.10313  0.31847  1.0000
  C   C3        1.0  0.60260  0.70573  0.48513  1.0000
  C   C4        1.0  0.89687  0.60260  0.65180  1.0000
  C   C5        1.0  0.29427  0.89687  0.81847  1.0000
  C   C6        1.0  0.39740  0.29427  0.98513  1.0000
  C   C7        1.0  0.60260  0.89687  0.68153  1.0000
  C   C8        1.0  0.70573  0.60260  0.84820  1.0000
  C   C9        1.0  0.10313  0.70573  0.01487  1.0000
  C   C10       1.0  0.39740  0.10313  0.18153  1.0000
  C   C11       1.0  0.29427  0.39740  0.34820  1.0000
  C   C12       1.0  0.89687  0.29427  0.51487  1.0000
  C   C13       1.0  0.14520  0.38510  0.17520  1.0000
  C   C14       1.0  0.76010  0.14520  0.34187  1.0000
  C   C15       1.0  0.61490  0.76010  0.50853  1.0000
  C   C16       1.0  0.85480  0.61490  0.67520  1.0000
  C   C17       1.0  0.23990  0.85480  0.84187  1.0000
  C   C18       1.0  0.38510  0.23990  0.00853  1.0000
  C   C19       1.0  0.61490  0.85480  0.65813  1.0000
  C   C20       1.0  0.76010  0.61490  0.82480  1.0000
  C   C21       1.0  0.14520  0.76010  0.99147  1.0000
  C   C22       1.0  0.38510  0.14520  0.15813  1.0000
  C   C23       1.0  0.23990  0.38510  0.32480  1.0000
  C   C24       1.0  0.85480  0.23990  0.49147  1.0000
  H   H1        1.0  0.14770  0.37540  0.23190  1.0000
  H   H2        1.0  0.77230  0.14770  0.39857  1.0000
  H   H3        1.0  0.62460  0.77230  0.56523  1.0000
  H   H4        1.0  0.85230  0.62460  0.73190  1.0000
  H   H5        1.0  0.22770  0.85230  0.89857  1.0000
  H   H6        1.0  0.37540  0.22770  0.06523  1.0000
  H   H7        1.0  0.62460  0.85230  0.60143  1.0000
  H   H8        1.0  0.77230  0.62460  0.76810  1.0000
  H   H9        1.0  0.14770  0.77230  0.93477  1.0000
  H   H10       1.0  0.37540  0.14770  0.10143  1.0000
  H   H11       1.0  0.22770  0.37540  0.26810  1.0000
  H   H12       1.0  0.85230  0.22770  0.43477  1.0000
  C   C25       1.0  0.18500  0.38690  0.11430  1.0000
  C   C26       1.0  0.79810  0.18500  0.28097  1.0000
  C   C27       1.0  0.61310  0.79810  0.44763  1.0000
  C   C28       1.0  0.81500  0.61310  0.61430  1.0000
  C   C29       1.0  0.20190  0.81500  0.78097  1.0000
  C   C30       1.0  0.38690  0.20190  0.94763  1.0000
  C   C31       1.0  0.61310  0.81500  0.71903  1.0000
  C   C32       1.0  0.79810  0.61310  0.88570  1.0000
  C   C33       1.0  0.18500  0.79810  0.05237  1.0000
  C   C34       1.0  0.38690  0.18500  0.21903  1.0000
  C   C35       1.0  0.20190  0.38690  0.38570  1.0000
  C   C36       1.0  0.81500  0.20190  0.55237  1.0000
  H   H13       1.0  0.21620  0.38170  0.13150  1.0000
  H   H14       1.0  0.83450  0.21620  0.29817  1.0000
  H   H15       1.0  0.61830  0.83450  0.46483  1.0000
  H   H16       1.0  0.78380  0.61830  0.63150  1.0000
  H   H17       1.0  0.16550  0.78380  0.79817  1.0000
  H   H18       1.0  0.38170  0.16550  0.96483  1.0000
  H   H19       1.0  0.61830  0.78380  0.70183  1.0000
  H   H20       1.0  0.83450  0.61830  0.86850  1.0000
  H   H21       1.0  0.21620  0.83450  0.03517  1.0000
  H   H22       1.0  0.38170  0.21620  0.20183  1.0000
  H   H23       1.0  0.16550  0.38170  0.36850  1.0000
  H   H24       1.0  0.78380  0.16550  0.53517  1.0000
  C   C37       1.0  0.17892  0.39600  0.03040  1.0000
  C   C38       1.0  0.78292  0.17892  0.19707  1.0000
  C   C39       1.0  0.60400  0.78292  0.36373  1.0000
  C   C40       1.0  0.82108  0.60400  0.53040  1.0000
  C   C41       1.0  0.21708  0.82108  0.69707  1.0000
  C   C42       1.0  0.39600  0.21708  0.86373  1.0000
  C   C43       1.0  0.60400  0.82108  0.80293  1.0000
  C   C44       1.0  0.78292  0.60400  0.96960  1.0000
  C   C45       1.0  0.17892  0.78292  0.13627  1.0000
  C   C46       1.0  0.39600  0.17892  0.30293  1.0000
  C   C47       1.0  0.21708  0.39600  0.46960  1.0000
  C   C48       1.0  0.82108  0.21708  0.63627  1.0000
  C   C49       1.0  0.13100  0.40130  0.00950  1.0000
  C   C50       1.0  0.72970  0.13100  0.17617  1.0000
  C   C51       1.0  0.59870  0.72970  0.34283  1.0000
  C   C52       1.0  0.86900  0.59870  0.50950  1.0000
  C   C53       1.0  0.27030  0.86900  0.67617  1.0000
  C   C54       1.0  0.40130  0.27030  0.84283  1.0000
  C   C55       1.0  0.59870  0.86900  0.82383  1.0000
  C   C56       1.0  0.72970  0.59870  0.99050  1.0000
  C   C57       1.0  0.13100  0.72970  0.15717  1.0000
  C   C58       1.0  0.40130  0.13100  0.32383  1.0000
  C   C59       1.0  0.27030  0.40130  0.49050  1.0000
  C   C60       1.0  0.86900  0.27030  0.65717  1.0000
  H   H25       1.0  0.12390  0.40500  0.95200  1.0000
  H   H26       1.0  0.71890  0.12390  0.11867  1.0000
  H   H27       1.0  0.59500  0.71890  0.28533  1.0000
  H   H28       1.0  0.87610  0.59500  0.45200  1.0000
  H   H29       1.0  0.28110  0.87610  0.61867  1.0000
  H   H30       1.0  0.40500  0.28110  0.78533  1.0000
  H   H31       1.0  0.59500  0.87610  0.88133  1.0000
  H   H32       1.0  0.71890  0.59500  0.04800  1.0000
  H   H33       1.0  0.12390  0.71890  0.21467  1.0000
  H   H34       1.0  0.40500  0.12390  0.38133  1.0000
  H   H35       1.0  0.28110  0.40500  0.54800  1.0000
  H   H36       1.0  0.87610  0.28110  0.71467  1.0000
  C   C61       1.0  0.09358  0.40137  0.06900  1.0000
  C   C62       1.0  0.69221  0.09358  0.23567  1.0000
  C   C63       1.0  0.59863  0.69221  0.40233  1.0000
  C   C64       1.0  0.90642  0.59863  0.56900  1.0000
  C   C65       1.0  0.30779  0.90642  0.73567  1.0000
  C   C66       1.0  0.40137  0.30779  0.90233  1.0000
  C   C67       1.0  0.59863  0.90642  0.76433  1.0000
  C   C68       1.0  0.69221  0.59863  0.93100  1.0000
  C   C69       1.0  0.09358  0.69221  0.09767  1.0000
  C   C70       1.0  0.40137  0.09358  0.26433  1.0000
  C   C71       1.0  0.30779  0.40137  0.43100  1.0000
  C   C72       1.0  0.90642  0.30779  0.59767  1.0000
  H   H37       1.0  0.06100  0.40420  0.05200  1.0000
  H   H38       1.0  0.65680  0.06100  0.21867  1.0000
  H   H39       1.0  0.59580  0.65680  0.38533  1.0000
  H   H40       1.0  0.93900  0.59580  0.55200  1.0000
  H   H41       1.0  0.34320  0.93900  0.71867  1.0000
  H   H42       1.0  0.40420  0.34320  0.88533  1.0000
  H   H43       1.0  0.59580  0.93900  0.78133  1.0000
  H   H44       1.0  0.65680  0.59580  0.94800  1.0000
  H   H45       1.0  0.06100  0.65680  0.11467  1.0000
  H   H46       1.0  0.40420  0.06100  0.28133  1.0000
  H   H47       1.0  0.34320  0.40420  0.44800  1.0000
  H   H48       1.0  0.93900  0.34320  0.61467  1.0000
  C   C73       1.0  0.29859  0.40254  0.84460  1.0000
  C   C74       1.0  0.89605  0.29859  0.01127  1.0000
  C   C75       1.0  0.59746  0.89605  0.17793  1.0000
  C   C76       1.0  0.70141  0.59746  0.34460  1.0000
  C   C77       1.0  0.10395  0.70141  0.51127  1.0000
  C   C78       1.0  0.40254  0.10395  0.67793  1.0000
  C   C79       1.0  0.59746  0.70141  0.98873  1.0000
  C   C80       1.0  0.89605  0.59746  0.15540  1.0000
  C   C81       1.0  0.29859  0.89605  0.32207  1.0000
  C   C82       1.0  0.40254  0.29859  0.48873  1.0000
  C   C83       1.0  0.10395  0.40254  0.65540  1.0000
  C   C84       1.0  0.70141  0.10395  0.82207  1.0000
  C   C85       1.0  0.24208  0.38460  0.82500  1.0000
  C   C86       1.0  0.85748  0.24208  0.99167  1.0000
  C   C87       1.0  0.61540  0.85748  0.15833  1.0000
  C   C88       1.0  0.75792  0.61540  0.32500  1.0000
  C   C89       1.0  0.14252  0.75792  0.49167  1.0000
  C   C90       1.0  0.38460  0.14252  0.65833  1.0000
  C   C91       1.0  0.61540  0.75792  0.00833  1.0000
  C   C92       1.0  0.85748  0.61540  0.17500  1.0000
  C   C93       1.0  0.24208  0.85748  0.34167  1.0000
  C   C94       1.0  0.38460  0.24208  0.50833  1.0000
  C   C95       1.0  0.14252  0.38460  0.67500  1.0000
  C   C96       1.0  0.75792  0.14252  0.84167  1.0000
  H   H49       1.0  0.22930  0.37350  0.76890  1.0000
  H   H50       1.0  0.85580  0.22930  0.93557  1.0000
  H   H51       1.0  0.62650  0.85580  0.10223  1.0000
  H   H52       1.0  0.77070  0.62650  0.26890  1.0000
  H   H53       1.0  0.14420  0.77070  0.43557  1.0000
  H   H54       1.0  0.37350  0.14420  0.60223  1.0000
  H   H55       1.0  0.62650  0.77070  0.06443  1.0000
  H   H56       1.0  0.85580  0.62650  0.23110  1.0000
  H   H57       1.0  0.22930  0.85580  0.39777  1.0000
  H   H58       1.0  0.37350  0.22930  0.56443  1.0000
  H   H59       1.0  0.14420  0.37350  0.73110  1.0000
  H   H60       1.0  0.77070  0.14420  0.89777  1.0000
  C   C97       1.0  0.20280  0.38210  0.88460  1.0000
  C   C98       1.0  0.82070  0.20280  0.05127  1.0000
  C   C99       1.0  0.61790  0.82070  0.21793  1.0000
  C   C100      1.0  0.79720  0.61790  0.38460  1.0000
  C   C101      1.0  0.17930  0.79720  0.55127  1.0000
  C   C102      1.0  0.38210  0.17930  0.71793  1.0000
  C   C103      1.0  0.61790  0.79720  0.94873  1.0000
  C   C104      1.0  0.82070  0.61790  0.11540  1.0000
  C   C105      1.0  0.20280  0.82070  0.28207  1.0000
  C   C106      1.0  0.38210  0.20280  0.44873  1.0000
  C   C107      1.0  0.17930  0.38210  0.61540  1.0000
  C   C108      1.0  0.79720  0.17930  0.78207  1.0000
  H   H61       1.0  0.16390  0.36930  0.86900  1.0000
  H   H62       1.0  0.79460  0.16390  0.03567  1.0000
  H   H63       1.0  0.63070  0.79460  0.20233  1.0000
  H   H64       1.0  0.83610  0.63070  0.36900  1.0000
  H   H65       1.0  0.20540  0.83610  0.53567  1.0000
  H   H66       1.0  0.36930  0.20540  0.70233  1.0000
  H   H67       1.0  0.63070  0.83610  0.96433  1.0000
  H   H68       1.0  0.79460  0.63070  0.13100  1.0000
  H   H69       1.0  0.16390  0.79460  0.29767  1.0000
  H   H70       1.0  0.36930  0.16390  0.46433  1.0000
  H   H71       1.0  0.20540  0.36930  0.63100  1.0000
  H   H72       1.0  0.83610  0.20540  0.79767  1.0000
  C   C109      1.0  0.22077  0.39840  0.96690  1.0000
  C   C110      1.0  0.82237  0.22077  0.13357  1.0000
  C   C111      1.0  0.60160  0.82237  0.30023  1.0000
  C   C112      1.0  0.77923  0.60160  0.46690  1.0000
  C   C113      1.0  0.17763  0.77923  0.63357  1.0000
  C   C114      1.0  0.39840  0.17763  0.80023  1.0000
  C   C115      1.0  0.60160  0.77923  0.86643  1.0000
  C   C116      1.0  0.82237  0.60160  0.03310  1.0000
  C   C117      1.0  0.22077  0.82237  0.19977  1.0000
  C   C118      1.0  0.39840  0.22077  0.36643  1.0000
  C   C119      1.0  0.17763  0.39840  0.53310  1.0000
  C   C120      1.0  0.77923  0.17763  0.69977  1.0000
  C   C121      1.0  0.27621  0.41430  0.98770  1.0000
  C   C122      1.0  0.86191  0.27621  0.15437  1.0000
  C   C123      1.0  0.58570  0.86191  0.32103  1.0000
  C   C124      1.0  0.72379  0.58570  0.48770  1.0000
  C   C125      1.0  0.13809  0.72379  0.65437  1.0000
  C   C126      1.0  0.41430  0.13809  0.82103  1.0000
  C   C127      1.0  0.58570  0.72379  0.84563  1.0000
  C   C128      1.0  0.86191  0.58570  0.01230  1.0000
  C   C129      1.0  0.27621  0.86191  0.17897  1.0000
  C   C130      1.0  0.41430  0.27621  0.34563  1.0000
  C   C131      1.0  0.13809  0.41430  0.51230  1.0000
  C   C132      1.0  0.72379  0.13809  0.67897  1.0000
  H   H73       1.0  0.28890  0.42570  0.04390  1.0000
  H   H74       1.0  0.86320  0.28890  0.21057  1.0000
  H   H75       1.0  0.57430  0.86320  0.37723  1.0000
  H   H76       1.0  0.71110  0.57430  0.54390  1.0000
  H   H77       1.0  0.13680  0.71110  0.71057  1.0000
  H   H78       1.0  0.42570  0.13680  0.87723  1.0000
  H   H79       1.0  0.57430  0.71110  0.78943  1.0000
  H   H80       1.0  0.86320  0.57430  0.95610  1.0000
  H   H81       1.0  0.28890  0.86320  0.12277  1.0000
  H   H82       1.0  0.42570  0.28890  0.28943  1.0000
  H   H83       1.0  0.13680  0.42570  0.45610  1.0000
  H   H84       1.0  0.71110  0.13680  0.62277  1.0000
  C   C133      1.0  0.31418  0.41440  0.92970  1.0000
  C   C134      1.0  0.89978  0.31418  0.09637  1.0000
  C   C135      1.0  0.58560  0.89978  0.26303  1.0000
  C   C136      1.0  0.68582  0.58560  0.42970  1.0000
  C   C137      1.0  0.10022  0.68582  0.59637  1.0000
  C   C138      1.0  0.41440  0.10022  0.76303  1.0000
  C   C139      1.0  0.58560  0.68582  0.90363  1.0000
  C   C140      1.0  0.89978  0.58560  0.07030  1.0000
  C   C141      1.0  0.31418  0.89978  0.23697  1.0000
  C   C142      1.0  0.41440  0.31418  0.40363  1.0000
  C   C143      1.0  0.10022  0.41440  0.57030  1.0000
  C   C144      1.0  0.68582  0.10022  0.73697  1.0000
  H   H85       1.0  0.35150  0.42270  0.94720  1.0000
  H   H86       1.0  0.92880  0.35150  0.11387  1.0000
  H   H87       1.0  0.57730  0.92880  0.28053  1.0000
  H   H88       1.0  0.64850  0.57730  0.44720  1.0000
  H   H89       1.0  0.07120  0.64850  0.61387  1.0000
  H   H90       1.0  0.42270  0.07120  0.78053  1.0000
  H   H91       1.0  0.57730  0.64850  0.88613  1.0000
  H   H92       1.0  0.92880  0.57730  0.05280  1.0000
  H   H93       1.0  0.35150  0.92880  0.21947  1.0000
  H   H94       1.0  0.42270  0.35150  0.38613  1.0000
  H   H95       1.0  0.07120  0.42270  0.55280  1.0000
  H   H96       1.0  0.64850  0.07120  0.71947  1.0000
  C   C145      1.0  0.06509  0.39999  0.21950  1.0000
  C   C146      1.0  0.66510  0.06509  0.38617  1.0000
  C   C147      1.0  0.60001  0.66510  0.55283  1.0000
  C   C148      1.0  0.93491  0.60001  0.71950  1.0000
  C   C149      1.0  0.33490  0.93491  0.88617  1.0000
  C   C150      1.0  0.39999  0.33490  0.05283  1.0000
  C   C151      1.0  0.60001  0.93491  0.61383  1.0000
  C   C152      1.0  0.66510  0.60001  0.78050  1.0000
  C   C153      1.0  0.06509  0.66510  0.94717  1.0000
  C   C154      1.0  0.39999  0.06509  0.11383  1.0000
  C   C155      1.0  0.33490  0.39999  0.28050  1.0000
  C   C156      1.0  0.93491  0.33490  0.44717  1.0000
  C   C157      1.0  0.34085  0.40635  0.77920  1.0000
  C   C158      1.0  0.93450  0.34085  0.94587  1.0000
  C   C159      1.0  0.59365  0.93450  0.11253  1.0000
  C   C160      1.0  0.65915  0.59365  0.27920  1.0000
  C   C161      1.0  0.06550  0.65915  0.44587  1.0000
  C   C162      1.0  0.40635  0.06550  0.61253  1.0000
  C   C163      1.0  0.59365  0.65915  0.05413  1.0000
  C   C164      1.0  0.93450  0.59365  0.22080  1.0000
  C   C165      1.0  0.34085  0.93450  0.38747  1.0000
  C   C166      1.0  0.40635  0.34085  0.55413  1.0000
  C   C167      1.0  0.06550  0.40635  0.72080  1.0000
  C   C168      1.0  0.65915  0.06550  0.88747  1.0000
  C   C169      1.0  0.85454  0.44977  0.29870  1.0000
  C   C170      1.0  0.40477  0.85454  0.46537  1.0000
  C   C171      1.0  0.55023  0.40477  0.63203  1.0000
  C   C172      1.0  0.14546  0.55023  0.79870  1.0000
  C   C173      1.0  0.59523  0.14546  0.96537  1.0000
  C   C174      1.0  0.44977  0.59523  0.13203  1.0000
  C   C175      1.0  0.55023  0.14546  0.53463  1.0000
  C   C176      1.0  0.40477  0.55023  0.70130  1.0000
  C   C177      1.0  0.85454  0.40477  0.86797  1.0000
  C   C178      1.0  0.44977  0.85454  0.03463  1.0000
  C   C179      1.0  0.59523  0.44977  0.20130  1.0000
  C   C180      1.0  0.14546  0.59523  0.36797  1.0000
  C   C181      1.0  0.82534  0.42700  0.22260  1.0000
  C   C182      1.0  0.39834  0.82534  0.38927  1.0000
  C   C183      1.0  0.57300  0.39834  0.55593  1.0000
  C   C184      1.0  0.17466  0.57300  0.72260  1.0000
  C   C185      1.0  0.60166  0.17466  0.88927  1.0000
  C   C186      1.0  0.42700  0.60166  0.05593  1.0000
  C   C187      1.0  0.57300  0.17466  0.61073  1.0000
  C   C188      1.0  0.39834  0.57300  0.77740  1.0000
  C   C189      1.0  0.82534  0.39834  0.94407  1.0000
  C   C190      1.0  0.42700  0.82534  0.11073  1.0000
  C   C191      1.0  0.60166  0.42700  0.27740  1.0000
  C   C192      1.0  0.17466  0.60166  0.44407  1.0000
  H   H97       1.0  0.84130  0.41240  0.18290  1.0000
  H   H98       1.0  0.42890  0.84130  0.34957  1.0000
  H   H99       1.0  0.58760  0.42890  0.51623  1.0000
  H   H100      1.0  0.15870  0.58760  0.68290  1.0000
  H   H101      1.0  0.57110  0.15870  0.84957  1.0000
  H   H102      1.0  0.41240  0.57110  0.01623  1.0000
  H   H103      1.0  0.58760  0.15870  0.65043  1.0000
  H   H104      1.0  0.42890  0.58760  0.81710  1.0000
  H   H105      1.0  0.84130  0.42890  0.98377  1.0000
  H   H106      1.0  0.41240  0.84130  0.15043  1.0000
  H   H107      1.0  0.57110  0.41240  0.31710  1.0000
  H   H108      1.0  0.15870  0.57110  0.48377  1.0000
  C   C193      1.0  0.77497  0.42540  0.20430  1.0000
  C   C194      1.0  0.34957  0.77497  0.37097  1.0000
  C   C195      1.0  0.57460  0.34957  0.53763  1.0000
  C   C196      1.0  0.22503  0.57460  0.70430  1.0000
  C   C197      1.0  0.65043  0.22503  0.87097  1.0000
  C   C198      1.0  0.42540  0.65043  0.03763  1.0000
  C   C199      1.0  0.57460  0.22503  0.62903  1.0000
  C   C200      1.0  0.34957  0.57460  0.79570  1.0000
  C   C201      1.0  0.77497  0.34957  0.96237  1.0000
  C   C202      1.0  0.42540  0.77497  0.12903  1.0000
  C   C203      1.0  0.65043  0.42540  0.29570  1.0000
  C   C204      1.0  0.22503  0.65043  0.46237  1.0000
  H   H109      1.0  0.75590  0.40920  0.15260  1.0000
  H   H110      1.0  0.34670  0.75590  0.31927  1.0000
  H   H111      1.0  0.59080  0.34670  0.48593  1.0000
  H   H112      1.0  0.24410  0.59080  0.65260  1.0000
  H   H113      1.0  0.65330  0.24410  0.81927  1.0000
  H   H114      1.0  0.40920  0.65330  0.98593  1.0000
  H   H115      1.0  0.59080  0.24410  0.68073  1.0000
  H   H116      1.0  0.34670  0.59080  0.84740  1.0000
  H   H117      1.0  0.75590  0.34670  0.01407  1.0000
  H   H118      1.0  0.40920  0.75590  0.18073  1.0000
  H   H119      1.0  0.65330  0.40920  0.34740  1.0000
  H   H120      1.0  0.24410  0.65330  0.51407  1.0000
  C   C205      1.0  0.75112  0.44725  0.26040  1.0000
  C   C206      1.0  0.30387  0.75112  0.42707  1.0000
  C   C207      1.0  0.55275  0.30387  0.59373  1.0000
  C   C208      1.0  0.24888  0.55275  0.76040  1.0000
  C   C209      1.0  0.69613  0.24888  0.92707  1.0000
  C   C210      1.0  0.44725  0.69613  0.09373  1.0000
  C   C211      1.0  0.55275  0.24888  0.57293  1.0000
  C   C212      1.0  0.30387  0.55275  0.73960  1.0000
  C   C213      1.0  0.75112  0.30387  0.90627  1.0000
  C   C214      1.0  0.44725  0.75112  0.07293  1.0000
  C   C215      1.0  0.69613  0.44725  0.23960  1.0000
  C   C216      1.0  0.24888  0.69613  0.40627  1.0000
  C   C217      1.0  0.77858  0.46860  0.33610  1.0000
  C   C218      1.0  0.30998  0.77858  0.50277  1.0000
  C   C219      1.0  0.53140  0.30998  0.66943  1.0000
  C   C220      1.0  0.22142  0.53140  0.83610  1.0000
  C   C221      1.0  0.69002  0.22142  0.00277  1.0000
  C   C222      1.0  0.46860  0.69002  0.16943  1.0000
  C   C223      1.0  0.53140  0.22142  0.49723  1.0000
  C   C224      1.0  0.30998  0.53140  0.66390  1.0000
  C   C225      1.0  0.77858  0.30998  0.83057  1.0000
  C   C226      1.0  0.46860  0.77858  0.99723  1.0000
  C   C227      1.0  0.69002  0.46860  0.16390  1.0000
  C   C228      1.0  0.22142  0.69002  0.33057  1.0000
  H   H121      1.0  0.76130  0.48160  0.37620  1.0000
  H   H122      1.0  0.27970  0.76130  0.54287  1.0000
  H   H123      1.0  0.51840  0.27970  0.70953  1.0000
  H   H124      1.0  0.23870  0.51840  0.87620  1.0000
  H   H125      1.0  0.72030  0.23870  0.04287  1.0000
  H   H126      1.0  0.48160  0.72030  0.20953  1.0000
  H   H127      1.0  0.51840  0.23870  0.45713  1.0000
  H   H128      1.0  0.27970  0.51840  0.62380  1.0000
  H   H129      1.0  0.76130  0.27970  0.79047  1.0000
  H   H130      1.0  0.48160  0.76130  0.95713  1.0000
  H   H131      1.0  0.72030  0.48160  0.12380  1.0000
  H   H132      1.0  0.23870  0.72030  0.29047  1.0000
  C   C229      1.0  0.83087  0.47150  0.35570  1.0000
  C   C230      1.0  0.35937  0.83087  0.52237  1.0000
  C   C231      1.0  0.52850  0.35937  0.68903  1.0000
  C   C232      1.0  0.16913  0.52850  0.85570  1.0000
  C   C233      1.0  0.64063  0.16913  0.02237  1.0000
  C   C234      1.0  0.47150  0.64063  0.18903  1.0000
  C   C235      1.0  0.52850  0.16913  0.47763  1.0000
  C   C236      1.0  0.35937  0.52850  0.64430  1.0000
  C   C237      1.0  0.83087  0.35937  0.81097  1.0000
  C   C238      1.0  0.47150  0.83087  0.97763  1.0000
  C   C239      1.0  0.64063  0.47150  0.14430  1.0000
  C   C240      1.0  0.16913  0.64063  0.31097  1.0000
  H   H133      1.0  0.85000  0.48820  0.40720  1.0000
  H   H134      1.0  0.36180  0.85000  0.57387  1.0000
  H   H135      1.0  0.51180  0.36180  0.74053  1.0000
  H   H136      1.0  0.15000  0.51180  0.90720  1.0000
  H   H137      1.0  0.63820  0.15000  0.07387  1.0000
  H   H138      1.0  0.48820  0.63820  0.24053  1.0000
  H   H139      1.0  0.51180  0.15000  0.42613  1.0000
  H   H140      1.0  0.36180  0.51180  0.59280  1.0000
  H   H141      1.0  0.85000  0.36180  0.75947  1.0000
  H   H142      1.0  0.48820  0.85000  0.92613  1.0000
  H   H143      1.0  0.63820  0.48820  0.09280  1.0000
  H   H144      1.0  0.15000  0.63820  0.25947  1.0000
  C   C241      1.0  0.90940  0.45149  0.31910  1.0000
  C   C242      1.0  0.45791  0.90940  0.48577  1.0000
  C   C243      1.0  0.54851  0.45791  0.65243  1.0000
  C   C244      1.0  0.09060  0.54851  0.81910  1.0000
  C   C245      1.0  0.54209  0.09060  0.98577  1.0000
  C   C246      1.0  0.45149  0.54209  0.15243  1.0000
  C   C247      1.0  0.54851  0.09060  0.51423  1.0000
  C   C248      1.0  0.45791  0.54851  0.68090  1.0000
  C   C249      1.0  0.90940  0.45791  0.84757  1.0000
  C   C250      1.0  0.45149  0.90940  0.01423  1.0000
  C   C251      1.0  0.54209  0.45149  0.18090  1.0000
  C   C252      1.0  0.09060  0.54209  0.34757  1.0000
