data_image0
_chemical_formula_structural       C8H4C8H4C8H4C12H4C8H4C8H4C12H4C8H4C8H4C12H4C8H4C8H4C12H4C8H4C8H4C4Eu16N20O112S8
_chemical_formula_sum              "C140 H60 Eu16 N20 O112 S8"
_cell_length_a       8.299
_cell_length_b       31.863
_cell_length_c       19.556
_cell_angle_alpha    90
_cell_angle_beta     108.68
_cell_angle_gamma    90

_space_group_name_H-M_alt    "P 1"
_space_group_IT_number       1

loop_
  _space_group_symop_operation_xyz
  'x, y, z'

loop_
  _atom_site_type_symbol
  _atom_site_label
  _atom_site_symmetry_multiplicity
  _atom_site_fract_x
  _atom_site_fract_y
  _atom_site_fract_z
  _atom_site_occupancy
  C   C1        1.0  0.61810  0.94600  0.38010  1.0000
  C   C2        1.0  0.38190  0.44600  0.11990  1.0000
  C   C3        1.0  0.38190  0.05400  0.61990  1.0000
  C   C4        1.0  0.61810  0.55400  0.88010  1.0000
  C   C5        1.0  0.91970  0.92275  0.43630  1.0000
  C   C6        1.0  0.08030  0.42275  0.06370  1.0000
  C   C7        1.0  0.08030  0.07725  0.56370  1.0000
  C   C8        1.0  0.91970  0.57725  0.93630  1.0000
  H   H1        1.0  0.90991  0.90883  0.39216  1.0000
  H   H2        1.0  0.09009  0.40883  0.10784  1.0000
  H   H3        1.0  0.09009  0.09117  0.60784  1.0000
  H   H4        1.0  0.90991  0.59117  0.89216  1.0000
  C   C9        1.0  0.78020  0.94534  0.44190  1.0000
  C   C10       1.0  0.21980  0.44534  0.05810  1.0000
  C   C11       1.0  0.21980  0.05466  0.55810  1.0000
  C   C12       1.0  0.78020  0.55466  0.94190  1.0000
  C   C13       1.0  0.79620  0.96730  0.50540  1.0000
  C   C14       1.0  0.20380  0.46730  0.99460  1.0000
  C   C15       1.0  0.20380  0.03270  0.49460  1.0000
  C   C16       1.0  0.79620  0.53270  0.00540  1.0000
  H   H5        1.0  0.70416  0.98351  0.51003  1.0000
  H   H6        1.0  0.29584  0.48351  0.98997  1.0000
  H   H7        1.0  0.29584  0.01649  0.48997  1.0000
  H   H8        1.0  0.70416  0.51649  0.01003  1.0000
  C   C17       1.0  0.94940  0.96507  0.56190  1.0000
  C   C18       1.0  0.05060  0.46507  0.93810  1.0000
  C   C19       1.0  0.05060  0.03493  0.43810  1.0000
  C   C20       1.0  0.94940  0.53493  0.06190  1.0000
  C   C21       1.0  0.07750  0.94050  0.55180  1.0000
  C   C22       1.0  0.92250  0.44050  0.94820  1.0000
  C   C23       1.0  0.92250  0.05950  0.44820  1.0000
  C   C24       1.0  0.07750  0.55950  0.05180  1.0000
  H   H9        1.0  0.18026  0.93799  0.59099  1.0000
  H   H10       1.0  0.81974  0.43799  0.90901  1.0000
  H   H11       1.0  0.81974  0.06201  0.40901  1.0000
  H   H12       1.0  0.18026  0.56201  0.09099  1.0000
  C   C25       1.0  0.97890  0.98842  0.63100  1.0000
  C   C26       1.0  0.02110  0.48842  0.86900  1.0000
  C   C27       1.0  0.02110  0.01158  0.36900  1.0000
  C   C28       1.0  0.97890  0.51158  0.13100  1.0000
  C   C29       1.0  0.96200  0.01790  0.14720  1.0000
  C   C30       1.0  0.03800  0.51790  0.35280  1.0000
  C   C31       1.0  0.03800  0.98210  0.85280  1.0000
  C   C32       1.0  0.96200  0.48210  0.64720  1.0000
  C   C33       1.0  0.08440  0.05796  0.06270  1.0000
  C   C34       1.0  0.91560  0.55796  0.43730  1.0000
  C   C35       1.0  0.91560  0.94204  0.93730  1.0000
  C   C36       1.0  0.08440  0.44204  0.56270  1.0000
  H   H13       1.0  0.18709  0.06093  0.10180  1.0000
  H   H14       1.0  0.81291  0.56093  0.39820  1.0000
  H   H15       1.0  0.81291  0.93907  0.89820  1.0000
  H   H16       1.0  0.18709  0.43907  0.60180  1.0000
  C   C37       1.0  0.94940  0.03627  0.07450  1.0000
  C   C38       1.0  0.05060  0.53627  0.42550  1.0000
  C   C39       1.0  0.05060  0.96373  0.92550  1.0000
  C   C40       1.0  0.94940  0.46373  0.57450  1.0000
  C   C41       1.0  0.80330  0.02999  0.01670  1.0000
  C   C42       1.0  0.19670  0.52999  0.48330  1.0000
  C   C43       1.0  0.19670  0.97001  0.98330  1.0000
  C   C44       1.0  0.80330  0.47001  0.51670  1.0000
  H   H17       1.0  0.70865  0.01573  0.02316  1.0000
  H   H18       1.0  0.29135  0.51573  0.47684  1.0000
  H   H19       1.0  0.29135  0.98427  0.97684  1.0000
  H   H20       1.0  0.70865  0.48427  0.52316  1.0000
  C   C45       1.0  0.79680  0.04492  0.94860  1.0000
  C   C46       1.0  0.20320  0.54492  0.55140  1.0000
  C   C47       1.0  0.20320  0.95508  0.05140  1.0000
  C   C48       1.0  0.79680  0.45508  0.44860  1.0000
  C   C49       1.0  0.93410  0.06826  0.94250  1.0000
  C   C50       1.0  0.06590  0.56826  0.55750  1.0000
  C   C51       1.0  0.06590  0.93174  0.05750  1.0000
  C   C52       1.0  0.93410  0.43174  0.44250  1.0000
  H   H21       1.0  0.92677  0.07989  0.89684  1.0000
  H   H22       1.0  0.07323  0.57989  0.60316  1.0000
  H   H23       1.0  0.07323  0.92011  0.10316  1.0000
  H   H24       1.0  0.92677  0.42011  0.39684  1.0000
  C   C53       1.0  0.64390  0.03569  0.88520  1.0000
  C   C54       1.0  0.35610  0.53569  0.61480  1.0000
  C   C55       1.0  0.35610  0.96431  0.11480  1.0000
  C   C56       1.0  0.64390  0.46431  0.38520  1.0000
  C   C57       1.0  0.13590  0.73741  0.17780  1.0000
  C   C58       1.0  0.86410  0.23741  0.32220  1.0000
  C   C59       1.0  0.86410  0.26259  0.82220  1.0000
  C   C60       1.0  0.13590  0.76259  0.67780  1.0000
  C   C61       1.0  0.24700  0.69230  0.09570  1.0000
  C   C62       1.0  0.75300  0.19230  0.40430  1.0000
  C   C63       1.0  0.75300  0.30770  0.90430  1.0000
  C   C64       1.0  0.24700  0.80770  0.59570  1.0000
  H   H25       1.0  0.35032  0.68942  0.13452  1.0000
  H   H26       1.0  0.64968  0.18942  0.36548  1.0000
  H   H27       1.0  0.64968  0.31058  0.86548  1.0000
  H   H28       1.0  0.35032  0.81058  0.63452  1.0000
  C   C65       1.0  0.11600  0.71584  0.10710  1.0000
  C   C66       1.0  0.88400  0.21584  0.39290  1.0000
  C   C67       1.0  0.88400  0.28416  0.89290  1.0000
  C   C68       1.0  0.11600  0.78416  0.60710  1.0000
  C   C69       1.0  0.96610  0.72063  0.04970  1.0000
  C   C70       1.0  0.03390  0.22063  0.45030  1.0000
  C   C71       1.0  0.03390  0.27937  0.95030  1.0000
  C   C72       1.0  0.96610  0.77937  0.54970  1.0000
  H   H29       1.0  0.87365  0.73625  0.05531  1.0000
  H   H30       1.0  0.12635  0.23625  0.44469  1.0000
  H   H31       1.0  0.12635  0.26375  0.94469  1.0000
  H   H32       1.0  0.87365  0.76375  0.55531  1.0000
  C   C73       1.0  0.95430  0.70208  0.98380  1.0000
  C   C74       1.0  0.04570  0.20208  0.51620  1.0000
  C   C75       1.0  0.04570  0.29792  0.01620  1.0000
  C   C76       1.0  0.95430  0.79792  0.48380  1.0000
  C   C77       1.0  0.09050  0.67880  0.97790  1.0000
  C   C78       1.0  0.90950  0.17880  0.52210  1.0000
  C   C79       1.0  0.90950  0.32120  0.02210  1.0000
  C   C80       1.0  0.09050  0.82120  0.47790  1.0000
  H   H33       1.0  0.08122  0.66606  0.93288  1.0000
  H   H34       1.0  0.91878  0.16606  0.56712  1.0000
  H   H35       1.0  0.91878  0.33394  0.06712  1.0000
  H   H36       1.0  0.08122  0.83394  0.43288  1.0000
  C   C81       1.0  0.79530  0.70912  0.92090  1.0000
  C   C82       1.0  0.20470  0.20912  0.57910  1.0000
  C   C83       1.0  0.20470  0.29088  0.07910  1.0000
  C   C84       1.0  0.79530  0.79088  0.42090  1.0000
  C   C85       1.0  0.52080  0.80667  0.15400  1.0000
  C   C86       1.0  0.47920  0.30667  0.34600  1.0000
  C   C87       1.0  0.47920  0.19333  0.84600  1.0000
  C   C88       1.0  0.52080  0.69333  0.65400  1.0000
  C   C89       1.0  0.21470  0.82640  0.09150  1.0000
  C   C90       1.0  0.78530  0.32640  0.40850  1.0000
  C   C91       1.0  0.78530  0.17360  0.90850  1.0000
  C   C92       1.0  0.21470  0.67360  0.59150  1.0000
  H   H37       1.0  0.21815  0.84044  0.13477  1.0000
  H   H38       1.0  0.78185  0.34044  0.36523  1.0000
  H   H39       1.0  0.78185  0.15956  0.86523  1.0000
  H   H40       1.0  0.21815  0.65956  0.63477  1.0000
  C   C93       1.0  0.36110  0.80620  0.08890  1.0000
  C   C94       1.0  0.63890  0.30620  0.41110  1.0000
  C   C95       1.0  0.63890  0.19380  0.91110  1.0000
  C   C96       1.0  0.36110  0.69380  0.58890  1.0000
  C   C97       1.0  0.35680  0.78550  0.02550  1.0000
  C   C98       1.0  0.64320  0.28550  0.47450  1.0000
  C   C99       1.0  0.64320  0.21450  0.97450  1.0000
  C   C100      1.0  0.35680  0.71450  0.52550  1.0000
  H   H41       1.0  0.45542  0.77186  0.02190  1.0000
  H   H42       1.0  0.54458  0.27186  0.47810  1.0000
  H   H43       1.0  0.54458  0.22814  0.97810  1.0000
  H   H44       1.0  0.45542  0.72814  0.52190  1.0000
  C   C101      1.0  0.20580  0.78520  0.96750  1.0000
  C   C102      1.0  0.79420  0.28520  0.53250  1.0000
  C   C103      1.0  0.79420  0.21480  0.03250  1.0000
  C   C104      1.0  0.20580  0.71480  0.46750  1.0000
  C   C105      1.0  0.06650  0.80650  0.97560  1.0000
  C   C106      1.0  0.93350  0.30650  0.52440  1.0000
  C   C107      1.0  0.93350  0.19350  0.02440  1.0000
  C   C108      1.0  0.06650  0.69350  0.47560  1.0000
  H   H45       1.0  0.96397  0.80659  0.93601  1.0000
  H   H46       1.0  0.03603  0.30659  0.56399  1.0000
  H   H47       1.0  0.03603  0.19341  0.06399  1.0000
  H   H48       1.0  0.96397  0.69341  0.43601  1.0000
  C   C109      1.0  0.19230  0.76220  0.89820  1.0000
  C   C110      1.0  0.80770  0.26220  0.60180  1.0000
  C   C111      1.0  0.80770  0.23780  0.10180  1.0000
  C   C112      1.0  0.19230  0.73780  0.39820  1.0000
  C   C113      1.0  0.44140  0.04940  0.25300  1.0000
  C   C114      1.0  0.55860  0.54940  0.24700  1.0000
  C   C115      1.0  0.55860  0.95060  0.74700  1.0000
  C   C116      1.0  0.44140  0.45060  0.75300  1.0000
  C   C117      1.0  0.20170  0.08610  0.28120  1.0000
  C   C118      1.0  0.79830  0.58610  0.21880  1.0000
  C   C119      1.0  0.79830  0.91390  0.71880  1.0000
  C   C120      1.0  0.20170  0.41390  0.78120  1.0000
  H   H49       1.0  0.17471  0.05959  0.29695  1.0000
  H   H50       1.0  0.82529  0.55959  0.20305  1.0000
  H   H51       1.0  0.82529  0.94041  0.70305  1.0000
  H   H52       1.0  0.17471  0.44041  0.79695  1.0000
  C   C121      1.0  0.33920  0.08817  0.25420  1.0000
  C   C122      1.0  0.66080  0.58817  0.24580  1.0000
  C   C123      1.0  0.66080  0.91183  0.74580  1.0000
  C   C124      1.0  0.33920  0.41183  0.75420  1.0000
  C   C125      1.0  0.37970  0.12682  0.23160  1.0000
  C   C126      1.0  0.62030  0.62682  0.26840  1.0000
  C   C127      1.0  0.62030  0.87318  0.76840  1.0000
  C   C128      1.0  0.37970  0.37318  0.73160  1.0000
  H   H53       1.0  0.46922  0.12942  0.21136  1.0000
  H   H54       1.0  0.53078  0.62942  0.28864  1.0000
  H   H55       1.0  0.53078  0.87058  0.78864  1.0000
  H   H56       1.0  0.46922  0.37058  0.71136  1.0000
  C   C129      1.0  0.28570  0.16180  0.23920  1.0000
  C   C130      1.0  0.71430  0.66180  0.26080  1.0000
  C   C131      1.0  0.71430  0.83820  0.76080  1.0000
  C   C132      1.0  0.28570  0.33820  0.73920  1.0000
  C   C133      1.0  0.15150  0.15680  0.26550  1.0000
  C   C134      1.0  0.84850  0.65680  0.23450  1.0000
  C   C135      1.0  0.84850  0.84320  0.73450  1.0000
  C   C136      1.0  0.15150  0.34320  0.76550  1.0000
  H   H57       1.0  0.08743  0.18079  0.26958  1.0000
  H   H58       1.0  0.91257  0.68079  0.23042  1.0000
  H   H59       1.0  0.91257  0.81921  0.73042  1.0000
  H   H60       1.0  0.08743  0.31921  0.76958  1.0000
  C   C137      1.0  0.32690  0.20480  0.22080  1.0000
  C   C138      1.0  0.67310  0.70480  0.27920  1.0000
  C   C139      1.0  0.67310  0.79520  0.77920  1.0000
  C   C140      1.0  0.32690  0.29520  0.72080  1.0000
  Eu  Eu1       1.0  0.24977  0.95794  0.27829  1.0000
  Eu  Eu2       1.0  0.75023  0.45794  0.22171  1.0000
  Eu  Eu3       1.0  0.75023  0.04206  0.72171  1.0000
  Eu  Eu4       1.0  0.24977  0.54206  0.77829  1.0000
  Eu  Eu5       1.0  0.67641  0.98000  0.22463  1.0000
  Eu  Eu6       1.0  0.32359  0.48000  0.27537  1.0000
  Eu  Eu7       1.0  0.32359  0.02000  0.77537  1.0000
  Eu  Eu8       1.0  0.67641  0.52000  0.72463  1.0000
  Eu  Eu9       1.0  0.46692  0.77646  0.31522  1.0000
  Eu  Eu10      1.0  0.53308  0.27646  0.18478  1.0000
  Eu  Eu11      1.0  0.53308  0.22354  0.68478  1.0000
  Eu  Eu12      1.0  0.46692  0.72354  0.81522  1.0000
  Eu  Eu13      1.0  0.89470  0.79355  0.25939  1.0000
  Eu  Eu14      1.0  0.10530  0.29355  0.24061  1.0000
  Eu  Eu15      1.0  0.10530  0.20645  0.74061  1.0000
  Eu  Eu16      1.0  0.89470  0.70645  0.75939  1.0000
  N   N1        1.0  0.06750  0.91990  0.49090  1.0000
  N   N2        1.0  0.93250  0.41990  0.00910  1.0000
  N   N3        1.0  0.93250  0.08010  0.50910  1.0000
  N   N4        1.0  0.06750  0.58010  0.99090  1.0000
  N   N5        1.0  0.07580  0.07491  0.99820  1.0000
  N   N6        1.0  0.92420  0.57491  0.50180  1.0000
  N   N7        1.0  0.92420  0.92509  0.00180  1.0000
  N   N8        1.0  0.07580  0.42509  0.49820  1.0000
  N   N9        1.0  0.23490  0.67355  0.03320  1.0000
  N   N10       1.0  0.76510  0.17355  0.46680  1.0000
  N   N11       1.0  0.76510  0.32645  0.96680  1.0000
  N   N12       1.0  0.23490  0.82645  0.53320  1.0000
  N   N13       1.0  0.06790  0.82699  0.03580  1.0000
  N   N14       1.0  0.93210  0.32699  0.46420  1.0000
  N   N15       1.0  0.93210  0.17301  0.96420  1.0000
  N   N16       1.0  0.06790  0.67301  0.53580  1.0000
  N   N17       1.0  0.10680  0.11880  0.28600  1.0000
  N   N18       1.0  0.89320  0.61880  0.21400  1.0000
  N   N19       1.0  0.89320  0.88120  0.71400  1.0000
  N   N20       1.0  0.10680  0.38120  0.78600  1.0000
  O   O1        1.0  0.62190  0.94212  0.31660  1.0000
  O   O2        1.0  0.37810  0.44212  0.18340  1.0000
  O   O3        1.0  0.37810  0.05788  0.68340  1.0000
  O   O4        1.0  0.62190  0.55788  0.81660  1.0000
  O   O5        1.0  0.47980  0.94941  0.39400  1.0000
  O   O6        1.0  0.52020  0.44941  0.10600  1.0000
  O   O7        1.0  0.52020  0.05059  0.60600  1.0000
  O   O8        1.0  0.47980  0.55059  0.89400  1.0000
  O   O9        1.0  0.85210  0.00640  0.64030  1.0000
  O   O10       1.0  0.14790  0.50640  0.85970  1.0000
  O   O11       1.0  0.14790  0.99360  0.35970  1.0000
  O   O12       1.0  0.85210  0.49360  0.14030  1.0000
  O   O13       1.0  0.12660  0.98813  0.67540  1.0000
  O   O14       1.0  0.87340  0.48813  0.82460  1.0000
  O   O15       1.0  0.87340  0.01187  0.32460  1.0000
  O   O16       1.0  0.12660  0.51187  0.17540  1.0000
  O   O17       1.0  0.63800  0.04540  0.82200  1.0000
  O   O18       1.0  0.36200  0.54540  0.67800  1.0000
  O   O19       1.0  0.36200  0.95460  0.17800  1.0000
  O   O20       1.0  0.63800  0.45460  0.32200  1.0000
  O   O21       1.0  0.52150  0.01680  0.89670  1.0000
  O   O22       1.0  0.47850  0.51680  0.60330  1.0000
  O   O23       1.0  0.47850  0.98320  0.10330  1.0000
  O   O24       1.0  0.52150  0.48320  0.39670  1.0000
  O   O25       1.0  0.82260  0.01387  0.15910  1.0000
  O   O26       1.0  0.17740  0.51387  0.34090  1.0000
  O   O27       1.0  0.17740  0.98613  0.84090  1.0000
  O   O28       1.0  0.82260  0.48613  0.65910  1.0000
  O   O29       1.0  0.10490  0.00787  0.18850  1.0000
  O   O30       1.0  0.89510  0.50787  0.31150  1.0000
  O   O31       1.0  0.89510  0.99213  0.81150  1.0000
  O   O32       1.0  0.10490  0.49213  0.68850  1.0000
  O   O33       1.0  0.18620  0.82042  0.29030  1.0000
  O   O34       1.0  0.81380  0.32042  0.20970  1.0000
  O   O35       1.0  0.81380  0.17958  0.70970  1.0000
  O   O36       1.0  0.18620  0.67958  0.79030  1.0000
  O   O37       1.0  0.45800  0.84604  0.35950  1.0000
  O   O38       1.0  0.54200  0.34604  0.14050  1.0000
  O   O39       1.0  0.54200  0.15396  0.64050  1.0000
  O   O40       1.0  0.45800  0.65396  0.85950  1.0000
  O   O41       1.0  0.28720  0.88667  0.25660  1.0000
  O   O42       1.0  0.71280  0.38667  0.24340  1.0000
  O   O43       1.0  0.71280  0.11333  0.74340  1.0000
  O   O44       1.0  0.28720  0.61333  0.75660  1.0000
  O   O45       1.0  0.20950  0.88507  0.36310  1.0000
  O   O46       1.0  0.79050  0.38507  0.13690  1.0000
  O   O47       1.0  0.79050  0.11493  0.63690  1.0000
  O   O48       1.0  0.20950  0.61493  0.86310  1.0000
  O   O49       1.0  0.67710  0.91100  0.17540  1.0000
  O   O50       1.0  0.32290  0.41100  0.32460  1.0000
  O   O51       1.0  0.32290  0.08900  0.82460  1.0000
  O   O52       1.0  0.67710  0.58900  0.67540  1.0000
  O   O53       1.0  0.95400  0.93494  0.24320  1.0000
  O   O54       1.0  0.04600  0.43494  0.25680  1.0000
  O   O55       1.0  0.04600  0.06506  0.75680  1.0000
  O   O56       1.0  0.95400  0.56506  0.74320  1.0000
  O   O57       1.0  0.85450  0.86606  0.26930  1.0000
  O   O58       1.0  0.14550  0.36606  0.23070  1.0000
  O   O59       1.0  0.14550  0.13394  0.73070  1.0000
  O   O60       1.0  0.85450  0.63394  0.76930  1.0000
  O   O61       1.0  0.92230  0.87467  0.16050  1.0000
  O   O62       1.0  0.07770  0.37467  0.33950  1.0000
  O   O63       1.0  0.07770  0.12533  0.83950  1.0000
  O   O64       1.0  0.92230  0.62533  0.66050  1.0000
  O   O65       1.0  0.28130  0.73712  0.22320  1.0000
  O   O66       1.0  0.71870  0.23712  0.27680  1.0000
  O   O67       1.0  0.71870  0.26288  0.77680  1.0000
  O   O68       1.0  0.28130  0.76288  0.72320  1.0000
  O   O69       1.0  0.00550  0.75456  0.18530  1.0000
  O   O70       1.0  0.99450  0.25456  0.31470  1.0000
  O   O71       1.0  0.99450  0.24544  0.81470  1.0000
  O   O72       1.0  0.00550  0.74544  0.68530  1.0000
  O   O73       1.0  0.67260  0.72613  0.93400  1.0000
  O   O74       1.0  0.32740  0.22613  0.56600  1.0000
  O   O75       1.0  0.32740  0.27387  0.06600  1.0000
  O   O76       1.0  0.67260  0.77387  0.43400  1.0000
  O   O77       1.0  0.78660  0.69747  0.85820  1.0000
  O   O78       1.0  0.21340  0.19747  0.64180  1.0000
  O   O79       1.0  0.21340  0.30253  0.14180  1.0000
  O   O80       1.0  0.78660  0.80253  0.35820  1.0000
  O   O81       1.0  0.66380  0.80392  0.14380  1.0000
  O   O82       1.0  0.33620  0.30392  0.35620  1.0000
  O   O83       1.0  0.33620  0.19608  0.85620  1.0000
  O   O84       1.0  0.66380  0.69608  0.64380  1.0000
  O   O85       1.0  0.50420  0.81040  0.21580  1.0000
  O   O86       1.0  0.49580  0.31040  0.28420  1.0000
  O   O87       1.0  0.49580  0.18960  0.78420  1.0000
  O   O88       1.0  0.50420  0.68960  0.71580  1.0000
  O   O89       1.0  0.04770  0.75466  0.85430  1.0000
  O   O90       1.0  0.95230  0.25466  0.64570  1.0000
  O   O91       1.0  0.95230  0.24534  0.14570  1.0000
  O   O92       1.0  0.04770  0.74534  0.35430  1.0000
  O   O93       1.0  0.33170  0.75255  0.89000  1.0000
  O   O94       1.0  0.66830  0.25255  0.61000  1.0000
  O   O95       1.0  0.66830  0.24745  0.11000  1.0000
  O   O96       1.0  0.33170  0.74745  0.39000  1.0000
  O   O97       1.0  0.28530  0.23577  0.25100  1.0000
  O   O98       1.0  0.71470  0.73577  0.24900  1.0000
  O   O99       1.0  0.71470  0.76423  0.74900  1.0000
  O   O100      1.0  0.28530  0.26423  0.75100  1.0000
  O   O101      1.0  0.40710  0.20823  0.17620  1.0000
  O   O102      1.0  0.59290  0.70823  0.32380  1.0000
  O   O103      1.0  0.59290  0.79177  0.82380  1.0000
  O   O104      1.0  0.40710  0.29177  0.67620  1.0000
  O   O105      1.0  0.54010  0.04967  0.21630  1.0000
  O   O106      1.0  0.45990  0.54967  0.28370  1.0000
  O   O107      1.0  0.45990  0.95033  0.78370  1.0000
  O   O108      1.0  0.54010  0.45033  0.71630  1.0000
  O   O109      1.0  0.42670  0.01817  0.29090  1.0000
  O   O110      1.0  0.57330  0.51817  0.20910  1.0000
  O   O111      1.0  0.57330  0.98183  0.70910  1.0000
  O   O112      1.0  0.42670  0.48183  0.79090  1.0000
  S   S1        1.0  0.28319  0.86036  0.31815  1.0000
  S   S2        1.0  0.71681  0.36036  0.18185  1.0000
  S   S3        1.0  0.71681  0.13964  0.68185  1.0000
  S   S4        1.0  0.28319  0.63964  0.81815  1.0000
  S   S5        1.0  0.85351  0.89546  0.21104  1.0000
  S   S6        1.0  0.14649  0.39546  0.28896  1.0000
  S   S7        1.0  0.14649  0.10454  0.78896  1.0000
  S   S8        1.0  0.85351  0.60454  0.71104  1.0000
