data_image0
_chemical_formula_structural       Cd6C12H6C12H6C12H6C18H12C18H6C24O48S6
_chemical_formula_sum              "Cd6 C96 H36 O48 S6"
_cell_length_a       28.637
_cell_length_b       28.637
_cell_length_c       10.1757
_cell_angle_alpha    90
_cell_angle_beta     90
_cell_angle_gamma    120

_space_group_name_H-M_alt    "P 1"
_space_group_IT_number       1

loop_
  _space_group_symop_operation_xyz
  'x, y, z'

loop_
  _atom_site_type_symbol
  _atom_site_label
  _atom_site_symmetry_multiplicity
  _atom_site_fract_x
  _atom_site_fract_y
  _atom_site_fract_z
  _atom_site_occupancy
  Cd  Cd1       1.0  0.49542  0.13159  0.25000  1.0000
  Cd  Cd2       1.0  0.36383  0.49542  0.75000  1.0000
  Cd  Cd3       1.0  0.13159  0.63617  0.75000  1.0000
  Cd  Cd4       1.0  0.86841  0.36383  0.25000  1.0000
  Cd  Cd5       1.0  0.63617  0.50458  0.25000  1.0000
  Cd  Cd6       1.0  0.50458  0.86841  0.75000  1.0000
  C   C1        1.0  0.64610  0.14038  0.25000  1.0000
  C   C2        1.0  0.50572  0.64610  0.75000  1.0000
  C   C3        1.0  0.14038  0.49428  0.75000  1.0000
  C   C4        1.0  0.85962  0.50572  0.25000  1.0000
  C   C5        1.0  0.49428  0.35390  0.25000  1.0000
  C   C6        1.0  0.35390  0.85962  0.75000  1.0000
  C   C7        1.0  0.69380  0.19196  0.25000  1.0000
  C   C8        1.0  0.50184  0.69380  0.75000  1.0000
  C   C9        1.0  0.19196  0.49816  0.75000  1.0000
  C   C10       1.0  0.80804  0.50184  0.25000  1.0000
  C   C11       1.0  0.49816  0.30620  0.25000  1.0000
  C   C12       1.0  0.30620  0.80804  0.75000  1.0000
  H   H1        1.0  0.69080  0.22350  0.25000  1.0000
  H   H2        1.0  0.46730  0.69080  0.75000  1.0000
  H   H3        1.0  0.22350  0.53270  0.75000  1.0000
  H   H4        1.0  0.77650  0.46730  0.25000  1.0000
  H   H5        1.0  0.53270  0.30920  0.25000  1.0000
  H   H6        1.0  0.30920  0.77650  0.75000  1.0000
  C   C13       1.0  0.74220  0.19670  0.25000  1.0000
  C   C14       1.0  0.54550  0.74220  0.75000  1.0000
  C   C15       1.0  0.19670  0.45450  0.75000  1.0000
  C   C16       1.0  0.80330  0.54550  0.25000  1.0000
  C   C17       1.0  0.45450  0.25780  0.25000  1.0000
  C   C18       1.0  0.25780  0.80330  0.75000  1.0000
  C   C19       1.0  0.74820  0.15070  0.25000  1.0000
  C   C20       1.0  0.59750  0.74820  0.75000  1.0000
  C   C21       1.0  0.15070  0.40250  0.75000  1.0000
  C   C22       1.0  0.84930  0.59750  0.25000  1.0000
  C   C23       1.0  0.40250  0.25180  0.25000  1.0000
  C   C24       1.0  0.25180  0.84930  0.75000  1.0000
  H   H7        1.0  0.78310  0.15440  0.25000  1.0000
  H   H8        1.0  0.62870  0.78310  0.75000  1.0000
  H   H9        1.0  0.15440  0.37130  0.75000  1.0000
  H   H10       1.0  0.84560  0.62870  0.25000  1.0000
  H   H11       1.0  0.37130  0.21690  0.25000  1.0000
  H   H12       1.0  0.21690  0.84560  0.75000  1.0000
  C   C25       1.0  0.70320  0.10080  0.25000  1.0000
  C   C26       1.0  0.60240  0.70320  0.75000  1.0000
  C   C27       1.0  0.10080  0.39760  0.75000  1.0000
  C   C28       1.0  0.89920  0.60240  0.25000  1.0000
  C   C29       1.0  0.39760  0.29680  0.25000  1.0000
  C   C30       1.0  0.29680  0.89920  0.75000  1.0000
  C   C31       1.0  0.65251  0.09570  0.25000  1.0000
  C   C32       1.0  0.55681  0.65251  0.75000  1.0000
  C   C33       1.0  0.09570  0.44319  0.75000  1.0000
  C   C34       1.0  0.90430  0.55681  0.25000  1.0000
  C   C35       1.0  0.44319  0.34749  0.25000  1.0000
  C   C36       1.0  0.34749  0.90430  0.75000  1.0000
  H   H13       1.0  0.62150  0.06070  0.25000  1.0000
  H   H14       1.0  0.56080  0.62150  0.75000  1.0000
  H   H15       1.0  0.06070  0.43920  0.75000  1.0000
  H   H16       1.0  0.93930  0.56080  0.25000  1.0000
  H   H17       1.0  0.43920  0.37850  0.25000  1.0000
  H   H18       1.0  0.37850  0.93930  0.75000  1.0000
  C   C37       1.0  0.64650  0.98860  0.25000  1.0000
  C   C38       1.0  0.65790  0.64650  0.75000  1.0000
  C   C39       1.0  0.98860  0.34210  0.75000  1.0000
  C   C40       1.0  0.01140  0.65790  0.25000  1.0000
  C   C41       1.0  0.34210  0.35350  0.25000  1.0000
  C   C42       1.0  0.35350  0.01140  0.75000  1.0000
  C   C43       1.0  0.62173  0.96877  0.13130  1.0000
  C   C44       1.0  0.65296  0.62173  0.63130  1.0000
  C   C45       1.0  0.96877  0.34704  0.63130  1.0000
  C   C46       1.0  0.03123  0.65296  0.13130  1.0000
  C   C47       1.0  0.34704  0.37827  0.13130  1.0000
  C   C48       1.0  0.37827  0.03123  0.63130  1.0000
  C   C49       1.0  0.37827  0.03123  0.86870  1.0000
  C   C50       1.0  0.34704  0.37827  0.36870  1.0000
  C   C51       1.0  0.03123  0.65296  0.36870  1.0000
  C   C52       1.0  0.96877  0.34704  0.86870  1.0000
  C   C53       1.0  0.65296  0.62173  0.86870  1.0000
  C   C54       1.0  0.62173  0.96877  0.36870  1.0000
  H   H19       1.0  0.63960  0.98370  0.05040  1.0000
  H   H20       1.0  0.65590  0.63960  0.55040  1.0000
  H   H21       1.0  0.98370  0.34410  0.55040  1.0000
  H   H22       1.0  0.01630  0.65590  0.05040  1.0000
  H   H23       1.0  0.34410  0.36040  0.05040  1.0000
  H   H24       1.0  0.36040  0.01630  0.55040  1.0000
  H   H25       1.0  0.36040  0.01630  0.94960  1.0000
  H   H26       1.0  0.34410  0.36040  0.44960  1.0000
  H   H27       1.0  0.01630  0.65590  0.44960  1.0000
  H   H28       1.0  0.98370  0.34410  0.94960  1.0000
  H   H29       1.0  0.65590  0.63960  0.94960  1.0000
  H   H30       1.0  0.63960  0.98370  0.44960  1.0000
  C   C55       1.0  0.56914  0.92565  0.13550  1.0000
  C   C56       1.0  0.64349  0.56914  0.63550  1.0000
  C   C57       1.0  0.92565  0.35651  0.63550  1.0000
  C   C58       1.0  0.07435  0.64349  0.13550  1.0000
  C   C59       1.0  0.35651  0.43086  0.13550  1.0000
  C   C60       1.0  0.43086  0.07435  0.63550  1.0000
  C   C61       1.0  0.43086  0.07435  0.86450  1.0000
  C   C62       1.0  0.35651  0.43086  0.36450  1.0000
  C   C63       1.0  0.07435  0.64349  0.36450  1.0000
  C   C64       1.0  0.92565  0.35651  0.86450  1.0000
  C   C65       1.0  0.64349  0.56914  0.86450  1.0000
  C   C66       1.0  0.56914  0.92565  0.36450  1.0000
  C   C67       1.0  0.54390  0.90400  0.25000  1.0000
  C   C68       1.0  0.63990  0.54390  0.75000  1.0000
  C   C69       1.0  0.90400  0.36010  0.75000  1.0000
  C   C70       1.0  0.09600  0.63990  0.25000  1.0000
  C   C71       1.0  0.36010  0.45610  0.25000  1.0000
  C   C72       1.0  0.45610  0.09600  0.75000  1.0000
  H   H31       1.0  0.50840  0.87380  0.25000  1.0000
  H   H32       1.0  0.63460  0.50840  0.75000  1.0000
  H   H33       1.0  0.87380  0.36540  0.75000  1.0000
  H   H34       1.0  0.12620  0.63460  0.25000  1.0000
  H   H35       1.0  0.36540  0.49160  0.25000  1.0000
  H   H36       1.0  0.49160  0.12620  0.75000  1.0000
  C   C73       1.0  0.59310  0.13540  0.25000  1.0000
  C   C74       1.0  0.45770  0.59310  0.75000  1.0000
  C   C75       1.0  0.13540  0.54230  0.75000  1.0000
  C   C76       1.0  0.86460  0.45770  0.25000  1.0000
  C   C77       1.0  0.54230  0.40690  0.25000  1.0000
  C   C78       1.0  0.40690  0.86460  0.75000  1.0000
  C   C79       1.0  0.79290  0.25160  0.25000  1.0000
  C   C80       1.0  0.54130  0.79290  0.75000  1.0000
  C   C81       1.0  0.25160  0.45870  0.75000  1.0000
  C   C82       1.0  0.74840  0.54130  0.25000  1.0000
  C   C83       1.0  0.45870  0.20710  0.25000  1.0000
  C   C84       1.0  0.20710  0.74840  0.75000  1.0000
  C   C85       1.0  0.54210  0.90293  0.00490  1.0000
  C   C86       1.0  0.63917  0.54210  0.50490  1.0000
  C   C87       1.0  0.90293  0.36083  0.50490  1.0000
  C   C88       1.0  0.09707  0.63917  0.00490  1.0000
  C   C89       1.0  0.36083  0.45790  0.00490  1.0000
  C   C90       1.0  0.45790  0.09707  0.50490  1.0000
  C   C91       1.0  0.45790  0.09707  0.99510  1.0000
  C   C92       1.0  0.36083  0.45790  0.49510  1.0000
  C   C93       1.0  0.09707  0.63917  0.49510  1.0000
  C   C94       1.0  0.90293  0.36083  0.99510  1.0000
  C   C95       1.0  0.63917  0.54210  0.99510  1.0000
  C   C96       1.0  0.54210  0.90293  0.49510  1.0000
  O   O1        1.0  0.58971  0.17831  0.25000  1.0000
  O   O2        1.0  0.41140  0.58971  0.75000  1.0000
  O   O3        1.0  0.17831  0.58860  0.75000  1.0000
  O   O4        1.0  0.82169  0.41140  0.25000  1.0000
  O   O5        1.0  0.58860  0.41029  0.25000  1.0000
  O   O6        1.0  0.41029  0.82169  0.75000  1.0000
  O   O7        1.0  0.55071  0.08988  0.25000  1.0000
  O   O8        1.0  0.46083  0.55071  0.75000  1.0000
  O   O9        1.0  0.08988  0.53917  0.75000  1.0000
  O   O10       1.0  0.91012  0.46083  0.25000  1.0000
  O   O11       1.0  0.53917  0.44929  0.25000  1.0000
  O   O12       1.0  0.44929  0.91012  0.75000  1.0000
  O   O13       1.0  0.78479  0.29119  0.25000  1.0000
  O   O14       1.0  0.49360  0.78479  0.75000  1.0000
  O   O15       1.0  0.29119  0.50640  0.75000  1.0000
  O   O16       1.0  0.70881  0.49360  0.25000  1.0000
  O   O17       1.0  0.50640  0.21521  0.25000  1.0000
  O   O18       1.0  0.21521  0.70881  0.75000  1.0000
  O   O19       1.0  0.83750  0.25580  0.25000  1.0000
  O   O20       1.0  0.58170  0.83750  0.75000  1.0000
  O   O21       1.0  0.25580  0.41830  0.75000  1.0000
  O   O22       1.0  0.74420  0.58170  0.25000  1.0000
  O   O23       1.0  0.41830  0.16250  0.25000  1.0000
  O   O24       1.0  0.16250  0.74420  0.75000  1.0000
  O   O25       1.0  0.49742  0.86106  0.99990  1.0000
  O   O26       1.0  0.63636  0.49742  0.49990  1.0000
  O   O27       1.0  0.86106  0.36364  0.49990  1.0000
  O   O28       1.0  0.13894  0.63636  0.99990  1.0000
  O   O29       1.0  0.36364  0.50258  0.99990  1.0000
  O   O30       1.0  0.50258  0.13894  0.49990  1.0000
  O   O31       1.0  0.50258  0.13894  0.00010  1.0000
  O   O32       1.0  0.36364  0.50258  0.50010  1.0000
  O   O33       1.0  0.13894  0.63636  0.50010  1.0000
  O   O34       1.0  0.86106  0.36364  0.00010  1.0000
  O   O35       1.0  0.63636  0.49742  0.00010  1.0000
  O   O36       1.0  0.49742  0.86106  0.50010  1.0000
  O   O37       1.0  0.56522  0.92811  0.90240  1.0000
  O   O38       1.0  0.63711  0.56522  0.40240  1.0000
  O   O39       1.0  0.92811  0.36289  0.40240  1.0000
  O   O40       1.0  0.07189  0.63711  0.90240  1.0000
  O   O41       1.0  0.36289  0.43478  0.90240  1.0000
  O   O42       1.0  0.43478  0.07189  0.40240  1.0000
  O   O43       1.0  0.43478  0.07189  0.09760  1.0000
  O   O44       1.0  0.36289  0.43478  0.59760  1.0000
  O   O45       1.0  0.07189  0.63711  0.59760  1.0000
  O   O46       1.0  0.92811  0.36289  0.09760  1.0000
  O   O47       1.0  0.63711  0.56522  0.09760  1.0000
  O   O48       1.0  0.56522  0.92811  0.59760  1.0000
  S   S1        1.0  0.71449  0.04556  0.25000  1.0000
  S   S2        1.0  0.66893  0.71449  0.75000  1.0000
  S   S3        1.0  0.04556  0.33107  0.75000  1.0000
  S   S4        1.0  0.95444  0.66893  0.25000  1.0000
  S   S5        1.0  0.33107  0.28551  0.25000  1.0000
  S   S6        1.0  0.28551  0.95444  0.75000  1.0000
