data_image0
_chemical_formula_structural       Zn4Cl4N4Cl4O8C4H4C8H4C4H4C4H4C4
_chemical_formula_sum              "Zn4 Cl8 N4 O8 C24 H16"
_cell_length_a       10.1049
_cell_length_b       25.3888
_cell_length_c       14.7244
_cell_angle_alpha    90
_cell_angle_beta     129.274
_cell_angle_gamma    90

_space_group_name_H-M_alt    "P 1"
_space_group_IT_number       1

loop_
  _space_group_symop_operation_xyz
  'x, y, z'

loop_
  _atom_site_type_symbol
  _atom_site_label
  _atom_site_symmetry_multiplicity
  _atom_site_fract_x
  _atom_site_fract_y
  _atom_site_fract_z
  _atom_site_occupancy
  Zn  Zn1       1.0  0.34296  0.77686  0.46065  1.0000
  Zn  Zn2       1.0  0.65704  0.27686  0.03935  1.0000
  Zn  Zn3       1.0  0.65704  0.22314  0.53935  1.0000
  Zn  Zn4       1.0  0.34296  0.72314  0.96065  1.0000
  Cl  Cl1       1.0  0.31410  0.73035  0.31875  1.0000
  Cl  Cl2       1.0  0.68590  0.23035  0.18125  1.0000
  Cl  Cl3       1.0  0.68590  0.26965  0.68125  1.0000
  Cl  Cl4       1.0  0.31410  0.76965  0.81875  1.0000
  N   N1        1.0  0.11540  0.75848  0.43020  1.0000
  N   N2        1.0  0.88460  0.25848  0.06980  1.0000
  N   N3        1.0  0.88460  0.24152  0.56980  1.0000
  N   N4        1.0  0.11540  0.74152  0.93020  1.0000
  Cl  Cl5       1.0  0.31505  0.86431  0.43180  1.0000
  Cl  Cl6       1.0  0.68495  0.36431  0.06820  1.0000
  Cl  Cl7       1.0  0.68495  0.13569  0.56820  1.0000
  Cl  Cl8       1.0  0.31505  0.63569  0.93180  1.0000
  O   O1        1.0  0.51890  0.74656  0.12590  1.0000
  O   O2        1.0  0.48110  0.24656  0.37410  1.0000
  O   O3        1.0  0.48110  0.25344  0.87410  1.0000
  O   O4        1.0  0.51890  0.75344  0.62590  1.0000
  O   O5        1.0  0.68880  0.71700  0.09410  1.0000
  O   O6        1.0  0.31120  0.21700  0.40590  1.0000
  O   O7        1.0  0.31120  0.28300  0.90590  1.0000
  O   O8        1.0  0.68880  0.78300  0.59410  1.0000
  C   C1        1.0  0.97470  0.74710  0.31920  1.0000
  C   C2        1.0  0.02530  0.24710  0.18080  1.0000
  C   C3        1.0  0.02530  0.25290  0.68080  1.0000
  C   C4        1.0  0.97470  0.75290  0.81920  1.0000
  H   H1        1.0  0.98770  0.73980  0.26340  1.0000
  H   H2        1.0  0.01230  0.23980  0.23660  1.0000
  H   H3        1.0  0.01230  0.26020  0.73660  1.0000
  H   H4        1.0  0.98770  0.76020  0.76340  1.0000
  C   C5        1.0  0.81220  0.74590  0.28580  1.0000
  C   C6        1.0  0.18780  0.24590  0.21420  1.0000
  C   C7        1.0  0.18780  0.25410  0.71420  1.0000
  C   C8        1.0  0.81220  0.75410  0.78580  1.0000
  C   C9        1.0  0.79590  0.75669  0.37000  1.0000
  C   C10       1.0  0.20410  0.25669  0.13000  1.0000
  C   C11       1.0  0.20410  0.24331  0.63000  1.0000
  C   C12       1.0  0.79590  0.74331  0.87000  1.0000
  H   H5        1.0  0.68820  0.75660  0.35000  1.0000
  H   H6        1.0  0.31180  0.25660  0.15000  1.0000
  H   H7        1.0  0.31180  0.24340  0.65000  1.0000
  H   H8        1.0  0.68820  0.74340  0.85000  1.0000
  C   C13       1.0  0.93780  0.76752  0.48330  1.0000
  C   C14       1.0  0.06220  0.26752  0.01670  1.0000
  C   C15       1.0  0.06220  0.23248  0.51670  1.0000
  C   C16       1.0  0.93780  0.73248  0.98330  1.0000
  H   H9        1.0  0.92830  0.77430  0.54110  1.0000
  H   H10       1.0  0.07170  0.27430  0.95890  1.0000
  H   H11       1.0  0.07170  0.22570  0.45890  1.0000
  H   H12       1.0  0.92830  0.72570  0.04110  1.0000
  C   C17       1.0  0.09740  0.76810  0.50930  1.0000
  C   C18       1.0  0.90260  0.26810  0.99070  1.0000
  C   C19       1.0  0.90260  0.23190  0.49070  1.0000
  C   C20       1.0  0.09740  0.73190  0.00930  1.0000
  H   H13       1.0  0.19420  0.77560  0.58560  1.0000
  H   H14       1.0  0.80580  0.27560  0.91440  1.0000
  H   H15       1.0  0.80580  0.22440  0.41440  1.0000
  H   H16       1.0  0.19420  0.72440  0.08560  1.0000
  C   C21       1.0  0.66040  0.73480  0.15760  1.0000
  C   C22       1.0  0.33960  0.23480  0.34240  1.0000
  C   C23       1.0  0.33960  0.26520  0.84240  1.0000
  C   C24       1.0  0.66040  0.76520  0.65760  1.0000
