data_image0
_chemical_formula_structural       Cd3C18H6C6N3O18
_chemical_formula_sum              "Cd3 C24 H6 N3 O18"
_cell_length_a       9.1909
_cell_length_b       9.1909
_cell_length_c       12.766
_cell_angle_alpha    90
_cell_angle_beta     90
_cell_angle_gamma    120

_space_group_name_H-M_alt    "P 1"
_space_group_IT_number       1

loop_
  _space_group_symop_operation_xyz
  'x, y, z'

loop_
  _atom_site_type_symbol
  _atom_site_label
  _atom_site_symmetry_multiplicity
  _atom_site_fract_x
  _atom_site_fract_y
  _atom_site_fract_z
  _atom_site_occupancy
  Cd  Cd1       1.0  0.36260  0.36260  0.00000  1.0000
  Cd  Cd2       1.0  0.63740  0.00000  0.33333  1.0000
  Cd  Cd3       1.0  0.00000  0.63740  0.66667  1.0000
  C   C1        1.0  0.48350  0.68070  0.14430  1.0000
  C   C2        1.0  0.31930  0.80280  0.47763  1.0000
  C   C3        1.0  0.19720  0.51650  0.81097  1.0000
  C   C4        1.0  0.68070  0.48350  0.85570  1.0000
  C   C5        1.0  0.80280  0.31930  0.52237  1.0000
  C   C6        1.0  0.51650  0.19720  0.18903  1.0000
  C   C7        1.0  0.63080  0.72520  0.06940  1.0000
  C   C8        1.0  0.27480  0.90560  0.40273  1.0000
  C   C9        1.0  0.09440  0.36920  0.73607  1.0000
  C   C10       1.0  0.72520  0.63080  0.93060  1.0000
  C   C11       1.0  0.90560  0.27480  0.59727  1.0000
  C   C12       1.0  0.36920  0.09440  0.26393  1.0000
  C   C13       1.0  0.77980  0.88020  0.07040  1.0000
  C   C14       1.0  0.11980  0.89960  0.40373  1.0000
  C   C15       1.0  0.10040  0.22020  0.73707  1.0000
  C   C16       1.0  0.88020  0.77980  0.92960  1.0000
  C   C17       1.0  0.89960  0.11980  0.59627  1.0000
  C   C18       1.0  0.22020  0.10040  0.26293  1.0000
  H   H1        1.0  0.79430  0.96420  0.11700  1.0000
  H   H2        1.0  0.03580  0.83010  0.45033  1.0000
  H   H3        1.0  0.16990  0.20570  0.78367  1.0000
  H   H4        1.0  0.96420  0.79430  0.88300  1.0000
  H   H5        1.0  0.83010  0.03580  0.54967  1.0000
  H   H6        1.0  0.20570  0.16990  0.21633  1.0000
  C   C19       1.0  0.90590  0.90590  0.00000  1.0000
  C   C20       1.0  0.09410  0.00000  0.33333  1.0000
  C   C21       1.0  0.00000  0.09410  0.66667  1.0000
  C   C22       1.0  0.07060  0.07060  0.00000  1.0000
  C   C23       1.0  0.92940  0.00000  0.33333  1.0000
  C   C24       1.0  0.00000  0.92940  0.66667  1.0000
  N   N1        1.0  0.60780  0.60780  0.00000  1.0000
  N   N2        1.0  0.39220  0.00000  0.33333  1.0000
  N   N3        1.0  0.00000  0.39220  0.66667  1.0000
  O   O1        1.0  0.35640  0.53980  0.13150  1.0000
  O   O2        1.0  0.46020  0.81660  0.46483  1.0000
  O   O3        1.0  0.18340  0.64360  0.79817  1.0000
  O   O4        1.0  0.53980  0.35640  0.86850  1.0000
  O   O5        1.0  0.81660  0.46020  0.53517  1.0000
  O   O6        1.0  0.64360  0.18340  0.20183  1.0000
  O   O7        1.0  0.50100  0.78600  0.20970  1.0000
  O   O8        1.0  0.21400  0.71500  0.54303  1.0000
  O   O9        1.0  0.28500  0.49900  0.87637  1.0000
  O   O10       1.0  0.78600  0.50100  0.79030  1.0000
  O   O11       1.0  0.71500  0.21400  0.45697  1.0000
  O   O12       1.0  0.49900  0.28500  0.12363  1.0000
  O   O13       1.0  0.07550  0.19420  0.04390  1.0000
  O   O14       1.0  0.80580  0.88130  0.37723  1.0000
  O   O15       1.0  0.11870  0.92450  0.71057  1.0000
  O   O16       1.0  0.19420  0.07550  0.95610  1.0000
  O   O17       1.0  0.88130  0.80580  0.62277  1.0000
  O   O18       1.0  0.92450  0.11870  0.28943  1.0000
