data_image0
_chemical_formula_structural       Cd3C12H6C12N3O18
_chemical_formula_sum              "Cd3 C24 H6 N3 O18"
_cell_length_a       9.1884
_cell_length_b       9.1884
_cell_length_c       12.743
_cell_angle_alpha    90
_cell_angle_beta     90
_cell_angle_gamma    120

_space_group_name_H-M_alt    "P 1"
_space_group_IT_number       1

loop_
  _space_group_symop_operation_xyz
  'x, y, z'

loop_
  _atom_site_type_symbol
  _atom_site_label
  _atom_site_symmetry_multiplicity
  _atom_site_fract_x
  _atom_site_fract_y
  _atom_site_fract_z
  _atom_site_occupancy
  Cd  Cd1       1.0  0.35988  0.35988  0.00000  1.0000
  Cd  Cd2       1.0  0.64012  0.00000  0.66667  1.0000
  Cd  Cd3       1.0  1.00000  0.64012  0.33333  1.0000
  C   C1        1.0  0.06770  0.06770  0.00000  1.0000
  C   C2        1.0  0.93230  0.00000  0.66667  1.0000
  C   C3        1.0  1.00000  0.93230  0.33333  1.0000
  C   C4        1.0  0.90310  0.90310  0.00000  1.0000
  C   C5        1.0  0.09690  0.00000  0.66667  1.0000
  C   C6        1.0  0.00000  0.09690  0.33333  1.0000
  C   C7        1.0  0.87750  0.77720  0.07094  1.0000
  C   C8        1.0  0.22280  0.10030  0.73761  1.0000
  C   C9        1.0  0.89970  0.12250  0.40427  1.0000
  C   C10       1.0  0.77720  0.87750  0.92906  1.0000
  C   C11       1.0  0.10030  0.22280  0.26239  1.0000
  C   C12       1.0  0.12250  0.89970  0.59573  1.0000
  H   H1        1.0  0.96120  0.79190  0.11790  1.0000
  H   H2        1.0  0.20810  0.16930  0.78457  1.0000
  H   H3        1.0  0.83070  0.03880  0.45123  1.0000
  H   H4        1.0  0.79190  0.96120  0.88210  1.0000
  H   H5        1.0  0.16930  0.20810  0.21543  1.0000
  H   H6        1.0  0.03880  0.83070  0.54877  1.0000
  C   C13       1.0  0.72320  0.62870  0.06965  1.0000
  C   C14       1.0  0.37130  0.09450  0.73632  1.0000
  C   C15       1.0  0.90550  0.27680  0.40298  1.0000
  C   C16       1.0  0.62870  0.72320  0.93035  1.0000
  C   C17       1.0  0.09450  0.37130  0.26368  1.0000
  C   C18       1.0  0.27680  0.90550  0.59702  1.0000
  C   C19       1.0  0.67750  0.48200  0.14443  1.0000
  C   C20       1.0  0.51800  0.19550  0.81110  1.0000
  C   C21       1.0  0.80450  0.32250  0.47776  1.0000
  C   C22       1.0  0.48200  0.67750  0.85557  1.0000
  C   C23       1.0  0.19550  0.51800  0.18890  1.0000
  C   C24       1.0  0.32250  0.80450  0.52224  1.0000
  N   N1        1.0  0.60530  0.60530  0.00000  1.0000
  N   N2        1.0  0.39470  0.00000  0.66667  1.0000
  N   N3        1.0  0.00000  0.39470  0.33333  1.0000
  O   O1        1.0  0.19220  0.07280  0.04345  1.0000
  O   O2        1.0  0.92720  0.11940  0.71012  1.0000
  O   O3        1.0  0.88060  0.80780  0.37678  1.0000
  O   O4        1.0  0.07280  0.19220  0.95655  1.0000
  O   O5        1.0  0.11940  0.92720  0.28988  1.0000
  O   O6        1.0  0.80780  0.88060  0.62322  1.0000
  O   O7        1.0  0.78290  0.49880  0.21107  1.0000
  O   O8        1.0  0.50120  0.28410  0.87774  1.0000
  O   O9        1.0  0.71590  0.21710  0.54440  1.0000
  O   O10       1.0  0.49880  0.78290  0.78893  1.0000
  O   O11       1.0  0.28410  0.50120  0.12226  1.0000
  O   O12       1.0  0.21710  0.71590  0.45560  1.0000
  O   O13       1.0  0.53600  0.35380  0.13272  1.0000
  O   O14       1.0  0.64620  0.18220  0.79939  1.0000
  O   O15       1.0  0.81780  0.46400  0.46605  1.0000
  O   O16       1.0  0.35380  0.53600  0.86728  1.0000
  O   O17       1.0  0.18220  0.64620  0.20061  1.0000
  O   O18       1.0  0.46400  0.81780  0.53395  1.0000
