data_image0
_chemical_formula_structural       Zn8O64C32H8C8H8C8H8C8H8C32H8C8H8C8H8C8H8C48H8C8H8C8H8C8H8C40H8C8H8C8H8C8H8C8
_chemical_formula_sum              "Zn8 O64 C256 H128"
_cell_length_a       16.442
_cell_length_b       17.697
_cell_length_c       27.528
_cell_angle_alpha    90
_cell_angle_beta     90
_cell_angle_gamma    90

_space_group_name_H-M_alt    "P 1"
_space_group_IT_number       1

loop_
  _space_group_symop_operation_xyz
  'x, y, z'

loop_
  _atom_site_type_symbol
  _atom_site_label
  _atom_site_symmetry_multiplicity
  _atom_site_fract_x
  _atom_site_fract_y
  _atom_site_fract_z
  _atom_site_occupancy
  Zn  Zn1       1.0  0.51387  0.24918  0.38413  1.0000
  Zn  Zn2       1.0  0.01387  0.25082  0.61587  1.0000
  Zn  Zn3       1.0  0.48613  0.74918  0.11587  1.0000
  Zn  Zn4       1.0  0.98613  0.75082  0.88413  1.0000
  Zn  Zn5       1.0  0.48613  0.75082  0.61587  1.0000
  Zn  Zn6       1.0  0.98613  0.74918  0.38413  1.0000
  Zn  Zn7       1.0  0.51387  0.25082  0.88413  1.0000
  Zn  Zn8       1.0  0.01387  0.24918  0.11587  1.0000
  O   O1        1.0  0.61604  0.25093  0.34789  1.0000
  O   O2        1.0  0.11604  0.24907  0.65211  1.0000
  O   O3        1.0  0.38396  0.75093  0.15211  1.0000
  O   O4        1.0  0.88396  0.74907  0.84789  1.0000
  O   O5        1.0  0.38396  0.74907  0.65211  1.0000
  O   O6        1.0  0.88396  0.75093  0.34789  1.0000
  O   O7        1.0  0.61604  0.24907  0.84789  1.0000
  O   O8        1.0  0.11604  0.25093  0.15211  1.0000
  O   O9        1.0  0.58926  0.14590  0.30530  1.0000
  O   O10       1.0  0.08926  0.35410  0.69470  1.0000
  O   O11       1.0  0.41074  0.64590  0.19470  1.0000
  O   O12       1.0  0.91074  0.85410  0.80530  1.0000
  O   O13       1.0  0.41074  0.85410  0.69470  1.0000
  O   O14       1.0  0.91074  0.64590  0.30530  1.0000
  O   O15       1.0  0.58926  0.35410  0.80530  1.0000
  O   O16       1.0  0.08926  0.14590  0.19470  1.0000
  O   O17       1.0  0.91503  0.21998  0.15165  1.0000
  O   O18       1.0  0.41503  0.28002  0.84835  1.0000
  O   O19       1.0  0.08497  0.71998  0.34835  1.0000
  O   O20       1.0  0.58497  0.78002  0.65165  1.0000
  O   O21       1.0  0.08497  0.78002  0.84835  1.0000
  O   O22       1.0  0.58497  0.71998  0.15165  1.0000
  O   O23       1.0  0.91503  0.28002  0.65165  1.0000
  O   O24       1.0  0.41503  0.21998  0.34835  1.0000
  O   O25       1.0  0.95249  0.31589  0.19872  1.0000
  O   O26       1.0  0.45249  0.18411  0.80128  1.0000
  O   O27       1.0  0.04751  0.81589  0.30128  1.0000
  O   O28       1.0  0.54751  0.68411  0.69872  1.0000
  O   O29       1.0  0.04751  0.68411  0.80128  1.0000
  O   O30       1.0  0.54751  0.81589  0.19872  1.0000
  O   O31       1.0  0.95249  0.18411  0.69872  1.0000
  O   O32       1.0  0.45249  0.31589  0.30128  1.0000
  O   O33       1.0  0.51520  0.34840  0.41433  1.0000
  O   O34       1.0  0.01520  0.15160  0.58567  1.0000
  O   O35       1.0  0.48480  0.84840  0.08567  1.0000
  O   O36       1.0  0.98480  0.65160  0.91433  1.0000
  O   O37       1.0  0.48480  0.65160  0.58567  1.0000
  O   O38       1.0  0.98480  0.84840  0.41433  1.0000
  O   O39       1.0  0.51520  0.15160  0.91433  1.0000
  O   O40       1.0  0.01520  0.34840  0.08567  1.0000
  O   O41       1.0  0.38590  0.34480  0.43957  1.0000
  O   O42       1.0  0.88590  0.15520  0.56043  1.0000
  O   O43       1.0  0.61410  0.84480  0.06043  1.0000
  O   O44       1.0  0.11410  0.65520  0.93957  1.0000
  O   O45       1.0  0.61410  0.65520  0.56043  1.0000
  O   O46       1.0  0.11410  0.84480  0.43957  1.0000
  O   O47       1.0  0.38590  0.15520  0.93957  1.0000
  O   O48       1.0  0.88590  0.34480  0.06043  1.0000
  O   O49       1.0  0.50873  0.17342  0.43483  1.0000
  O   O50       1.0  0.00873  0.32658  0.56517  1.0000
  O   O51       1.0  0.49127  0.67342  0.06517  1.0000
  O   O52       1.0  0.99127  0.82658  0.93483  1.0000
  O   O53       1.0  0.49127  0.82658  0.56517  1.0000
  O   O54       1.0  0.99127  0.67342  0.43483  1.0000
  O   O55       1.0  0.50873  0.32658  0.93483  1.0000
  O   O56       1.0  0.00873  0.17342  0.06517  1.0000
  O   O57       1.0  0.63531  0.15874  0.46207  1.0000
  O   O58       1.0  0.13531  0.34126  0.53793  1.0000
  O   O59       1.0  0.36469  0.65874  0.03793  1.0000
  O   O60       1.0  0.86469  0.84126  0.96207  1.0000
  O   O61       1.0  0.36469  0.84126  0.53793  1.0000
  O   O62       1.0  0.86469  0.65874  0.46207  1.0000
  O   O63       1.0  0.63531  0.34126  0.96207  1.0000
  O   O64       1.0  0.13531  0.15874  0.03793  1.0000
  C   C1        1.0  0.62911  0.20348  0.31394  1.0000
  C   C2        1.0  0.12911  0.29652  0.68606  1.0000
  C   C3        1.0  0.37089  0.70348  0.18606  1.0000
  C   C4        1.0  0.87089  0.79652  0.81394  1.0000
  C   C5        1.0  0.37089  0.79652  0.68606  1.0000
  C   C6        1.0  0.87089  0.70348  0.31394  1.0000
  C   C7        1.0  0.62911  0.29652  0.81394  1.0000
  C   C8        1.0  0.12911  0.20348  0.18606  1.0000
  C   C9        1.0  0.70128  0.22083  0.28207  1.0000
  C   C10       1.0  0.20128  0.27917  0.71793  1.0000
  C   C11       1.0  0.29872  0.72083  0.21793  1.0000
  C   C12       1.0  0.79872  0.77917  0.78207  1.0000
  C   C13       1.0  0.29872  0.77917  0.71793  1.0000
  C   C14       1.0  0.79872  0.72083  0.28207  1.0000
  C   C15       1.0  0.70128  0.27917  0.78207  1.0000
  C   C16       1.0  0.20128  0.22083  0.21793  1.0000
  C   C17       1.0  0.77848  0.19826  0.29722  1.0000
  C   C18       1.0  0.27848  0.30174  0.70278  1.0000
  C   C19       1.0  0.22152  0.69826  0.20278  1.0000
  C   C20       1.0  0.72152  0.80174  0.79722  1.0000
  C   C21       1.0  0.22152  0.80174  0.70278  1.0000
  C   C22       1.0  0.72152  0.69826  0.29722  1.0000
  C   C23       1.0  0.77848  0.30174  0.79722  1.0000
  C   C24       1.0  0.27848  0.19826  0.20278  1.0000
  C   C25       1.0  0.79242  0.16391  0.34388  1.0000
  C   C26       1.0  0.29242  0.33609  0.65612  1.0000
  C   C27       1.0  0.20758  0.66391  0.15612  1.0000
  C   C28       1.0  0.70758  0.83609  0.84388  1.0000
  C   C29       1.0  0.20758  0.83609  0.65612  1.0000
  C   C30       1.0  0.70758  0.66391  0.34388  1.0000
  C   C31       1.0  0.79242  0.33609  0.84388  1.0000
  C   C32       1.0  0.29242  0.16391  0.15612  1.0000
  H   H1        1.0  0.74780  0.15460  0.36500  1.0000
  H   H2        1.0  0.24780  0.34540  0.63500  1.0000
  H   H3        1.0  0.25220  0.65460  0.13500  1.0000
  H   H4        1.0  0.75220  0.84540  0.86500  1.0000
  H   H5        1.0  0.25220  0.84540  0.63500  1.0000
  H   H6        1.0  0.75220  0.65460  0.36500  1.0000
  H   H7        1.0  0.74780  0.34540  0.86500  1.0000
  H   H8        1.0  0.24780  0.15460  0.13500  1.0000
  C   C33       1.0  0.86853  0.14467  0.35802  1.0000
  C   C34       1.0  0.36853  0.35533  0.64198  1.0000
  C   C35       1.0  0.13147  0.64467  0.14198  1.0000
  C   C36       1.0  0.63147  0.85533  0.85802  1.0000
  C   C37       1.0  0.13147  0.85533  0.64198  1.0000
  C   C38       1.0  0.63147  0.64467  0.35802  1.0000
  C   C39       1.0  0.86853  0.35533  0.85802  1.0000
  C   C40       1.0  0.36853  0.14467  0.14198  1.0000
  H   H9        1.0  0.87680  0.12310  0.38920  1.0000
  H   H10       1.0  0.37680  0.37690  0.61080  1.0000
  H   H11       1.0  0.12320  0.62310  0.11080  1.0000
  H   H12       1.0  0.62320  0.87690  0.88920  1.0000
  H   H13       1.0  0.12320  0.87690  0.61080  1.0000
  H   H14       1.0  0.62320  0.62310  0.38920  1.0000
  H   H15       1.0  0.87680  0.37690  0.88920  1.0000
  H   H16       1.0  0.37680  0.12310  0.11080  1.0000
  C   C41       1.0  0.93586  0.15621  0.32693  1.0000
  C   C42       1.0  0.43586  0.34379  0.67307  1.0000
  C   C43       1.0  0.06414  0.65621  0.17307  1.0000
  C   C44       1.0  0.56414  0.84379  0.82693  1.0000
  C   C45       1.0  0.06414  0.84379  0.67307  1.0000
  C   C46       1.0  0.56414  0.65621  0.32693  1.0000
  C   C47       1.0  0.93586  0.34379  0.82693  1.0000
  C   C48       1.0  0.43586  0.15621  0.17307  1.0000
  H   H17       1.0  0.98880  0.14190  0.33730  1.0000
  H   H18       1.0  0.48880  0.35810  0.66270  1.0000
  H   H19       1.0  0.01120  0.64190  0.16270  1.0000
  H   H20       1.0  0.51120  0.85810  0.83730  1.0000
  H   H21       1.0  0.01120  0.85810  0.66270  1.0000
  H   H22       1.0  0.51120  0.64190  0.33730  1.0000
  H   H23       1.0  0.98880  0.35810  0.83730  1.0000
  H   H24       1.0  0.48880  0.14190  0.16270  1.0000
  C   C49       1.0  0.92536  0.18770  0.28232  1.0000
  C   C50       1.0  0.42536  0.31230  0.71768  1.0000
  C   C51       1.0  0.07464  0.68770  0.21768  1.0000
  C   C52       1.0  0.57464  0.81230  0.78232  1.0000
  C   C53       1.0  0.07464  0.81230  0.71768  1.0000
  C   C54       1.0  0.57464  0.68770  0.28232  1.0000
  C   C55       1.0  0.92536  0.31230  0.78232  1.0000
  C   C56       1.0  0.42536  0.18770  0.21768  1.0000
  H   H25       1.0  0.97100  0.19420  0.26160  1.0000
  H   H26       1.0  0.47100  0.30580  0.73840  1.0000
  H   H27       1.0  0.02900  0.69420  0.23840  1.0000
  H   H28       1.0  0.52900  0.80580  0.76160  1.0000
  H   H29       1.0  0.02900  0.80580  0.73840  1.0000
  H   H30       1.0  0.52900  0.69420  0.26160  1.0000
  H   H31       1.0  0.97100  0.30580  0.76160  1.0000
  H   H32       1.0  0.47100  0.19420  0.23840  1.0000
  C   C57       1.0  0.84707  0.21118  0.26613  1.0000
  C   C58       1.0  0.34707  0.28882  0.73387  1.0000
  C   C59       1.0  0.15293  0.71118  0.23387  1.0000
  C   C60       1.0  0.65293  0.78882  0.76613  1.0000
  C   C61       1.0  0.15293  0.78882  0.73387  1.0000
  C   C62       1.0  0.65293  0.71118  0.26613  1.0000
  C   C63       1.0  0.84707  0.28882  0.76613  1.0000
  C   C64       1.0  0.34707  0.21118  0.23387  1.0000
  C   C65       1.0  0.83470  0.24657  0.22105  1.0000
  C   C66       1.0  0.33470  0.25343  0.77895  1.0000
  C   C67       1.0  0.16530  0.74657  0.27895  1.0000
  C   C68       1.0  0.66530  0.75343  0.72105  1.0000
  C   C69       1.0  0.16530  0.75343  0.77895  1.0000
  C   C70       1.0  0.66530  0.74657  0.22105  1.0000
  C   C71       1.0  0.83470  0.25343  0.72105  1.0000
  C   C72       1.0  0.33470  0.24657  0.27895  1.0000
  C   C73       1.0  0.75778  0.27026  0.20621  1.0000
  C   C74       1.0  0.25778  0.22974  0.79379  1.0000
  C   C75       1.0  0.24222  0.77026  0.29379  1.0000
  C   C76       1.0  0.74222  0.72974  0.70621  1.0000
  C   C77       1.0  0.24222  0.72974  0.79379  1.0000
  C   C78       1.0  0.74222  0.77026  0.20621  1.0000
  C   C79       1.0  0.75778  0.22974  0.70621  1.0000
  C   C80       1.0  0.25778  0.27026  0.29379  1.0000
  C   C81       1.0  0.74471  0.30882  0.16094  1.0000
  C   C82       1.0  0.24471  0.19118  0.83906  1.0000
  C   C83       1.0  0.25529  0.80882  0.33906  1.0000
  C   C84       1.0  0.75529  0.69118  0.66094  1.0000
  C   C85       1.0  0.25529  0.69118  0.83906  1.0000
  C   C86       1.0  0.75529  0.80882  0.16094  1.0000
  C   C87       1.0  0.74471  0.19118  0.66094  1.0000
  C   C88       1.0  0.24471  0.30882  0.33906  1.0000
  H   H33       1.0  0.78900  0.31590  0.13920  1.0000
  H   H34       1.0  0.28900  0.18410  0.86080  1.0000
  H   H35       1.0  0.21100  0.81590  0.36080  1.0000
  H   H36       1.0  0.71100  0.68410  0.63920  1.0000
  H   H37       1.0  0.21100  0.68410  0.86080  1.0000
  H   H38       1.0  0.71100  0.81590  0.13920  1.0000
  H   H39       1.0  0.78900  0.18410  0.63920  1.0000
  H   H40       1.0  0.28900  0.31590  0.36080  1.0000
  C   C89       1.0  0.67021  0.33518  0.14880  1.0000
  C   C90       1.0  0.17021  0.16482  0.85120  1.0000
  C   C91       1.0  0.32979  0.83518  0.35120  1.0000
  C   C92       1.0  0.82979  0.66482  0.64880  1.0000
  C   C93       1.0  0.32979  0.66482  0.85120  1.0000
  C   C94       1.0  0.82979  0.83518  0.14880  1.0000
  C   C95       1.0  0.67021  0.16482  0.64880  1.0000
  C   C96       1.0  0.17021  0.33518  0.35120  1.0000
  H   H41       1.0  0.66260  0.36040  0.11870  1.0000
  H   H42       1.0  0.16260  0.13960  0.88130  1.0000
  H   H43       1.0  0.33740  0.86040  0.38130  1.0000
  H   H44       1.0  0.83740  0.63960  0.61870  1.0000
  H   H45       1.0  0.33740  0.63960  0.88130  1.0000
  H   H46       1.0  0.83740  0.86040  0.11870  1.0000
  H   H47       1.0  0.66260  0.13960  0.61870  1.0000
  H   H48       1.0  0.16260  0.36040  0.38130  1.0000
  C   C97       1.0  0.60326  0.32547  0.18083  1.0000
  C   C98       1.0  0.10326  0.17453  0.81917  1.0000
  C   C99       1.0  0.39674  0.82547  0.31917  1.0000
  C   C100      1.0  0.89674  0.67453  0.68083  1.0000
  C   C101      1.0  0.39674  0.67453  0.81917  1.0000
  C   C102      1.0  0.89674  0.82547  0.18083  1.0000
  C   C103      1.0  0.60326  0.17453  0.68083  1.0000
  C   C104      1.0  0.10326  0.32547  0.31917  1.0000
  H   H49       1.0  0.55150  0.34530  0.17220  1.0000
  H   H50       1.0  0.05150  0.15470  0.82780  1.0000
  H   H51       1.0  0.44850  0.84530  0.32780  1.0000
  H   H52       1.0  0.94850  0.65470  0.67220  1.0000
  H   H53       1.0  0.44850  0.65470  0.82780  1.0000
  H   H54       1.0  0.94850  0.84530  0.17220  1.0000
  H   H55       1.0  0.55150  0.15470  0.67220  1.0000
  H   H56       1.0  0.05150  0.34530  0.32780  1.0000
  C   C105      1.0  0.61237  0.28823  0.22362  1.0000
  C   C106      1.0  0.11237  0.21177  0.77638  1.0000
  C   C107      1.0  0.38763  0.78823  0.27638  1.0000
  C   C108      1.0  0.88763  0.71177  0.72362  1.0000
  C   C109      1.0  0.38763  0.71177  0.77638  1.0000
  C   C110      1.0  0.88763  0.78823  0.22362  1.0000
  C   C111      1.0  0.61237  0.21177  0.72362  1.0000
  C   C112      1.0  0.11237  0.28823  0.27638  1.0000
  H   H57       1.0  0.56680  0.28210  0.24450  1.0000
  H   H58       1.0  0.06680  0.21790  0.75550  1.0000
  H   H59       1.0  0.43320  0.78210  0.25550  1.0000
  H   H60       1.0  0.93320  0.71790  0.74450  1.0000
  H   H61       1.0  0.43320  0.71790  0.75550  1.0000
  H   H62       1.0  0.93320  0.78210  0.24450  1.0000
  H   H63       1.0  0.56680  0.21790  0.74450  1.0000
  H   H64       1.0  0.06680  0.28210  0.25550  1.0000
  C   C113      1.0  0.68932  0.25824  0.23770  1.0000
  C   C114      1.0  0.18932  0.24176  0.76230  1.0000
  C   C115      1.0  0.31068  0.75824  0.26230  1.0000
  C   C116      1.0  0.81068  0.74176  0.73770  1.0000
  C   C117      1.0  0.31068  0.74176  0.76230  1.0000
  C   C118      1.0  0.81068  0.75824  0.23770  1.0000
  C   C119      1.0  0.68932  0.24176  0.73770  1.0000
  C   C120      1.0  0.18932  0.25824  0.26230  1.0000
  C   C121      1.0  0.90634  0.26313  0.18899  1.0000
  C   C122      1.0  0.40634  0.23687  0.81101  1.0000
  C   C123      1.0  0.09366  0.76313  0.31101  1.0000
  C   C124      1.0  0.59366  0.73687  0.68899  1.0000
  C   C125      1.0  0.09366  0.73687  0.81101  1.0000
  C   C126      1.0  0.59366  0.76313  0.18899  1.0000
  C   C127      1.0  0.90634  0.23687  0.68899  1.0000
  C   C128      1.0  0.40634  0.26313  0.31101  1.0000
  C   C129      1.0  0.45514  0.37164  0.43938  1.0000
  C   C130      1.0  0.95514  0.12836  0.56062  1.0000
  C   C131      1.0  0.54486  0.87164  0.06062  1.0000
  C   C132      1.0  0.04486  0.62836  0.93938  1.0000
  C   C133      1.0  0.54486  0.62836  0.56062  1.0000
  C   C134      1.0  0.04486  0.87164  0.43938  1.0000
  C   C135      1.0  0.45514  0.12836  0.93938  1.0000
  C   C136      1.0  0.95514  0.37164  0.06062  1.0000
  C   C137      1.0  0.47641  0.43821  0.47122  1.0000
  C   C138      1.0  0.97641  0.06179  0.52878  1.0000
  C   C139      1.0  0.52359  0.93821  0.02878  1.0000
  C   C140      1.0  0.02359  0.56179  0.97122  1.0000
  C   C141      1.0  0.52359  0.56179  0.52878  1.0000
  C   C142      1.0  0.02359  0.93821  0.47122  1.0000
  C   C143      1.0  0.47641  0.06179  0.97122  1.0000
  C   C144      1.0  0.97641  0.43821  0.02878  1.0000
  C   C145      1.0  0.52271  0.42559  0.51311  1.0000
  C   C146      1.0  0.02271  0.07441  0.48689  1.0000
  C   C147      1.0  0.47729  0.92559  0.98689  1.0000
  C   C148      1.0  0.97729  0.57441  0.01311  1.0000
  C   C149      1.0  0.47729  0.57441  0.48689  1.0000
  C   C150      1.0  0.97729  0.92559  0.51311  1.0000
  C   C151      1.0  0.52271  0.07441  0.01311  1.0000
  C   C152      1.0  0.02271  0.42559  0.98689  1.0000
  C   C153      1.0  0.54775  0.35148  0.52757  1.0000
  C   C154      1.0  0.04775  0.14852  0.47243  1.0000
  C   C155      1.0  0.45225  0.85148  0.97243  1.0000
  C   C156      1.0  0.95225  0.64852  0.02757  1.0000
  C   C157      1.0  0.45225  0.64852  0.47243  1.0000
  C   C158      1.0  0.95225  0.85148  0.52757  1.0000
  C   C159      1.0  0.54775  0.14852  0.02757  1.0000
  C   C160      1.0  0.04775  0.35148  0.97243  1.0000
  H   H65       1.0  0.53320  0.30930  0.50810  1.0000
  H   H66       1.0  0.03320  0.19070  0.49190  1.0000
  H   H67       1.0  0.46680  0.80930  0.99190  1.0000
  H   H68       1.0  0.96680  0.69070  0.00810  1.0000
  H   H69       1.0  0.46680  0.69070  0.49190  1.0000
  H   H70       1.0  0.96680  0.80930  0.50810  1.0000
  H   H71       1.0  0.53320  0.19070  0.00810  1.0000
  H   H72       1.0  0.03320  0.30930  0.99190  1.0000
  C   C161      1.0  0.59197  0.34025  0.56861  1.0000
  C   C162      1.0  0.09197  0.15975  0.43139  1.0000
  C   C163      1.0  0.40803  0.84025  0.93139  1.0000
  C   C164      1.0  0.90803  0.65975  0.06861  1.0000
  C   C165      1.0  0.40803  0.65975  0.43139  1.0000
  C   C166      1.0  0.90803  0.84025  0.56861  1.0000
  C   C167      1.0  0.59197  0.15975  0.06861  1.0000
  C   C168      1.0  0.09197  0.34025  0.93139  1.0000
  H   H73       1.0  0.60790  0.29050  0.57750  1.0000
  H   H74       1.0  0.10790  0.20950  0.42250  1.0000
  H   H75       1.0  0.39210  0.79050  0.92250  1.0000
  H   H76       1.0  0.89210  0.70950  0.07750  1.0000
  H   H77       1.0  0.39210  0.70950  0.42250  1.0000
  H   H78       1.0  0.89210  0.79050  0.57750  1.0000
  H   H79       1.0  0.60790  0.20950  0.07750  1.0000
  H   H80       1.0  0.10790  0.29050  0.92250  1.0000
  C   C169      1.0  0.61447  0.40246  0.59830  1.0000
  C   C170      1.0  0.11447  0.09754  0.40170  1.0000
  C   C171      1.0  0.38553  0.90246  0.90170  1.0000
  C   C172      1.0  0.88553  0.59754  0.09830  1.0000
  C   C173      1.0  0.38553  0.59754  0.40170  1.0000
  C   C174      1.0  0.88553  0.90246  0.59830  1.0000
  C   C175      1.0  0.61447  0.09754  0.09830  1.0000
  C   C176      1.0  0.11447  0.40246  0.90170  1.0000
  H   H81       1.0  0.64460  0.39390  0.62720  1.0000
  H   H82       1.0  0.14460  0.10610  0.37280  1.0000
  H   H83       1.0  0.35540  0.89390  0.87280  1.0000
  H   H84       1.0  0.85540  0.60610  0.12720  1.0000
  H   H85       1.0  0.35540  0.60610  0.37280  1.0000
  H   H86       1.0  0.85540  0.89390  0.62720  1.0000
  H   H87       1.0  0.64460  0.10610  0.12720  1.0000
  H   H88       1.0  0.14460  0.39390  0.87280  1.0000
  C   C177      1.0  0.59324  0.47420  0.58568  1.0000
  C   C178      1.0  0.09324  0.02580  0.41432  1.0000
  C   C179      1.0  0.40676  0.97420  0.91432  1.0000
  C   C180      1.0  0.90676  0.52580  0.08568  1.0000
  C   C181      1.0  0.40676  0.52580  0.41432  1.0000
  C   C182      1.0  0.90676  0.97420  0.58568  1.0000
  C   C183      1.0  0.59324  0.02580  0.08568  1.0000
  C   C184      1.0  0.09324  0.47420  0.91432  1.0000
  H   H89       1.0  0.60930  0.51530  0.60570  1.0000
  H   H90       1.0  0.10930  0.98470  0.39430  1.0000
  H   H91       1.0  0.39070  0.01530  0.89430  1.0000
  H   H92       1.0  0.89070  0.48470  0.10570  1.0000
  H   H93       1.0  0.39070  0.48470  0.39430  1.0000
  H   H94       1.0  0.89070  0.01530  0.60570  1.0000
  H   H95       1.0  0.60930  0.98470  0.10570  1.0000
  H   H96       1.0  0.10930  0.51530  0.89430  1.0000
  C   C185      1.0  0.45291  0.51156  0.45740  1.0000
  C   C186      1.0  0.95291  0.98844  0.54260  1.0000
  C   C187      1.0  0.54709  0.01156  0.04260  1.0000
  C   C188      1.0  0.04709  0.48844  0.95740  1.0000
  C   C189      1.0  0.54709  0.48844  0.54260  1.0000
  C   C190      1.0  0.04709  0.01156  0.45740  1.0000
  C   C191      1.0  0.45291  0.98844  0.95740  1.0000
  C   C192      1.0  0.95291  0.51156  0.04260  1.0000
  C   C193      1.0  0.56390  0.13908  0.45808  1.0000
  C   C194      1.0  0.06390  0.36092  0.54192  1.0000
  C   C195      1.0  0.43610  0.63908  0.04192  1.0000
  C   C196      1.0  0.93610  0.86092  0.95808  1.0000
  C   C197      1.0  0.43610  0.86092  0.54192  1.0000
  C   C198      1.0  0.93610  0.63908  0.45808  1.0000
  C   C199      1.0  0.56390  0.36092  0.95808  1.0000
  C   C200      1.0  0.06390  0.13908  0.04192  1.0000
  C   C201      1.0  0.53397  0.06655  0.48100  1.0000
  C   C202      1.0  0.03397  0.43345  0.51900  1.0000
  C   C203      1.0  0.46603  0.56655  0.01900  1.0000
  C   C204      1.0  0.96603  0.93345  0.98100  1.0000
  C   C205      1.0  0.46603  0.93345  0.51900  1.0000
  C   C206      1.0  0.96603  0.56655  0.48100  1.0000
  C   C207      1.0  0.53397  0.43345  0.98100  1.0000
  C   C208      1.0  0.03397  0.06655  0.01900  1.0000
  C   C209      1.0  0.49042  0.06957  0.52457  1.0000
  C   C210      1.0  0.99042  0.43043  0.47543  1.0000
  C   C211      1.0  0.50958  0.56957  0.97543  1.0000
  C   C212      1.0  0.00958  0.93043  0.02457  1.0000
  C   C213      1.0  0.50958  0.93043  0.47543  1.0000
  C   C214      1.0  0.00958  0.56957  0.52457  1.0000
  C   C215      1.0  0.49042  0.43043  0.02457  1.0000
  C   C216      1.0  0.99042  0.06957  0.97543  1.0000
  C   C217      1.0  0.47851  0.13879  0.55074  1.0000
  C   C218      1.0  0.97851  0.36121  0.44926  1.0000
  C   C219      1.0  0.52149  0.63879  0.94926  1.0000
  C   C220      1.0  0.02149  0.86121  0.05074  1.0000
  C   C221      1.0  0.52149  0.86121  0.44926  1.0000
  C   C222      1.0  0.02149  0.63879  0.55074  1.0000
  C   C223      1.0  0.47851  0.36121  0.05074  1.0000
  C   C224      1.0  0.97851  0.13879  0.94926  1.0000
  H   H97       1.0  0.50050  0.18440  0.53810  1.0000
  H   H98       1.0  0.00050  0.31560  0.46190  1.0000
  H   H99       1.0  0.49950  0.68440  0.96190  1.0000
  H   H100      1.0  0.99950  0.81560  0.03810  1.0000
  H   H101      1.0  0.49950  0.81560  0.46190  1.0000
  H   H102      1.0  0.99950  0.68440  0.53810  1.0000
  H   H103      1.0  0.50050  0.31560  0.03810  1.0000
  H   H104      1.0  0.00050  0.18440  0.96190  1.0000
  C   C225      1.0  0.43671  0.14058  0.59308  1.0000
  C   C226      1.0  0.93671  0.35942  0.40692  1.0000
  C   C227      1.0  0.56329  0.64058  0.90692  1.0000
  C   C228      1.0  0.06329  0.85942  0.09308  1.0000
  C   C229      1.0  0.56329  0.85942  0.40692  1.0000
  C   C230      1.0  0.06329  0.64058  0.59308  1.0000
  C   C231      1.0  0.43671  0.35942  0.09308  1.0000
  C   C232      1.0  0.93671  0.14058  0.90692  1.0000
  H   H105      1.0  0.42900  0.18720  0.60960  1.0000
  H   H106      1.0  0.92900  0.31280  0.39040  1.0000
  H   H107      1.0  0.57100  0.68720  0.89040  1.0000
  H   H108      1.0  0.07100  0.81280  0.10960  1.0000
  H   H109      1.0  0.57100  0.81280  0.39040  1.0000
  H   H110      1.0  0.07100  0.68720  0.60960  1.0000
  H   H111      1.0  0.42900  0.31280  0.10960  1.0000
  H   H112      1.0  0.92900  0.18720  0.89040  1.0000
  C   C233      1.0  0.40434  0.07294  0.61289  1.0000
  C   C234      1.0  0.90434  0.42706  0.38711  1.0000
  C   C235      1.0  0.59566  0.57294  0.88711  1.0000
  C   C236      1.0  0.09566  0.92706  0.11289  1.0000
  C   C237      1.0  0.59566  0.92706  0.38711  1.0000
  C   C238      1.0  0.09566  0.57294  0.61289  1.0000
  C   C239      1.0  0.40434  0.42706  0.11289  1.0000
  C   C240      1.0  0.90434  0.07294  0.88711  1.0000
  H   H113      1.0  0.37590  0.07460  0.64290  1.0000
  H   H114      1.0  0.87590  0.42540  0.35710  1.0000
  H   H115      1.0  0.62410  0.57460  0.85710  1.0000
  H   H116      1.0  0.12410  0.92540  0.14290  1.0000
  H   H117      1.0  0.62410  0.92540  0.35710  1.0000
  H   H118      1.0  0.12410  0.57460  0.64290  1.0000
  H   H119      1.0  0.37590  0.42540  0.14290  1.0000
  H   H120      1.0  0.87590  0.07460  0.85710  1.0000
  C   C241      1.0  0.41340  0.00600  0.58951  1.0000
  C   C242      1.0  0.91340  0.49400  0.41049  1.0000
  C   C243      1.0  0.58660  0.50600  0.91049  1.0000
  C   C244      1.0  0.08660  0.99400  0.08951  1.0000
  C   C245      1.0  0.58660  0.99400  0.41049  1.0000
  C   C246      1.0  0.08660  0.50600  0.58951  1.0000
  C   C247      1.0  0.41340  0.49400  0.08951  1.0000
  C   C248      1.0  0.91340  0.00600  0.91049  1.0000
  H   H121      1.0  0.39120  0.96140  0.60340  1.0000
  H   H122      1.0  0.89120  0.53860  0.39660  1.0000
  H   H123      1.0  0.60880  0.46140  0.89660  1.0000
  H   H124      1.0  0.10880  0.03860  0.10340  1.0000
  H   H125      1.0  0.60880  0.03860  0.39660  1.0000
  H   H126      1.0  0.10880  0.46140  0.60340  1.0000
  H   H127      1.0  0.39120  0.53860  0.10340  1.0000
  H   H128      1.0  0.89120  0.96140  0.89660  1.0000
  C   C249      1.0  0.54402  0.99855  0.45586  1.0000
  C   C250      1.0  0.04402  0.50145  0.54414  1.0000
  C   C251      1.0  0.45598  0.49855  0.04414  1.0000
  C   C252      1.0  0.95598  0.00145  0.95586  1.0000
  C   C253      1.0  0.45598  0.00145  0.54414  1.0000
  C   C254      1.0  0.95598  0.49855  0.45586  1.0000
  C   C255      1.0  0.54402  0.50145  0.95586  1.0000
  C   C256      1.0  0.04402  0.99855  0.04414  1.0000
