data_image0
_chemical_formula_structural       Mn4O28C36H20
_chemical_formula_sum              "Mn4 O28 C36 H20"
_cell_length_a       7.0734
_cell_length_b       9.6325
_cell_length_c       15.3798
_cell_angle_alpha    90
_cell_angle_beta     94.408
_cell_angle_gamma    90

_space_group_name_H-M_alt    "P 1"
_space_group_IT_number       1

loop_
  _space_group_symop_operation_xyz
  'x, y, z'

loop_
  _atom_site_type_symbol
  _atom_site_label
  _atom_site_symmetry_multiplicity
  _atom_site_fract_x
  _atom_site_fract_y
  _atom_site_fract_z
  _atom_site_occupancy
  Mn  Mn1       1.0  0.08638  0.59359  0.36072  1.0000
  Mn  Mn2       1.0  0.41362  0.09359  0.13928  1.0000
  Mn  Mn3       1.0  0.91362  0.40641  0.63928  1.0000
  Mn  Mn4       1.0  0.58638  0.90641  0.86072  1.0000
  O   O1        1.0  0.15897  0.77397  0.43112  1.0000
  O   O2        1.0  0.34103  0.27397  0.06888  1.0000
  O   O3        1.0  0.84103  0.22603  0.56888  1.0000
  O   O4        1.0  0.65897  0.72603  0.93112  1.0000
  O   O5        1.0  0.31490  0.64470  0.27686  1.0000
  O   O6        1.0  0.18510  0.14470  0.22314  1.0000
  O   O7        1.0  0.68510  0.35530  0.72314  1.0000
  O   O8        1.0  0.81490  0.85530  0.77686  1.0000
  O   O9        1.0  0.39519  0.88714  0.73666  1.0000
  O   O10       1.0  0.10481  0.38714  0.76334  1.0000
  O   O11       1.0  0.60481  0.11286  0.26334  1.0000
  O   O12       1.0  0.89519  0.61286  0.23666  1.0000
  O   O13       1.0  0.15814  0.46339  0.56725  1.0000
  O   O14       1.0  0.34186  0.96339  0.93275  1.0000
  O   O15       1.0  0.84186  0.53661  0.43275  1.0000
  O   O16       1.0  0.65814  0.03661  0.06725  1.0000
  O   O17       1.0  0.11163  0.94171  0.33264  1.0000
  O   O18       1.0  0.38837  0.44171  0.16736  1.0000
  O   O19       1.0  0.88837  0.05829  0.66736  1.0000
  O   O20       1.0  0.61163  0.55829  0.83264  1.0000
  O   O21       1.0  0.25551  0.44191  0.43347  1.0000
  O   O22       1.0  0.24449  0.94191  0.06653  1.0000
  O   O23       1.0  0.74449  0.55809  0.56653  1.0000
  O   O24       1.0  0.75551  0.05809  0.93347  1.0000
  O   O25       1.0  0.50688  0.09610  0.76425  1.0000
  O   O26       1.0  0.99312  0.59610  0.73575  1.0000
  O   O27       1.0  0.49312  0.90390  0.23575  1.0000
  O   O28       1.0  0.00688  0.40390  0.26425  1.0000
  C   C1        1.0  0.16220  0.89872  0.40763  1.0000
  C   C2        1.0  0.33780  0.39872  0.09237  1.0000
  C   C3        1.0  0.83780  0.10128  0.59237  1.0000
  C   C4        1.0  0.66220  0.60128  0.90763  1.0000
  C   C5        1.0  0.29230  0.96049  0.55926  1.0000
  C   C6        1.0  0.20770  0.46049  0.94074  1.0000
  C   C7        1.0  0.70770  0.03951  0.44074  1.0000
  C   C8        1.0  0.79230  0.53951  0.05926  1.0000
  C   C9        1.0  0.32580  0.19807  0.60651  1.0000
  C   C10       1.0  0.17420  0.69807  0.89349  1.0000
  C   C11       1.0  0.67420  0.80193  0.39349  1.0000
  C   C12       1.0  0.82580  0.30193  0.10651  1.0000
  C   C13       1.0  0.22290  0.39334  0.50699  1.0000
  C   C14       1.0  0.27710  0.89334  0.99301  1.0000
  C   C15       1.0  0.77710  0.60666  0.49301  1.0000
  C   C16       1.0  0.72290  0.10666  0.00699  1.0000
  C   C17       1.0  0.21470  0.14585  0.45813  1.0000
  C   C18       1.0  0.28530  0.64585  0.04187  1.0000
  C   C19       1.0  0.78530  0.85415  0.54187  1.0000
  C   C20       1.0  0.71470  0.35415  0.95813  1.0000
  C   C21       1.0  0.34640  0.05716  0.62428  1.0000
  C   C22       1.0  0.15360  0.55716  0.87572  1.0000
  C   C23       1.0  0.65360  0.94284  0.37572  1.0000
  C   C24       1.0  0.84640  0.44284  0.12428  1.0000
  C   C25       1.0  0.26040  0.24225  0.52351  1.0000
  C   C26       1.0  0.23960  0.74225  0.97649  1.0000
  C   C27       1.0  0.73960  0.75775  0.47649  1.0000
  C   C28       1.0  0.76040  0.25775  0.02351  1.0000
  C   C29       1.0  0.42040  0.01167  0.71350  1.0000
  C   C30       1.0  0.07960  0.51167  0.78650  1.0000
  C   C31       1.0  0.57960  0.98833  0.28650  1.0000
  C   C32       1.0  0.92040  0.48833  0.21350  1.0000
  C   C33       1.0  0.22710  0.00389  0.47629  1.0000
  C   C34       1.0  0.27290  0.50389  0.02371  1.0000
  C   C35       1.0  0.77290  0.99611  0.52371  1.0000
  C   C36       1.0  0.72710  0.49611  0.97629  1.0000
  H   H1        1.0  0.35000  0.26260  0.64990  1.0000
  H   H2        1.0  0.15000  0.76260  0.85010  1.0000
  H   H3        1.0  0.65000  0.73740  0.35010  1.0000
  H   H4        1.0  0.85000  0.23740  0.14990  1.0000
  H   H5        1.0  0.16600  0.17600  0.40150  1.0000
  H   H6        1.0  0.33400  0.67600  0.09850  1.0000
  H   H7        1.0  0.83400  0.82400  0.59850  1.0000
  H   H8        1.0  0.66600  0.32400  0.90150  1.0000
  H   H9        1.0  0.28900  0.86300  0.57190  1.0000
  H   H10       1.0  0.21100  0.36300  0.92810  1.0000
  H   H11       1.0  0.71100  0.13700  0.42810  1.0000
  H   H12       1.0  0.78900  0.63700  0.07190  1.0000
  H   H13       1.0  0.33600  0.58900  0.23160  1.0000
  H   H14       1.0  0.16400  0.08900  0.26840  1.0000
  H   H15       1.0  0.66400  0.41100  0.76840  1.0000
  H   H16       1.0  0.83600  0.91100  0.73160  1.0000
  H   H17       1.0  0.35600  0.72600  0.26700  1.0000
  H   H18       1.0  0.14400  0.22600  0.23300  1.0000
  H   H19       1.0  0.64400  0.27400  0.73300  1.0000
  H   H20       1.0  0.85600  0.77400  0.76700  1.0000
