data_image0
_chemical_formula_structural       U8O64C8H8C4H8C4H8C12H8C4H8C4H8C12H8C4H8C4H8C4
_chemical_formula_sum              "U8 O64 C60 H72"
_cell_length_a       14.9514
_cell_length_b       10.0218
_cell_length_c       27.1965
_cell_angle_alpha    90
_cell_angle_beta     97.575
_cell_angle_gamma    90

_space_group_name_H-M_alt    "P 1"
_space_group_IT_number       1

loop_
  _space_group_symop_operation_xyz
  'x, y, z'

loop_
  _atom_site_type_symbol
  _atom_site_label
  _atom_site_symmetry_multiplicity
  _atom_site_fract_x
  _atom_site_fract_y
  _atom_site_fract_z
  _atom_site_occupancy
  U   U1        1.0  0.69097  0.10506  0.32815  1.0000
  U   U2        1.0  0.80903  0.60506  0.17185  1.0000
  U   U3        1.0  0.30903  0.89494  0.67185  1.0000
  U   U4        1.0  0.19097  0.39494  0.82815  1.0000
  U   U5        1.0  0.83944  0.02779  0.65179  1.0000
  U   U6        1.0  0.66056  0.52779  0.84821  1.0000
  U   U7        1.0  0.16056  0.97221  0.34821  1.0000
  U   U8        1.0  0.33944  0.47221  0.15179  1.0000
  O   O1        1.0  0.74905  0.10360  0.27567  1.0000
  O   O2        1.0  0.75095  0.60360  0.22433  1.0000
  O   O3        1.0  0.25095  0.89640  0.72433  1.0000
  O   O4        1.0  0.24905  0.39640  0.77567  1.0000
  O   O5        1.0  0.63290  0.10910  0.38159  1.0000
  O   O6        1.0  0.86710  0.60910  0.11841  1.0000
  O   O7        1.0  0.36710  0.89090  0.61841  1.0000
  O   O8        1.0  0.13290  0.39090  0.88159  1.0000
  O   O9        1.0  0.95785  0.02050  0.65345  1.0000
  O   O10       1.0  0.54215  0.52050  0.84655  1.0000
  O   O11       1.0  0.04215  0.97950  0.34655  1.0000
  O   O12       1.0  0.45785  0.47950  0.15345  1.0000
  O   O13       1.0  0.72069  0.03540  0.65014  1.0000
  O   O14       1.0  0.77931  0.53540  0.84986  1.0000
  O   O15       1.0  0.27931  0.96460  0.34986  1.0000
  O   O16       1.0  0.22069  0.46460  0.15014  1.0000
  O   O17       1.0  0.82124  0.99590  0.37699  1.0000
  O   O18       1.0  0.67876  0.49590  0.12301  1.0000
  O   O19       1.0  0.17876  0.00410  0.62301  1.0000
  O   O20       1.0  0.32124  0.50410  0.87699  1.0000
  O   O21       1.0  0.82209  0.21430  0.37573  1.0000
  O   O22       1.0  0.67791  0.71430  0.12427  1.0000
  O   O23       1.0  0.17791  0.78570  0.62427  1.0000
  O   O24       1.0  0.32209  0.28570  0.87573  1.0000
  O   O25       1.0  0.83472  0.13970  0.57143  1.0000
  O   O26       1.0  0.66528  0.63970  0.92857  1.0000
  O   O27       1.0  0.16528  0.86030  0.42857  1.0000
  O   O28       1.0  0.33472  0.36030  0.07143  1.0000
  O   O29       1.0  0.81723  0.92300  0.56861  1.0000
  O   O30       1.0  0.68277  0.42300  0.93139  1.0000
  O   O31       1.0  0.18277  0.07700  0.43139  1.0000
  O   O32       1.0  0.31723  0.57700  0.06861  1.0000
  O   O33       1.0  0.68174  0.35270  0.32629  1.0000
  O   O34       1.0  0.81826  0.85270  0.17371  1.0000
  O   O35       1.0  0.31826  0.64730  0.67371  1.0000
  O   O36       1.0  0.18174  0.14730  0.82629  1.0000
  O   O37       1.0  0.57325  0.24170  0.28240  1.0000
  O   O38       1.0  0.92675  0.74170  0.21760  1.0000
  O   O39       1.0  0.42675  0.75830  0.71760  1.0000
  O   O40       1.0  0.07325  0.25830  0.78240  1.0000
  O   O41       1.0  0.68039  0.86070  0.32601  1.0000
  O   O42       1.0  0.81961  0.36070  0.17399  1.0000
  O   O43       1.0  0.31961  0.13930  0.67399  1.0000
  O   O44       1.0  0.18039  0.63930  0.82601  1.0000
  O   O45       1.0  0.57320  0.96830  0.27999  1.0000
  O   O46       1.0  0.92680  0.46830  0.22001  1.0000
  O   O47       1.0  0.42680  0.03170  0.72001  1.0000
  O   O48       1.0  0.07320  0.53170  0.77999  1.0000
  O   O49       1.0  0.84361  0.27210  0.65767  1.0000
  O   O50       1.0  0.65639  0.77210  0.84233  1.0000
  O   O51       1.0  0.15639  0.72790  0.34233  1.0000
  O   O52       1.0  0.34361  0.22790  0.15767  1.0000
  O   O53       1.0  0.86066  0.16240  0.72765  1.0000
  O   O54       1.0  0.63934  0.66240  0.77235  1.0000
  O   O55       1.0  0.13934  0.83760  0.27235  1.0000
  O   O56       1.0  0.36066  0.33760  0.22765  1.0000
  O   O57       1.0  0.83584  0.78200  0.65600  1.0000
  O   O58       1.0  0.66416  0.28200  0.84400  1.0000
  O   O59       1.0  0.16416  0.21800  0.34400  1.0000
  O   O60       1.0  0.33584  0.71800  0.15600  1.0000
  O   O61       1.0  0.84770  0.88710  0.72689  1.0000
  O   O62       1.0  0.65230  0.38710  0.77311  1.0000
  O   O63       1.0  0.15230  0.11290  0.27311  1.0000
  O   O64       1.0  0.34770  0.61290  0.22689  1.0000
  C   C1        1.0  0.85830  0.10530  0.39123  1.0000
  C   C2        1.0  0.64170  0.60530  0.10877  1.0000
  C   C3        1.0  0.14170  0.89470  0.60877  1.0000
  C   C4        1.0  0.35830  0.39470  0.89123  1.0000
  C   C5        1.0  0.94080  0.10600  0.42921  1.0000
  C   C6        1.0  0.55920  0.60600  0.07079  1.0000
  C   C7        1.0  0.05920  0.89400  0.57079  1.0000
  C   C8        1.0  0.44080  0.39400  0.92921  1.0000
  H   H1        1.0  0.98260  0.17700  0.42120  1.0000
  H   H2        1.0  0.51740  0.67700  0.07880  1.0000
  H   H3        1.0  0.01740  0.82300  0.57880  1.0000
  H   H4        1.0  0.48260  0.32300  0.92120  1.0000
  H   H5        1.0  0.97240  0.01920  0.42870  1.0000
  H   H6        1.0  0.52760  0.51920  0.07130  1.0000
  H   H7        1.0  0.02760  0.98080  0.57130  1.0000
  H   H8        1.0  0.47240  0.48080  0.92870  1.0000
  C   C9        1.0  0.91360  0.13060  0.48104  1.0000
  C   C10       1.0  0.58640  0.63060  0.01896  1.0000
  C   C11       1.0  0.08640  0.86940  0.51896  1.0000
  C   C12       1.0  0.41360  0.36940  0.98104  1.0000
  H   H9        1.0  0.96730  0.12000  0.50620  1.0000
  H   H10       1.0  0.53270  0.62000  0.99380  1.0000
  H   H11       1.0  0.03270  0.88000  0.49380  1.0000
  H   H12       1.0  0.46730  0.38000  0.00620  1.0000
  H   H13       1.0  0.89170  0.22340  0.48300  1.0000
  H   H14       1.0  0.60830  0.72340  0.01700  1.0000
  H   H15       1.0  0.10830  0.77660  0.51700  1.0000
  H   H16       1.0  0.39170  0.27660  0.98300  1.0000
  C   C13       1.0  0.83990  0.03440  0.49274  1.0000
  C   C14       1.0  0.66010  0.53440  0.00726  1.0000
  C   C15       1.0  0.16010  0.96560  0.50726  1.0000
  C   C16       1.0  0.33990  0.46560  0.99274  1.0000
  H   H17       1.0  0.78190  0.06070  0.47340  1.0000
  H   H18       1.0  0.71810  0.56070  0.02660  1.0000
  H   H19       1.0  0.21810  0.93930  0.52660  1.0000
  H   H20       1.0  0.28190  0.43930  0.97340  1.0000
  H   H21       1.0  0.85470  0.94330  0.48220  1.0000
  H   H22       1.0  0.64530  0.44330  0.01780  1.0000
  H   H23       1.0  0.14530  0.05670  0.51780  1.0000
  H   H24       1.0  0.35470  0.55670  0.98220  1.0000
  C   C17       1.0  0.82930  0.03220  0.54685  1.0000
  C   C18       1.0  0.67070  0.53220  0.95315  1.0000
  C   C19       1.0  0.17070  0.96780  0.45315  1.0000
  C   C20       1.0  0.32930  0.46780  0.04685  1.0000
  C   C21       1.0  0.61130  0.35260  0.29560  1.0000
  C   C22       1.0  0.88870  0.85260  0.20440  1.0000
  C   C23       1.0  0.38870  0.64740  0.70440  1.0000
  C   C24       1.0  0.11130  0.14740  0.79560  1.0000
  C   C25       1.0  0.57150  0.47940  0.27297  1.0000
  C   C26       1.0  0.92850  0.97940  0.22703  1.0000
  C   C27       1.0  0.42850  0.52060  0.72703  1.0000
  C   C28       1.0  0.07150  0.02060  0.77297  1.0000
  H   H25       1.0  0.50530  0.47680  0.27290  1.0000
  H   H26       1.0  0.99470  0.97680  0.22710  1.0000
  H   H27       1.0  0.49470  0.52320  0.72710  1.0000
  H   H28       1.0  0.00530  0.02320  0.77290  1.0000
  H   H29       1.0  0.58330  0.48390  0.23800  1.0000
  H   H30       1.0  0.91670  0.98390  0.26200  1.0000
  H   H31       1.0  0.41670  0.51610  0.76200  1.0000
  H   H32       1.0  0.08330  0.01610  0.73800  1.0000
  C   C29       1.0  0.60840  0.60530  0.29970  1.0000
  C   C30       1.0  0.89160  0.10530  0.20030  1.0000
  C   C31       1.0  0.39160  0.39470  0.70030  1.0000
  C   C32       1.0  0.10840  0.89470  0.79970  1.0000
  H   H33       1.0  0.58960  0.60780  0.33330  1.0000
  H   H34       1.0  0.91040  0.10780  0.16670  1.0000
  H   H35       1.0  0.41040  0.39220  0.66670  1.0000
  H   H36       1.0  0.08960  0.89220  0.83330  1.0000
  H   H37       1.0  0.67510  0.60370  0.30350  1.0000
  H   H38       1.0  0.82490  0.10370  0.19650  1.0000
  H   H39       1.0  0.32490  0.39630  0.69650  1.0000
  H   H40       1.0  0.17510  0.89630  0.80350  1.0000
  C   C33       1.0  0.57430  0.72990  0.27129  1.0000
  C   C34       1.0  0.92570  0.22990  0.22871  1.0000
  C   C35       1.0  0.42570  0.27010  0.72871  1.0000
  C   C36       1.0  0.07430  0.77010  0.77129  1.0000
  H   H41       1.0  0.59040  0.72370  0.23720  1.0000
  H   H42       1.0  0.90960  0.22370  0.26280  1.0000
  H   H43       1.0  0.40960  0.27630  0.76280  1.0000
  H   H44       1.0  0.09040  0.77630  0.73720  1.0000
  H   H45       1.0  0.50770  0.73190  0.26870  1.0000
  H   H46       1.0  0.99230  0.23190  0.23130  1.0000
  H   H47       1.0  0.49230  0.26810  0.73130  1.0000
  H   H48       1.0  0.00770  0.76810  0.76870  1.0000
  C   C37       1.0  0.61080  0.85900  0.29399  1.0000
  C   C38       1.0  0.88920  0.35900  0.20601  1.0000
  C   C39       1.0  0.38920  0.14100  0.70601  1.0000
  C   C40       1.0  0.11080  0.64100  0.79399  1.0000
  C   C41       1.0  0.85680  0.27210  0.70447  1.0000
  C   C42       1.0  0.64320  0.77210  0.79553  1.0000
  C   C43       1.0  0.14320  0.72790  0.29553  1.0000
  C   C44       1.0  0.35680  0.22790  0.20447  1.0000
  C   C45       1.0  0.86590  0.40200  0.73257  1.0000
  C   C46       1.0  0.63410  0.90200  0.76743  1.0000
  C   C47       1.0  0.13410  0.59800  0.26743  1.0000
  C   C48       1.0  0.36590  0.09800  0.23257  1.0000
  H   H49       1.0  0.92490  0.40300  0.75390  1.0000
  H   H50       1.0  0.57510  0.90300  0.74610  1.0000
  H   H51       1.0  0.07510  0.59700  0.24610  1.0000
  H   H52       1.0  0.42490  0.09700  0.25390  1.0000
  H   H53       1.0  0.81820  0.40630  0.75460  1.0000
  H   H54       1.0  0.68180  0.90630  0.74540  1.0000
  H   H55       1.0  0.18180  0.59370  0.24540  1.0000
  H   H56       1.0  0.31820  0.09370  0.25460  1.0000
  C   C49       1.0  0.85910  0.52540  0.69986  1.0000
  C   C50       1.0  0.64090  0.02540  0.80014  1.0000
  C   C51       1.0  0.14090  0.47460  0.30014  1.0000
  C   C52       1.0  0.35910  0.97460  0.19986  1.0000
  H   H57       1.0  0.91610  0.53750  0.68560  1.0000
  H   H58       1.0  0.58390  0.03750  0.81440  1.0000
  H   H59       1.0  0.08390  0.46250  0.31440  1.0000
  H   H60       1.0  0.41610  0.96250  0.18560  1.0000
  H   H61       1.0  0.80970  0.51380  0.67220  1.0000
  H   H62       1.0  0.69030  0.01380  0.82780  1.0000
  H   H63       1.0  0.19030  0.48620  0.32780  1.0000
  H   H64       1.0  0.30970  0.98620  0.17220  1.0000
  C   C53       1.0  0.84100  0.64780  0.72990  1.0000
  C   C54       1.0  0.65900  0.14780  0.77010  1.0000
  C   C55       1.0  0.15900  0.35220  0.27010  1.0000
  C   C56       1.0  0.34100  0.85220  0.22990  1.0000
  H   H65       1.0  0.78120  0.63750  0.74140  1.0000
  H   H66       1.0  0.71880  0.13750  0.75860  1.0000
  H   H67       1.0  0.21880  0.36250  0.25860  1.0000
  H   H68       1.0  0.28120  0.86250  0.24140  1.0000
  H   H69       1.0  0.88680  0.65150  0.75970  1.0000
  H   H70       1.0  0.61320  0.15150  0.74030  1.0000
  H   H71       1.0  0.11320  0.34850  0.24030  1.0000
  H   H72       1.0  0.38680  0.84850  0.25970  1.0000
  C   C57       1.0  0.84240  0.77750  0.70284  1.0000
  C   C58       1.0  0.65760  0.27750  0.79716  1.0000
  C   C59       1.0  0.15760  0.22250  0.29716  1.0000
  C   C60       1.0  0.34240  0.72250  0.20284  1.0000
