data_image0
_chemical_formula_structural       U8O64C8H8C12H16C8H8C8H16C4H8C24H16C4H4C4H8C4H4C8H16C4H8C24H16C4H4C4H8C4H4C8H16C4H8C8
_chemical_formula_sum              "U8 O64 C144 H168"
_cell_length_a       36.526
_cell_length_b       9.9335
_cell_length_c       16.4695
_cell_angle_alpha    90
_cell_angle_beta     114.889
_cell_angle_gamma    90

_space_group_name_H-M_alt    "P 1"
_space_group_IT_number       1

loop_
  _space_group_symop_operation_xyz
  'x, y, z'

loop_
  _atom_site_type_symbol
  _atom_site_label
  _atom_site_symmetry_multiplicity
  _atom_site_fract_x
  _atom_site_fract_y
  _atom_site_fract_z
  _atom_site_occupancy
  U   U1        1.0  0.80566  0.50000  0.33382  1.0000
  U   U2        1.0  0.19434  0.50000  0.66618  1.0000
  U   U3        1.0  0.30566  0.00000  0.33382  1.0000
  U   U4        1.0  0.69434  0.00000  0.66618  1.0000
  U   U5        1.0  0.53000  0.50000  0.19915  1.0000
  U   U6        1.0  0.47000  0.50000  0.80085  1.0000
  U   U7        1.0  0.03000  0.00000  0.19915  1.0000
  U   U8        1.0  0.97000  0.00000  0.80085  1.0000
  O   O1        1.0  0.78760  0.50000  0.41880  1.0000
  O   O2        1.0  0.21240  0.50000  0.58120  1.0000
  O   O3        1.0  0.28760  0.00000  0.41880  1.0000
  O   O4        1.0  0.71240  0.00000  0.58120  1.0000
  O   O5        1.0  0.82330  0.50000  0.24910  1.0000
  O   O6        1.0  0.17670  0.50000  0.75090  1.0000
  O   O7        1.0  0.32330  0.00000  0.24910  1.0000
  O   O8        1.0  0.67670  0.00000  0.75090  1.0000
  O   O9        1.0  0.57390  0.50000  0.30180  1.0000
  O   O10       1.0  0.42610  0.50000  0.69820  1.0000
  O   O11       1.0  0.07390  0.00000  0.30180  1.0000
  O   O12       1.0  0.92610  0.00000  0.69820  1.0000
  O   O13       1.0  0.48740  0.50000  0.09480  1.0000
  O   O14       1.0  0.51260  0.50000  0.90520  1.0000
  O   O15       1.0  0.98740  0.00000  0.09480  1.0000
  O   O16       1.0  0.01260  0.00000  0.90520  1.0000
  O   O17       1.0  0.74303  0.39080  0.22760  1.0000
  O   O18       1.0  0.25697  0.39080  0.77240  1.0000
  O   O19       1.0  0.24303  0.89080  0.22760  1.0000
  O   O20       1.0  0.75697  0.89080  0.77240  1.0000
  O   O21       1.0  0.25697  0.60920  0.77240  1.0000
  O   O22       1.0  0.74303  0.60920  0.22760  1.0000
  O   O23       1.0  0.75697  0.10920  0.77240  1.0000
  O   O24       1.0  0.24303  0.10920  0.22760  1.0000
  O   O25       1.0  0.56996  0.39040  0.12780  1.0000
  O   O26       1.0  0.43004  0.39040  0.87220  1.0000
  O   O27       1.0  0.06996  0.89040  0.12780  1.0000
  O   O28       1.0  0.93004  0.89040  0.87220  1.0000
  O   O29       1.0  0.43004  0.60960  0.87220  1.0000
  O   O30       1.0  0.56996  0.60960  0.12780  1.0000
  O   O31       1.0  0.93004  0.10960  0.87220  1.0000
  O   O32       1.0  0.06996  0.10960  0.12780  1.0000
  O   O33       1.0  0.81025  0.74760  0.33680  1.0000
  O   O34       1.0  0.18975  0.74760  0.66320  1.0000
  O   O35       1.0  0.31025  0.24760  0.33680  1.0000
  O   O36       1.0  0.68975  0.24760  0.66320  1.0000
  O   O37       1.0  0.18975  0.25240  0.66320  1.0000
  O   O38       1.0  0.81025  0.25240  0.33680  1.0000
  O   O39       1.0  0.68975  0.75240  0.66320  1.0000
  O   O40       1.0  0.31025  0.75240  0.33680  1.0000
  O   O41       1.0  0.86375  0.63820  0.42620  1.0000
  O   O42       1.0  0.13625  0.63820  0.57380  1.0000
  O   O43       1.0  0.36375  0.13820  0.42620  1.0000
  O   O44       1.0  0.63625  0.13820  0.57380  1.0000
  O   O45       1.0  0.13625  0.36180  0.57380  1.0000
  O   O46       1.0  0.86375  0.36180  0.42620  1.0000
  O   O47       1.0  0.63625  0.86180  0.57380  1.0000
  O   O48       1.0  0.36375  0.86180  0.42620  1.0000
  O   O49       1.0  0.52640  0.75000  0.20330  1.0000
  O   O50       1.0  0.47360  0.75000  0.79670  1.0000
  O   O51       1.0  0.02640  0.25000  0.20330  1.0000
  O   O52       1.0  0.97360  0.25000  0.79670  1.0000
  O   O53       1.0  0.47360  0.25000  0.79670  1.0000
  O   O54       1.0  0.52640  0.25000  0.20330  1.0000
  O   O55       1.0  0.97360  0.75000  0.79670  1.0000
  O   O56       1.0  0.02640  0.75000  0.20330  1.0000
  O   O57       1.0  0.49226  0.63400  0.26160  1.0000
  O   O58       1.0  0.50774  0.63400  0.73840  1.0000
  O   O59       1.0  0.99226  0.13400  0.26160  1.0000
  O   O60       1.0  0.00774  0.13400  0.73840  1.0000
  O   O61       1.0  0.50774  0.36600  0.73840  1.0000
  O   O62       1.0  0.49226  0.36600  0.26160  1.0000
  O   O63       1.0  0.00774  0.86600  0.73840  1.0000
  O   O64       1.0  0.99226  0.86600  0.26160  1.0000
  C   C1        1.0  0.68550  0.50000  0.11050  1.0000
  C   C2        1.0  0.31450  0.50000  0.88950  1.0000
  C   C3        1.0  0.18550  0.00000  0.11050  1.0000
  C   C4        1.0  0.81450  0.00000  0.88950  1.0000
  C   C5        1.0  0.65280  0.50000  0.14120  1.0000
  C   C6        1.0  0.34720  0.50000  0.85880  1.0000
  C   C7        1.0  0.15280  0.00000  0.14120  1.0000
  C   C8        1.0  0.84720  0.00000  0.85880  1.0000
  H   H1        1.0  0.65570  0.41920  0.17860  1.0000
  H   H2        1.0  0.34430  0.41920  0.82140  1.0000
  H   H3        1.0  0.15570  0.91920  0.17860  1.0000
  H   H4        1.0  0.84430  0.91920  0.82140  1.0000
  H   H5        1.0  0.34430  0.58080  0.82140  1.0000
  H   H6        1.0  0.65570  0.58080  0.17860  1.0000
  H   H7        1.0  0.84430  0.08080  0.82140  1.0000
  H   H8        1.0  0.15570  0.08080  0.17860  1.0000
  C   C9        1.0  0.61220  0.50000  0.06640  1.0000
  C   C10       1.0  0.38780  0.50000  0.93360  1.0000
  C   C11       1.0  0.11220  0.00000  0.06640  1.0000
  C   C12       1.0  0.88780  0.00000  0.93360  1.0000
  C   C13       1.0  0.60730  0.37320  0.00720  1.0000
  C   C14       1.0  0.39270  0.37320  0.99280  1.0000
  C   C15       1.0  0.10730  0.87320  0.00720  1.0000
  C   C16       1.0  0.89270  0.87320  0.99280  1.0000
  C   C17       1.0  0.39270  0.62680  0.99280  1.0000
  C   C18       1.0  0.60730  0.62680  0.00720  1.0000
  C   C19       1.0  0.89270  0.12680  0.99280  1.0000
  C   C20       1.0  0.10730  0.12680  0.00720  1.0000
  H   H9        1.0  0.60970  0.29070  0.04290  1.0000
  H   H10       1.0  0.39030  0.29070  0.95710  1.0000
  H   H11       1.0  0.10970  0.79070  0.04290  1.0000
  H   H12       1.0  0.89030  0.79070  0.95710  1.0000
  H   H13       1.0  0.39030  0.70930  0.95710  1.0000
  H   H14       1.0  0.60970  0.70930  0.04290  1.0000
  H   H15       1.0  0.89030  0.20930  0.95710  1.0000
  H   H16       1.0  0.10970  0.20930  0.04290  1.0000
  H   H17       1.0  0.58030  0.37330  0.95630  1.0000
  H   H18       1.0  0.41970  0.37330  0.04370  1.0000
  H   H19       1.0  0.08030  0.87330  0.95630  1.0000
  H   H20       1.0  0.91970  0.87330  0.04370  1.0000
  H   H21       1.0  0.41970  0.62670  0.04370  1.0000
  H   H22       1.0  0.58030  0.62670  0.95630  1.0000
  H   H23       1.0  0.91970  0.12670  0.04370  1.0000
  H   H24       1.0  0.08030  0.12670  0.95630  1.0000
  C   C21       1.0  0.63960  0.37460  0.97280  1.0000
  C   C22       1.0  0.36040  0.37460  0.02720  1.0000
  C   C23       1.0  0.13960  0.87460  0.97280  1.0000
  C   C24       1.0  0.86040  0.87460  0.02720  1.0000
  C   C25       1.0  0.36040  0.62540  0.02720  1.0000
  C   C26       1.0  0.63960  0.62540  0.97280  1.0000
  C   C27       1.0  0.86040  0.12540  0.02720  1.0000
  C   C28       1.0  0.13960  0.12540  0.97280  1.0000
  H   H25       1.0  0.63670  0.29230  0.93570  1.0000
  H   H26       1.0  0.36330  0.29230  0.06430  1.0000
  H   H27       1.0  0.13670  0.79230  0.93570  1.0000
  H   H28       1.0  0.86330  0.79230  0.06430  1.0000
  H   H29       1.0  0.36330  0.70770  0.06430  1.0000
  H   H30       1.0  0.63670  0.70770  0.93570  1.0000
  H   H31       1.0  0.86330  0.20770  0.06430  1.0000
  H   H32       1.0  0.13670  0.20770  0.93570  1.0000
  C   C29       1.0  0.68180  0.37390  0.05290  1.0000
  C   C30       1.0  0.31820  0.37390  0.94710  1.0000
  C   C31       1.0  0.18180  0.87390  0.05290  1.0000
  C   C32       1.0  0.81820  0.87390  0.94710  1.0000
  C   C33       1.0  0.31820  0.62610  0.94710  1.0000
  C   C34       1.0  0.68180  0.62610  0.05290  1.0000
  C   C35       1.0  0.81820  0.12610  0.94710  1.0000
  C   C36       1.0  0.18180  0.12610  0.05290  1.0000
  H   H33       1.0  0.68500  0.29160  0.08920  1.0000
  H   H34       1.0  0.31500  0.29160  0.91080  1.0000
  H   H35       1.0  0.18500  0.79160  0.08920  1.0000
  H   H36       1.0  0.81500  0.79160  0.91080  1.0000
  H   H37       1.0  0.31500  0.70840  0.91080  1.0000
  H   H38       1.0  0.68500  0.70840  0.08920  1.0000
  H   H39       1.0  0.81500  0.20840  0.91080  1.0000
  H   H40       1.0  0.18500  0.20840  0.08920  1.0000
  H   H41       1.0  0.70310  0.37450  0.03070  1.0000
  H   H42       1.0  0.29690  0.37450  0.96930  1.0000
  H   H43       1.0  0.20310  0.87450  0.03070  1.0000
  H   H44       1.0  0.79690  0.87450  0.96930  1.0000
  H   H45       1.0  0.29690  0.62550  0.96930  1.0000
  H   H46       1.0  0.70310  0.62550  0.03070  1.0000
  H   H47       1.0  0.79690  0.12550  0.96930  1.0000
  H   H48       1.0  0.20310  0.12550  0.03070  1.0000
  C   C37       1.0  0.63500  0.50000  0.91480  1.0000
  C   C38       1.0  0.36500  0.50000  0.08520  1.0000
  C   C39       1.0  0.13500  0.00000  0.91480  1.0000
  C   C40       1.0  0.86500  0.00000  0.08520  1.0000
  H   H49       1.0  0.60820  0.50000  0.86320  1.0000
  H   H50       1.0  0.39180  0.50000  0.13680  1.0000
  H   H51       1.0  0.10820  0.00000  0.86320  1.0000
  H   H52       1.0  0.89180  0.00000  0.13680  1.0000
  H   H53       1.0  0.65600  0.50000  0.89160  1.0000
  H   H54       1.0  0.34400  0.50000  0.10840  1.0000
  H   H55       1.0  0.15600  0.00000  0.89160  1.0000
  H   H56       1.0  0.84400  0.00000  0.10840  1.0000
  C   C41       1.0  0.72630  0.50000  0.19200  1.0000
  C   C42       1.0  0.27370  0.50000  0.80800  1.0000
  C   C43       1.0  0.22630  0.00000  0.19200  1.0000
  C   C44       1.0  0.77370  0.00000  0.80800  1.0000
  C   C45       1.0  0.58080  0.50000  0.10600  1.0000
  C   C46       1.0  0.41920  0.50000  0.89400  1.0000
  C   C47       1.0  0.08080  0.00000  0.10600  1.0000
  C   C48       1.0  0.91920  0.00000  0.89400  1.0000
  C   C49       1.0  0.87250  0.87390  0.40260  1.0000
  C   C50       1.0  0.12750  0.87390  0.59740  1.0000
  C   C51       1.0  0.37250  0.37390  0.40260  1.0000
  C   C52       1.0  0.62750  0.37390  0.59740  1.0000
  C   C53       1.0  0.12750  0.12610  0.59740  1.0000
  C   C54       1.0  0.87250  0.12610  0.40260  1.0000
  C   C55       1.0  0.62750  0.62610  0.59740  1.0000
  C   C56       1.0  0.37250  0.62610  0.40260  1.0000
  C   C57       1.0  0.88750  0.87430  0.32690  1.0000
  C   C58       1.0  0.11250  0.87430  0.67310  1.0000
  C   C59       1.0  0.38750  0.37430  0.32690  1.0000
  C   C60       1.0  0.61250  0.37430  0.67310  1.0000
  C   C61       1.0  0.11250  0.12570  0.67310  1.0000
  C   C62       1.0  0.88750  0.12570  0.32690  1.0000
  C   C63       1.0  0.61250  0.62570  0.67310  1.0000
  C   C64       1.0  0.38750  0.62570  0.32690  1.0000
  H   H57       1.0  0.90380  0.79270  0.33140  1.0000
  H   H58       1.0  0.09620  0.79270  0.66860  1.0000
  H   H59       1.0  0.40380  0.29270  0.33140  1.0000
  H   H60       1.0  0.59620  0.29270  0.66860  1.0000
  H   H61       1.0  0.09620  0.20730  0.66860  1.0000
  H   H62       1.0  0.90380  0.20730  0.33140  1.0000
  H   H63       1.0  0.59620  0.70730  0.66860  1.0000
  H   H64       1.0  0.40380  0.70730  0.33140  1.0000
  H   H65       1.0  0.86400  0.87390  0.26770  1.0000
  H   H66       1.0  0.13600  0.87390  0.73230  1.0000
  H   H67       1.0  0.36400  0.37390  0.26770  1.0000
  H   H68       1.0  0.63600  0.37390  0.73230  1.0000
  H   H69       1.0  0.13600  0.12610  0.73230  1.0000
  H   H70       1.0  0.86400  0.12610  0.26770  1.0000
  H   H71       1.0  0.63600  0.62610  0.73230  1.0000
  H   H72       1.0  0.36400  0.62610  0.26770  1.0000
  C   C65       1.0  0.91300  0.00000  0.33590  1.0000
  C   C66       1.0  0.08700  0.00000  0.66410  1.0000
  C   C67       1.0  0.41300  0.50000  0.33590  1.0000
  C   C68       1.0  0.58700  0.50000  0.66410  1.0000
  H   H73       1.0  0.92250  0.00000  0.28710  1.0000
  H   H74       1.0  0.07750  0.00000  0.71290  1.0000
  H   H75       1.0  0.42250  0.50000  0.28710  1.0000
  H   H76       1.0  0.57750  0.50000  0.71290  1.0000
  C   C69       1.0  0.94950  0.00000  0.42610  1.0000
  C   C70       1.0  0.05050  0.00000  0.57390  1.0000
  C   C71       1.0  0.44950  0.50000  0.42610  1.0000
  C   C72       1.0  0.55050  0.50000  0.57390  1.0000
  H   H77       1.0  0.96630  0.08070  0.43150  1.0000
  H   H78       1.0  0.03370  0.08070  0.56850  1.0000
  H   H79       1.0  0.46630  0.58070  0.43150  1.0000
  H   H80       1.0  0.53370  0.58070  0.56850  1.0000
  H   H81       1.0  0.03370  0.91930  0.56850  1.0000
  H   H82       1.0  0.96630  0.91930  0.43150  1.0000
  H   H83       1.0  0.53370  0.41930  0.56850  1.0000
  H   H84       1.0  0.46630  0.41930  0.43150  1.0000
  C   C73       1.0  0.93570  0.00000  0.50140  1.0000
  C   C74       1.0  0.06430  0.00000  0.49860  1.0000
  C   C75       1.0  0.43570  0.50000  0.50140  1.0000
  C   C76       1.0  0.56430  0.50000  0.49860  1.0000
  H   H85       1.0  0.95970  0.00000  0.56060  1.0000
  H   H86       1.0  0.04030  0.00000  0.43940  1.0000
  H   H87       1.0  0.45970  0.50000  0.56060  1.0000
  H   H88       1.0  0.54030  0.50000  0.43940  1.0000
  C   C77       1.0  0.90996  0.87420  0.49320  1.0000
  C   C78       1.0  0.09004  0.87420  0.50680  1.0000
  C   C79       1.0  0.40996  0.37420  0.49320  1.0000
  C   C80       1.0  0.59004  0.37420  0.50680  1.0000
  C   C81       1.0  0.09004  0.12580  0.50680  1.0000
  C   C82       1.0  0.90996  0.12580  0.49320  1.0000
  C   C83       1.0  0.59004  0.62580  0.50680  1.0000
  C   C84       1.0  0.40996  0.62580  0.49320  1.0000
  H   H89       1.0  0.90130  0.87290  0.54260  1.0000
  H   H90       1.0  0.09870  0.87290  0.45740  1.0000
  H   H91       1.0  0.40130  0.37290  0.54260  1.0000
  H   H92       1.0  0.59870  0.37290  0.45740  1.0000
  H   H93       1.0  0.09870  0.12710  0.45740  1.0000
  H   H94       1.0  0.90130  0.12710  0.54260  1.0000
  H   H95       1.0  0.59870  0.62710  0.45740  1.0000
  H   H96       1.0  0.40130  0.62710  0.54260  1.0000
  H   H97       1.0  0.92630  0.79250  0.49810  1.0000
  H   H98       1.0  0.07370  0.79250  0.50190  1.0000
  H   H99       1.0  0.42630  0.29250  0.49810  1.0000
  H   H100      1.0  0.57370  0.29250  0.50190  1.0000
  H   H101      1.0  0.07370  0.20750  0.50190  1.0000
  H   H102      1.0  0.92630  0.20750  0.49810  1.0000
  H   H103      1.0  0.57370  0.70750  0.50190  1.0000
  H   H104      1.0  0.42630  0.70750  0.49810  1.0000
  C   C85       1.0  0.84720  0.00000  0.39370  1.0000
  C   C86       1.0  0.15280  0.00000  0.60630  1.0000
  C   C87       1.0  0.34720  0.50000  0.39370  1.0000
  C   C88       1.0  0.65280  0.50000  0.60630  1.0000
  H   H105      1.0  0.83710  0.00000  0.44090  1.0000
  H   H106      1.0  0.16290  0.00000  0.55910  1.0000
  H   H107      1.0  0.33710  0.50000  0.44090  1.0000
  H   H108      1.0  0.66290  0.50000  0.55910  1.0000
  H   H109      1.0  0.82360  0.00000  0.33480  1.0000
  H   H110      1.0  0.17640  0.00000  0.66520  1.0000
  H   H111      1.0  0.32360  0.50000  0.33480  1.0000
  H   H112      1.0  0.67640  0.50000  0.66520  1.0000
  C   C89       1.0  0.84730  0.74660  0.38920  1.0000
  C   C90       1.0  0.15270  0.74660  0.61080  1.0000
  C   C91       1.0  0.34730  0.24660  0.38920  1.0000
  C   C92       1.0  0.65270  0.24660  0.61080  1.0000
  C   C93       1.0  0.15270  0.25340  0.61080  1.0000
  C   C94       1.0  0.84730  0.25340  0.38920  1.0000
  C   C95       1.0  0.65270  0.75340  0.61080  1.0000
  C   C96       1.0  0.34730  0.75340  0.38920  1.0000
  C   C97       1.0  0.48380  0.87380  0.25680  1.0000
  C   C98       1.0  0.51620  0.87380  0.74320  1.0000
  C   C99       1.0  0.98380  0.37380  0.25680  1.0000
  C   C100      1.0  0.01620  0.37380  0.74320  1.0000
  C   C101      1.0  0.51620  0.12620  0.74320  1.0000
  C   C102      1.0  0.48380  0.12620  0.25680  1.0000
  C   C103      1.0  0.01620  0.62620  0.74320  1.0000
  C   C104      1.0  0.98380  0.62620  0.25680  1.0000
  C   C105      1.0  0.43830  0.87340  0.19570  1.0000
  C   C106      1.0  0.56170  0.87340  0.80430  1.0000
  C   C107      1.0  0.93830  0.37340  0.19570  1.0000
  C   C108      1.0  0.06170  0.37340  0.80430  1.0000
  C   C109      1.0  0.56170  0.12660  0.80430  1.0000
  C   C110      1.0  0.43830  0.12660  0.19570  1.0000
  C   C111      1.0  0.06170  0.62660  0.80430  1.0000
  C   C112      1.0  0.93830  0.62660  0.19570  1.0000
  H   H113      1.0  0.42570  0.79100  0.20640  1.0000
  H   H114      1.0  0.57430  0.79100  0.79360  1.0000
  H   H115      1.0  0.92570  0.29100  0.20640  1.0000
  H   H116      1.0  0.07430  0.29100  0.79360  1.0000
  H   H117      1.0  0.57430  0.20900  0.79360  1.0000
  H   H118      1.0  0.42570  0.20900  0.20640  1.0000
  H   H119      1.0  0.07430  0.70900  0.79360  1.0000
  H   H120      1.0  0.92570  0.70900  0.20640  1.0000
  H   H121      1.0  0.43390  0.87430  0.13210  1.0000
  H   H122      1.0  0.56610  0.87430  0.86790  1.0000
  H   H123      1.0  0.93390  0.37430  0.13210  1.0000
  H   H124      1.0  0.06610  0.37430  0.86790  1.0000
  H   H125      1.0  0.56610  0.12570  0.86790  1.0000
  H   H126      1.0  0.43390  0.12570  0.13210  1.0000
  H   H127      1.0  0.06610  0.62570  0.86790  1.0000
  H   H128      1.0  0.93390  0.62570  0.13210  1.0000
  C   C113      1.0  0.41880  0.00000  0.21660  1.0000
  C   C114      1.0  0.58120  0.00000  0.78340  1.0000
  C   C115      1.0  0.91880  0.50000  0.21660  1.0000
  C   C116      1.0  0.08120  0.50000  0.78340  1.0000
  H   H129      1.0  0.38930  0.00000  0.17640  1.0000
  H   H130      1.0  0.61070  0.00000  0.82360  1.0000
  H   H131      1.0  0.88930  0.50000  0.17640  1.0000
  H   H132      1.0  0.11070  0.50000  0.82360  1.0000
  C   C117      1.0  0.42390  0.00000  0.30940  1.0000
  C   C118      1.0  0.57610  0.00000  0.69060  1.0000
  C   C119      1.0  0.92390  0.50000  0.30940  1.0000
  C   C120      1.0  0.07610  0.50000  0.69060  1.0000
  H   H133      1.0  0.41100  0.91930  0.32100  1.0000
  H   H134      1.0  0.58900  0.91930  0.67900  1.0000
  H   H135      1.0  0.91100  0.41930  0.32100  1.0000
  H   H136      1.0  0.08900  0.41930  0.67900  1.0000
  H   H137      1.0  0.58900  0.08070  0.67900  1.0000
  H   H138      1.0  0.41100  0.08070  0.32100  1.0000
  H   H139      1.0  0.08900  0.58070  0.67900  1.0000
  H   H140      1.0  0.91100  0.58070  0.32100  1.0000
  C   C121      1.0  0.46670  0.00000  0.36980  1.0000
  C   C122      1.0  0.53330  0.00000  0.63020  1.0000
  C   C123      1.0  0.96670  0.50000  0.36980  1.0000
  C   C124      1.0  0.03330  0.50000  0.63020  1.0000
  H   H141      1.0  0.46980  0.00000  0.43310  1.0000
  H   H142      1.0  0.53020  0.00000  0.56690  1.0000
  H   H143      1.0  0.96980  0.50000  0.43310  1.0000
  H   H144      1.0  0.03020  0.50000  0.56690  1.0000
  C   C125      1.0  0.48760  0.87330  0.35330  1.0000
  C   C126      1.0  0.51240  0.87330  0.64670  1.0000
  C   C127      1.0  0.98760  0.37330  0.35330  1.0000
  C   C128      1.0  0.01240  0.37330  0.64670  1.0000
  C   C129      1.0  0.51240  0.12670  0.64670  1.0000
  C   C130      1.0  0.48760  0.12670  0.35330  1.0000
  C   C131      1.0  0.01240  0.62670  0.64670  1.0000
  C   C132      1.0  0.98760  0.62670  0.35330  1.0000
  H   H145      1.0  0.51650  0.87290  0.39580  1.0000
  H   H146      1.0  0.48350  0.87290  0.60420  1.0000
  H   H147      1.0  0.01650  0.37290  0.39580  1.0000
  H   H148      1.0  0.98350  0.37290  0.60420  1.0000
  H   H149      1.0  0.48350  0.12710  0.60420  1.0000
  H   H150      1.0  0.51650  0.12710  0.39580  1.0000
  H   H151      1.0  0.98350  0.62710  0.60420  1.0000
  H   H152      1.0  0.01650  0.62710  0.39580  1.0000
  H   H153      1.0  0.47490  0.79110  0.36370  1.0000
  H   H154      1.0  0.52510  0.79110  0.63630  1.0000
  H   H155      1.0  0.97490  0.29110  0.36370  1.0000
  H   H156      1.0  0.02510  0.29110  0.63630  1.0000
  H   H157      1.0  0.52510  0.20890  0.63630  1.0000
  H   H158      1.0  0.47490  0.20890  0.36370  1.0000
  H   H159      1.0  0.02510  0.70890  0.63630  1.0000
  H   H160      1.0  0.97490  0.70890  0.36370  1.0000
  C   C133      1.0  0.50280  0.00000  0.23980  1.0000
  C   C134      1.0  0.49720  0.00000  0.76020  1.0000
  C   C135      1.0  0.00280  0.50000  0.23980  1.0000
  C   C136      1.0  0.99720  0.50000  0.76020  1.0000
  H   H161      1.0  0.53200  0.00000  0.27930  1.0000
  H   H162      1.0  0.46800  0.00000  0.72070  1.0000
  H   H163      1.0  0.03200  0.50000  0.27930  1.0000
  H   H164      1.0  0.96800  0.50000  0.72070  1.0000
  H   H165      1.0  0.49950  0.00000  0.17700  1.0000
  H   H166      1.0  0.50050  0.00000  0.82300  1.0000
  H   H167      1.0  0.99950  0.50000  0.17700  1.0000
  H   H168      1.0  0.00050  0.50000  0.82300  1.0000
  C   C137      1.0  0.50170  0.74620  0.24100  1.0000
  C   C138      1.0  0.49830  0.74620  0.75900  1.0000
  C   C139      1.0  0.00170  0.24620  0.24100  1.0000
  C   C140      1.0  0.99830  0.24620  0.75900  1.0000
  C   C141      1.0  0.49830  0.25380  0.75900  1.0000
  C   C142      1.0  0.50170  0.25380  0.24100  1.0000
  C   C143      1.0  0.99830  0.75380  0.75900  1.0000
  C   C144      1.0  0.00170  0.75380  0.24100  1.0000
