data_image0
_chemical_formula_structural       U4O36N4C8H8C8H8C4H4C4H8C4H8C4H4C4H8C4H8C8
_chemical_formula_sum              "U4 O36 N4 C48 H56"
_cell_length_a       13.3352
_cell_length_b       15.0239
_cell_length_c       15.5226
_cell_angle_alpha    90
_cell_angle_beta     97.873
_cell_angle_gamma    90

_space_group_name_H-M_alt    "P 1"
_space_group_IT_number       1

loop_
  _space_group_symop_operation_xyz
  'x, y, z'

loop_
  _atom_site_type_symbol
  _atom_site_label
  _atom_site_symmetry_multiplicity
  _atom_site_fract_x
  _atom_site_fract_y
  _atom_site_fract_z
  _atom_site_occupancy
  U   U1        1.0  0.64282  0.25032  0.09130  1.0000
  U   U2        1.0  0.85718  0.75032  0.40870  1.0000
  U   U3        1.0  0.35718  0.74968  0.90870  1.0000
  U   U4        1.0  0.14282  0.24968  0.59130  1.0000
  O   O1        1.0  0.61340  0.35487  0.04161  1.0000
  O   O2        1.0  0.88660  0.85487  0.45839  1.0000
  O   O3        1.0  0.38660  0.64513  0.95839  1.0000
  O   O4        1.0  0.11340  0.14513  0.54161  1.0000
  O   O5        1.0  0.67430  0.14630  0.14018  1.0000
  O   O6        1.0  0.82570  0.64630  0.35982  1.0000
  O   O7        1.0  0.32570  0.85370  0.85982  1.0000
  O   O8        1.0  0.17430  0.35370  0.64018  1.0000
  O   O9        1.0  0.75600  0.31730  0.21147  1.0000
  O   O10       1.0  0.74400  0.81730  0.28853  1.0000
  O   O11       1.0  0.24400  0.68270  0.78853  1.0000
  O   O12       1.0  0.25600  0.18270  0.71147  1.0000
  O   O13       1.0  0.59580  0.30190  0.22826  1.0000
  O   O14       1.0  0.90420  0.80190  0.27174  1.0000
  O   O15       1.0  0.40420  0.69810  0.77174  1.0000
  O   O16       1.0  0.09580  0.19810  0.72826  1.0000
  O   O17       1.0  0.96320  0.27160  0.59866  1.0000
  O   O18       1.0  0.53680  0.77160  0.90134  1.0000
  O   O19       1.0  0.03680  0.72840  0.40134  1.0000
  O   O20       1.0  0.46320  0.22840  0.09866  1.0000
  O   O21       1.0  0.02070  0.32140  0.48163  1.0000
  O   O22       1.0  0.47930  0.82140  0.01837  1.0000
  O   O23       1.0  0.97930  0.67860  0.51837  1.0000
  O   O24       1.0  0.52070  0.17860  0.98163  1.0000
  O   O25       1.0  0.71700  0.20370  0.95598  1.0000
  O   O26       1.0  0.78300  0.70370  0.54402  1.0000
  O   O27       1.0  0.28300  0.79630  0.04402  1.0000
  O   O28       1.0  0.21700  0.29630  0.45598  1.0000
  O   O29       1.0  0.82190  0.26480  0.05710  1.0000
  O   O30       1.0  0.67810  0.76480  0.44290  1.0000
  O   O31       1.0  0.17810  0.73520  0.94290  1.0000
  O   O32       1.0  0.32190  0.23520  0.55710  1.0000
  O   O33       1.0  0.87570  0.21820  0.93870  1.0000
  O   O34       1.0  0.62430  0.71820  0.56130  1.0000
  O   O35       1.0  0.12430  0.78180  0.06130  1.0000
  O   O36       1.0  0.37570  0.28180  0.43870  1.0000
  N   N1        1.0  0.80760  0.22940  0.98160  1.0000
  N   N2        1.0  0.69240  0.72940  0.51840  1.0000
  N   N3        1.0  0.19240  0.77060  0.01840  1.0000
  N   N4        1.0  0.30760  0.27060  0.48160  1.0000
  C   C1        1.0  0.71110  0.34640  0.35460  1.0000
  C   C2        1.0  0.78890  0.84640  0.14540  1.0000
  C   C3        1.0  0.28890  0.65360  0.64540  1.0000
  C   C4        1.0  0.21110  0.15360  0.85460  1.0000
  C   C5        1.0  0.81630  0.31230  0.39300  1.0000
  C   C6        1.0  0.68370  0.81230  0.10700  1.0000
  C   C7        1.0  0.18370  0.68770  0.60700  1.0000
  C   C8        1.0  0.31630  0.18770  0.89300  1.0000
  H   H1        1.0  0.81770  0.24650  0.38940  1.0000
  H   H2        1.0  0.68230  0.74650  0.11060  1.0000
  H   H3        1.0  0.18230  0.75350  0.61060  1.0000
  H   H4        1.0  0.31770  0.25350  0.88940  1.0000
  H   H5        1.0  0.86770  0.33610  0.35880  1.0000
  H   H6        1.0  0.63230  0.83610  0.14120  1.0000
  H   H7        1.0  0.13230  0.66390  0.64120  1.0000
  H   H8        1.0  0.36770  0.16390  0.85880  1.0000
  C   C9        1.0  0.84180  0.34130  0.48820  1.0000
  C   C10       1.0  0.65820  0.84130  0.01180  1.0000
  C   C11       1.0  0.15820  0.65870  0.51180  1.0000
  C   C12       1.0  0.34180  0.15870  0.98820  1.0000
  C   C13       1.0  0.76110  0.30550  0.54170  1.0000
  C   C14       1.0  0.73890  0.80550  0.95830  1.0000
  C   C15       1.0  0.23890  0.69450  0.45830  1.0000
  C   C16       1.0  0.26110  0.19450  0.04170  1.0000
  H   H9        1.0  0.76060  0.23960  0.54020  1.0000
  H   H10       1.0  0.73940  0.73960  0.95980  1.0000
  H   H11       1.0  0.23940  0.76040  0.45980  1.0000
  H   H12       1.0  0.26060  0.26040  0.04020  1.0000
  H   H13       1.0  0.77740  0.32470  0.60300  1.0000
  H   H14       1.0  0.72260  0.82470  0.89700  1.0000
  H   H15       1.0  0.22260  0.67530  0.39700  1.0000
  H   H16       1.0  0.27740  0.17530  0.10300  1.0000
  C   C17       1.0  0.65680  0.34110  0.50370  1.0000
  C   C18       1.0  0.84320  0.84110  0.99630  1.0000
  C   C19       1.0  0.34320  0.65890  0.49630  1.0000
  C   C20       1.0  0.15680  0.15890  0.00370  1.0000
  H   H17       1.0  0.60460  0.31800  0.53860  1.0000
  H   H18       1.0  0.89540  0.81800  0.96140  1.0000
  H   H19       1.0  0.39540  0.68200  0.46140  1.0000
  H   H20       1.0  0.10460  0.18200  0.03860  1.0000
  C   C21       1.0  0.63080  0.31070  0.40900  1.0000
  C   C22       1.0  0.86920  0.81070  0.09100  1.0000
  C   C23       1.0  0.36920  0.68930  0.59100  1.0000
  C   C24       1.0  0.13080  0.18930  0.90900  1.0000
  H   H21       1.0  0.56300  0.33330  0.38480  1.0000
  H   H22       1.0  0.93700  0.83330  0.11520  1.0000
  H   H23       1.0  0.43700  0.66670  0.61520  1.0000
  H   H24       1.0  0.06300  0.16670  0.88480  1.0000
  H   H25       1.0  0.62910  0.24490  0.40640  1.0000
  H   H26       1.0  0.87090  0.74490  0.09360  1.0000
  H   H27       1.0  0.37090  0.75510  0.59360  1.0000
  H   H28       1.0  0.12910  0.25510  0.90640  1.0000
  C   C25       1.0  0.71300  0.44860  0.35830  1.0000
  C   C26       1.0  0.78700  0.94860  0.14170  1.0000
  C   C27       1.0  0.28700  0.55140  0.64170  1.0000
  C   C28       1.0  0.21300  0.05140  0.85830  1.0000
  H   H29       1.0  0.64630  0.47260  0.33270  1.0000
  H   H30       1.0  0.85370  0.97260  0.16730  1.0000
  H   H31       1.0  0.35370  0.52740  0.66730  1.0000
  H   H32       1.0  0.14630  0.02740  0.83270  1.0000
  H   H33       1.0  0.76490  0.47170  0.32410  1.0000
  H   H34       1.0  0.73510  0.97170  0.17590  1.0000
  H   H35       1.0  0.23510  0.52830  0.67590  1.0000
  H   H36       1.0  0.26490  0.02830  0.82410  1.0000
  C   C29       1.0  0.73760  0.47920  0.45400  1.0000
  C   C30       1.0  0.76240  0.97920  0.04600  1.0000
  C   C31       1.0  0.26240  0.52080  0.54600  1.0000
  C   C32       1.0  0.23760  0.02080  0.95400  1.0000
  H   H37       1.0  0.73730  0.54570  0.45650  1.0000
  H   H38       1.0  0.76270  0.04570  0.04350  1.0000
  H   H39       1.0  0.26270  0.45430  0.54350  1.0000
  H   H40       1.0  0.23730  0.95430  0.95650  1.0000
  C   C33       1.0  0.84160  0.44490  0.49180  1.0000
  C   C34       1.0  0.65840  0.94490  0.00820  1.0000
  C   C35       1.0  0.15840  0.55510  0.50820  1.0000
  C   C36       1.0  0.34160  0.05510  0.99180  1.0000
  H   H41       1.0  0.85830  0.46500  0.55280  1.0000
  H   H42       1.0  0.64170  0.96500  0.94720  1.0000
  H   H43       1.0  0.14170  0.53500  0.44720  1.0000
  H   H44       1.0  0.35830  0.03500  0.05280  1.0000
  H   H45       1.0  0.89350  0.46880  0.45810  1.0000
  H   H46       1.0  0.60650  0.96880  0.04190  1.0000
  H   H47       1.0  0.10650  0.53120  0.54190  1.0000
  H   H48       1.0  0.39350  0.03120  0.95810  1.0000
  C   C37       1.0  0.65790  0.44260  0.50690  1.0000
  C   C38       1.0  0.84210  0.94260  0.99310  1.0000
  C   C39       1.0  0.34210  0.55740  0.49310  1.0000
  C   C40       1.0  0.15790  0.05740  0.00690  1.0000
  H   H49       1.0  0.67330  0.46270  0.56800  1.0000
  H   H50       1.0  0.82670  0.96270  0.93200  1.0000
  H   H51       1.0  0.32670  0.53730  0.43200  1.0000
  H   H52       1.0  0.17330  0.03730  0.06800  1.0000
  H   H53       1.0  0.59030  0.46580  0.48300  1.0000
  H   H54       1.0  0.90970  0.96580  0.01700  1.0000
  H   H55       1.0  0.40970  0.53420  0.51700  1.0000
  H   H56       1.0  0.09030  0.03420  0.98300  1.0000
  C   C41       1.0  0.68750  0.32040  0.26050  1.0000
  C   C42       1.0  0.81250  0.82040  0.23950  1.0000
  C   C43       1.0  0.31250  0.67960  0.73950  1.0000
  C   C44       1.0  0.18750  0.17960  0.76050  1.0000
  C   C45       1.0  0.94700  0.30850  0.52470  1.0000
  C   C46       1.0  0.55300  0.80850  0.97530  1.0000
  C   C47       1.0  0.05300  0.69150  0.47530  1.0000
  C   C48       1.0  0.44700  0.19150  0.02470  1.0000
