data_image0
_chemical_formula_structural       U4O32C4H4C4H4C2H2C2H4C2H4C2H2C2H4C2H4C8H4C4H4C2H2C2H4C2H4C2H2C2H4C2H4C8H4C4H4C2H2C2H4C2H4C2H2C2H4C2H4C4
_chemical_formula_sum              "U4 O32 C72 H84"
_cell_length_a       10.0202
_cell_length_b       18.0979
_cell_length_c       21.7247
_cell_angle_alpha    90
_cell_angle_beta     97.154
_cell_angle_gamma    90

_space_group_name_H-M_alt    "P 1"
_space_group_IT_number       1

loop_
  _space_group_symop_operation_xyz
  'x, y, z'

loop_
  _atom_site_type_symbol
  _atom_site_label
  _atom_site_symmetry_multiplicity
  _atom_site_fract_x
  _atom_site_fract_y
  _atom_site_fract_z
  _atom_site_occupancy
  U   U1        1.0  0.06068  0.79395  0.20284  1.0000
  U   U2        1.0  0.93932  0.29395  0.79716  1.0000
  U   U3        1.0  0.01565  0.31174  0.29322  1.0000
  U   U4        1.0  0.98435  0.81174  0.70678  1.0000
  O   O1        1.0  0.07790  0.73830  0.26910  1.0000
  O   O2        1.0  0.92210  0.23830  0.73090  1.0000
  O   O3        1.0  0.04500  0.84940  0.13520  1.0000
  O   O4        1.0  0.95500  0.34940  0.86480  1.0000
  O   O5        1.0  0.02520  0.39240  0.33960  1.0000
  O   O6        1.0  0.97480  0.89240  0.66040  1.0000
  O   O7        1.0  0.00400  0.23020  0.24710  1.0000
  O   O8        1.0  0.99600  0.73020  0.75290  1.0000
  O   O9        1.0  0.15050  0.68980  0.14860  1.0000
  O   O10       1.0  0.84950  0.18980  0.85140  1.0000
  O   O11       1.0  0.93160  0.69980  0.14070  1.0000
  O   O12       1.0  0.06840  0.19980  0.85930  1.0000
  O   O13       1.0  0.10780  0.37980  0.21160  1.0000
  O   O14       1.0  0.89220  0.87980  0.78840  1.0000
  O   O15       1.0  0.88920  0.38140  0.20440  1.0000
  O   O16       1.0  0.11080  0.88140  0.79560  1.0000
  O   O17       1.0  0.81680  0.80000  0.21060  1.0000
  O   O18       1.0  0.18320  0.30000  0.78940  1.0000
  O   O19       1.0  0.93730  0.88970  0.25420  1.0000
  O   O20       1.0  0.06270  0.38970  0.74580  1.0000
  O   O21       1.0  0.21260  0.88350  0.26000  1.0000
  O   O22       1.0  0.78740  0.38350  0.74000  1.0000
  O   O23       1.0  0.30930  0.80300  0.20420  1.0000
  O   O24       1.0  0.69070  0.30300  0.79580  1.0000
  O   O25       1.0  0.76810  0.30960  0.29960  1.0000
  O   O26       1.0  0.23190  0.80960  0.70040  1.0000
  O   O27       1.0  0.89750  0.24800  0.37020  1.0000
  O   O28       1.0  0.10250  0.74800  0.62980  1.0000
  O   O29       1.0  0.17270  0.25040  0.37190  1.0000
  O   O30       1.0  0.82730  0.75040  0.62810  1.0000
  O   O31       1.0  0.26460  0.30870  0.29910  1.0000
  O   O32       1.0  0.73540  0.80870  0.70090  1.0000
  C   C1        1.0  0.01990  0.58710  0.10170  1.0000
  C   C2        1.0  0.98010  0.08710  0.89830  1.0000
  C   C3        1.0  0.01370  0.53150  0.15580  1.0000
  C   C4        1.0  0.98630  0.03150  0.84420  1.0000
  H   H1        1.0  0.09720  0.53460  0.18530  1.0000
  H   H2        1.0  0.90280  0.03460  0.81470  1.0000
  H   H3        1.0  0.93660  0.54340  0.17850  1.0000
  H   H4        1.0  0.06340  0.04340  0.82150  1.0000
  C   C5        1.0  0.99740  0.45320  0.12830  1.0000
  C   C6        1.0  0.00260  0.95320  0.87170  1.0000
  C   C7        1.0  0.11800  0.43530  0.09360  1.0000
  C   C8        1.0  0.88200  0.93530  0.90640  1.0000
  H   H5        1.0  0.20240  0.43860  0.12240  1.0000
  H   H6        1.0  0.79760  0.93860  0.87760  1.0000
  H   H7        1.0  0.10970  0.38430  0.07710  1.0000
  H   H8        1.0  0.89030  0.88430  0.92290  1.0000
  C   C9        1.0  0.12240  0.48970  0.04040  1.0000
  C   C10       1.0  0.87760  0.98970  0.95960  1.0000
  H   H9        1.0  0.20020  0.47740  0.01750  1.0000
  H   H10       1.0  0.79980  0.97740  0.98250  1.0000
  C   C11       1.0  0.14100  0.56820  0.06760  1.0000
  C   C12       1.0  0.85900  0.06820  0.93240  1.0000
  H   H11       1.0  0.22500  0.57070  0.09680  1.0000
  H   H12       1.0  0.77500  0.07070  0.90320  1.0000
  H   H13       1.0  0.14760  0.60430  0.03380  1.0000
  H   H14       1.0  0.85240  0.10430  0.96620  1.0000
  C   C13       1.0  0.88880  0.58160  0.05620  1.0000
  C   C14       1.0  0.11120  0.08160  0.94380  1.0000
  H   H15       1.0  0.81060  0.59350  0.07810  1.0000
  H   H16       1.0  0.18940  0.09350  0.92190  1.0000
  H   H17       1.0  0.89130  0.61770  0.02200  1.0000
  H   H18       1.0  0.10870  0.11770  0.97800  1.0000
  C   C15       1.0  0.87430  0.50360  0.02980  1.0000
  C   C16       1.0  0.12570  0.00360  0.97020  1.0000
  H   H19       1.0  0.79000  0.50050  0.00010  1.0000
  H   H20       1.0  0.21000  0.00050  0.99990  1.0000
  C   C17       1.0  0.86570  0.44800  0.08360  1.0000
  C   C18       1.0  0.13430  0.94800  0.91640  1.0000
  H   H21       1.0  0.78800  0.46010  0.10580  1.0000
  H   H22       1.0  0.21200  0.96010  0.89420  1.0000
  H   H23       1.0  0.85360  0.39710  0.06690  1.0000
  H   H24       1.0  0.14640  0.89710  0.93310  1.0000
  C   C19       1.0  0.99310  0.48530  0.99610  1.0000
  C   C20       1.0  0.00690  0.98530  0.00390  1.0000
  H   H25       1.0  0.99700  0.52060  0.96150  1.0000
  H   H26       1.0  0.00300  0.02060  0.03850  1.0000
  H   H27       1.0  0.98240  0.43500  0.97840  1.0000
  H   H28       1.0  0.01760  0.93500  0.02160  1.0000
  C   C21       1.0  0.03480  0.66360  0.13160  1.0000
  C   C22       1.0  0.96520  0.16360  0.86840  1.0000
  C   C23       1.0  0.99600  0.40050  0.18430  1.0000
  C   C24       1.0  0.00400  0.90050  0.81570  1.0000
  C   C25       1.0  0.70530  0.88860  0.27060  1.0000
  C   C26       1.0  0.29470  0.38860  0.72940  1.0000
  C   C27       1.0  0.57130  0.85600  0.23830  1.0000
  C   C28       1.0  0.42870  0.35600  0.76170  1.0000
  H   H29       1.0  0.55890  0.87030  0.19400  1.0000
  H   H30       1.0  0.44110  0.37030  0.80600  1.0000
  H   H31       1.0  0.57400  0.80140  0.24090  1.0000
  H   H32       1.0  0.42600  0.30140  0.75910  1.0000
  C   C29       1.0  0.45390  0.88540  0.27020  1.0000
  C   C30       1.0  0.54610  0.38540  0.72980  1.0000
  C   C31       1.0  0.45250  0.97180  0.26570  1.0000
  C   C32       1.0  0.54750  0.47180  0.73430  1.0000
  H   H33       1.0  0.44220  0.98700  0.22160  1.0000
  H   H34       1.0  0.55780  0.48700  0.77840  1.0000
  H   H35       1.0  0.37540  0.99170  0.28480  1.0000
  H   H36       1.0  0.62460  0.49170  0.71520  1.0000
  C   C33       1.0  0.58460  0.00300  0.29930  1.0000
  C   C34       1.0  0.41540  0.50300  0.70070  1.0000
  H   H37       1.0  0.58280  0.05820  0.29670  1.0000
  H   H38       1.0  0.41720  0.55820  0.70330  1.0000
  C   C35       1.0  0.70160  0.97340  0.26670  1.0000
  C   C36       1.0  0.29840  0.47340  0.73330  1.0000
  H   H39       1.0  0.68960  0.98890  0.22260  1.0000
  H   H40       1.0  0.31040  0.48890  0.77740  1.0000
  H   H41       1.0  0.78780  0.99400  0.28670  1.0000
  H   H42       1.0  0.21220  0.49400  0.71330  1.0000
  C   C37       1.0  0.72410  0.86590  0.33940  1.0000
  C   C38       1.0  0.27590  0.36590  0.66060  1.0000
  H   H43       1.0  0.81040  0.88560  0.36010  1.0000
  H   H44       1.0  0.18960  0.38560  0.63990  1.0000
  H   H45       1.0  0.72660  0.81130  0.34280  1.0000
  H   H46       1.0  0.27340  0.31130  0.65720  1.0000
  C   C39       1.0  0.60560  0.89680  0.37170  1.0000
  C   C40       1.0  0.39440  0.39680  0.62830  1.0000
  H   H47       1.0  0.61810  0.88240  0.41650  1.0000
  H   H48       1.0  0.38190  0.38240  0.58350  1.0000
  C   C41       1.0  0.47350  0.86410  0.33980  1.0000
  C   C42       1.0  0.52650  0.36410  0.66020  1.0000
  H   H49       1.0  0.39720  0.88310  0.36000  1.0000
  H   H50       1.0  0.60280  0.38310  0.64000  1.0000
  H   H51       1.0  0.47540  0.80960  0.34400  1.0000
  H   H52       1.0  0.52460  0.30960  0.65600  1.0000
  C   C43       1.0  0.60430  0.98000  0.36610  1.0000
  C   C44       1.0  0.39570  0.48000  0.63390  1.0000
  H   H53       1.0  0.53060  0.00040  0.38740  1.0000
  H   H54       1.0  0.46940  0.50040  0.61260  1.0000
  H   H55       1.0  0.69030  0.00030  0.38660  1.0000
  H   H56       1.0  0.30970  0.50030  0.61340  1.0000
  C   C45       1.0  0.82630  0.85740  0.24320  1.0000
  C   C46       1.0  0.17370  0.35740  0.75680  1.0000
  C   C47       1.0  0.31970  0.85520  0.24260  1.0000
  C   C48       1.0  0.68030  0.35520  0.75740  1.0000
  C   C49       1.0  0.66560  0.25910  0.38590  1.0000
  C   C50       1.0  0.33440  0.75910  0.61410  1.0000
  C   C51       1.0  0.52890  0.27120  0.34680  1.0000
  C   C52       1.0  0.47110  0.77120  0.65320  1.0000
  H   H57       1.0  0.52380  0.32230  0.33050  1.0000
  H   H58       1.0  0.47620  0.82230  0.66950  1.0000
  H   H59       1.0  0.51970  0.23680  0.31100  1.0000
  H   H60       1.0  0.48030  0.73680  0.68900  1.0000
  C   C53       1.0  0.41400  0.25800  0.38590  1.0000
  C   C54       1.0  0.58600  0.75800  0.61410  1.0000
  C   C55       1.0  0.42180  0.17830  0.41220  1.0000
  C   C56       1.0  0.57820  0.67830  0.58780  1.0000
  H   H61       1.0  0.34770  0.17000  0.43760  1.0000
  H   H62       1.0  0.65230  0.67000  0.56240  1.0000
  H   H63       1.0  0.41220  0.14220  0.37770  1.0000
  H   H64       1.0  0.58780  0.64220  0.62230  1.0000
  C   C57       1.0  0.55670  0.16730  0.45190  1.0000
  C   C58       1.0  0.44330  0.66730  0.54810  1.0000
  H   H65       1.0  0.56170  0.11570  0.46850  1.0000
  H   H66       1.0  0.43830  0.61570  0.53150  1.0000
  C   C59       1.0  0.67210  0.17930  0.41210  1.0000
  C   C60       1.0  0.32790  0.67930  0.58790  1.0000
  H   H67       1.0  0.66420  0.14340  0.37750  1.0000
  H   H68       1.0  0.33580  0.64340  0.62250  1.0000
  H   H69       1.0  0.75970  0.17130  0.43770  1.0000
  H   H70       1.0  0.24030  0.67130  0.56230  1.0000
  C   C61       1.0  0.67910  0.31320  0.44060  1.0000
  C   C62       1.0  0.32090  0.81320  0.55940  1.0000
  H   H71       1.0  0.67410  0.36460  0.42490  1.0000
  H   H72       1.0  0.32590  0.86460  0.57510  1.0000
  H   H73       1.0  0.76740  0.30630  0.46590  1.0000
  H   H74       1.0  0.23260  0.80630  0.53410  1.0000
  C   C63       1.0  0.56560  0.29940  0.48060  1.0000
  C   C64       1.0  0.43440  0.79940  0.51940  1.0000
  H   H75       1.0  0.57550  0.33450  0.51640  1.0000
  H   H76       1.0  0.42450  0.83450  0.48360  1.0000
  C   C65       1.0  0.43120  0.31290  0.44130  1.0000
  C   C66       1.0  0.56880  0.81290  0.55870  1.0000
  H   H77       1.0  0.42740  0.36430  0.42560  1.0000
  H   H78       1.0  0.57260  0.86430  0.57440  1.0000
  H   H79       1.0  0.35710  0.30610  0.46700  1.0000
  H   H80       1.0  0.64290  0.80610  0.53300  1.0000
  C   C67       1.0  0.57130  0.22040  0.50510  1.0000
  C   C68       1.0  0.42870  0.72040  0.49490  1.0000
  H   H81       1.0  0.65810  0.21190  0.53120  1.0000
  H   H82       1.0  0.34190  0.71190  0.46880  1.0000
  H   H83       1.0  0.49800  0.21240  0.53100  1.0000
  H   H84       1.0  0.50200  0.71240  0.46900  1.0000
  C   C69       1.0  0.78320  0.27240  0.34950  1.0000
  C   C70       1.0  0.21680  0.77240  0.65050  1.0000
  C   C71       1.0  0.27740  0.27220  0.34930  1.0000
  C   C72       1.0  0.72260  0.77220  0.65070  1.0000
