data_image0
_chemical_formula_structural       C64H64C32H64O160P32Zn32
_chemical_formula_sum              "C96 H128 O160 P32 Zn32"
_cell_length_a       22.3019
_cell_length_b       22.3019
_cell_length_c       17.7384
_cell_angle_alpha    90
_cell_angle_beta     90
_cell_angle_gamma    90

_space_group_name_H-M_alt    "P 1"
_space_group_IT_number       1

loop_
  _space_group_symop_operation_xyz
  'x, y, z'

loop_
  _atom_site_type_symbol
  _atom_site_label
  _atom_site_symmetry_multiplicity
  _atom_site_fract_x
  _atom_site_fract_y
  _atom_site_fract_z
  _atom_site_occupancy
  C   C1        1.0  0.30570  0.23380  0.16940  1.0000
  C   C2        1.0  0.69430  0.26620  0.16940  1.0000
  C   C3        1.0  0.30570  0.76620  0.33060  1.0000
  C   C4        1.0  0.19430  0.23380  0.83060  1.0000
  C   C5        1.0  0.01620  0.94430  0.08060  1.0000
  C   C6        1.0  0.98380  0.55570  0.08060  1.0000
  C   C7        1.0  0.48380  0.94430  0.91940  1.0000
  C   C8        1.0  0.01620  0.05570  0.41940  1.0000
  C   C9        1.0  0.80570  0.73380  0.66940  1.0000
  C   C10       1.0  0.19430  0.76620  0.66940  1.0000
  C   C11       1.0  0.80570  0.26620  0.83060  1.0000
  C   C12       1.0  0.69430  0.73380  0.33060  1.0000
  C   C13       1.0  0.51620  0.44430  0.58060  1.0000
  C   C14       1.0  0.48380  0.05570  0.58060  1.0000
  C   C15       1.0  0.98380  0.44430  0.41940  1.0000
  C   C16       1.0  0.51620  0.55570  0.91940  1.0000
  C   C17       1.0  0.69430  0.76620  0.83060  1.0000
  C   C18       1.0  0.30570  0.73380  0.83060  1.0000
  C   C19       1.0  0.69430  0.23380  0.66940  1.0000
  C   C20       1.0  0.80570  0.76620  0.16940  1.0000
  C   C21       1.0  0.98380  0.05570  0.91940  1.0000
  C   C22       1.0  0.01620  0.44430  0.91940  1.0000
  C   C23       1.0  0.51620  0.05570  0.08060  1.0000
  C   C24       1.0  0.98380  0.94430  0.58060  1.0000
  C   C25       1.0  0.19430  0.26620  0.33060  1.0000
  C   C26       1.0  0.80570  0.23380  0.33060  1.0000
  C   C27       1.0  0.19430  0.73380  0.16940  1.0000
  C   C28       1.0  0.30570  0.26620  0.66940  1.0000
  C   C29       1.0  0.48380  0.55570  0.41940  1.0000
  C   C30       1.0  0.51620  0.94430  0.41940  1.0000
  C   C31       1.0  0.01620  0.55570  0.58060  1.0000
  C   C32       1.0  0.48380  0.44430  0.08060  1.0000
  C   C33       1.0  0.30310  0.30180  0.17880  1.0000
  C   C34       1.0  0.69690  0.19820  0.17880  1.0000
  C   C35       1.0  0.30310  0.69820  0.32120  1.0000
  C   C36       1.0  0.19690  0.30180  0.82120  1.0000
  C   C37       1.0  0.94820  0.94690  0.07120  1.0000
  C   C38       1.0  0.05180  0.55310  0.07120  1.0000
  C   C39       1.0  0.55180  0.94690  0.92880  1.0000
  C   C40       1.0  0.94820  0.05310  0.42880  1.0000
  C   C41       1.0  0.80310  0.80180  0.67880  1.0000
  C   C42       1.0  0.19690  0.69820  0.67880  1.0000
  C   C43       1.0  0.80310  0.19820  0.82120  1.0000
  C   C44       1.0  0.69690  0.80180  0.32120  1.0000
  C   C45       1.0  0.44820  0.44690  0.57120  1.0000
  C   C46       1.0  0.55180  0.05310  0.57120  1.0000
  C   C47       1.0  0.05180  0.44690  0.42880  1.0000
  C   C48       1.0  0.44820  0.55310  0.92880  1.0000
  C   C49       1.0  0.69690  0.69820  0.82120  1.0000
  C   C50       1.0  0.30310  0.80180  0.82120  1.0000
  C   C51       1.0  0.69690  0.30180  0.67880  1.0000
  C   C52       1.0  0.80310  0.69820  0.17880  1.0000
  C   C53       1.0  0.05180  0.05310  0.92880  1.0000
  C   C54       1.0  0.94820  0.44690  0.92880  1.0000
  C   C55       1.0  0.44820  0.05310  0.07120  1.0000
  C   C56       1.0  0.05180  0.94690  0.57120  1.0000
  C   C57       1.0  0.19690  0.19820  0.32120  1.0000
  C   C58       1.0  0.80310  0.30180  0.32120  1.0000
  C   C59       1.0  0.19690  0.80180  0.17880  1.0000
  C   C60       1.0  0.30310  0.19820  0.67880  1.0000
  C   C61       1.0  0.55180  0.55310  0.42880  1.0000
  C   C62       1.0  0.44820  0.94690  0.42880  1.0000
  C   C63       1.0  0.94820  0.55310  0.57120  1.0000
  C   C64       1.0  0.55180  0.44690  0.07120  1.0000
  H   H1        1.0  0.30760  0.32050  0.12850  1.0000
  H   H2        1.0  0.69240  0.17950  0.12850  1.0000
  H   H3        1.0  0.30760  0.67950  0.37150  1.0000
  H   H4        1.0  0.19240  0.32050  0.87150  1.0000
  H   H5        1.0  0.92950  0.94240  0.12150  1.0000
  H   H6        1.0  0.07050  0.55760  0.12150  1.0000
  H   H7        1.0  0.57050  0.94240  0.87850  1.0000
  H   H8        1.0  0.92950  0.05760  0.37850  1.0000
  H   H9        1.0  0.80760  0.82050  0.62850  1.0000
  H   H10       1.0  0.19240  0.67950  0.62850  1.0000
  H   H11       1.0  0.80760  0.17950  0.87150  1.0000
  H   H12       1.0  0.69240  0.82050  0.37150  1.0000
  H   H13       1.0  0.42950  0.44240  0.62150  1.0000
  H   H14       1.0  0.57050  0.05760  0.62150  1.0000
  H   H15       1.0  0.07050  0.44240  0.37850  1.0000
  H   H16       1.0  0.42950  0.55760  0.87850  1.0000
  H   H17       1.0  0.69240  0.67950  0.87150  1.0000
  H   H18       1.0  0.30760  0.82050  0.87150  1.0000
  H   H19       1.0  0.69240  0.32050  0.62850  1.0000
  H   H20       1.0  0.80760  0.67950  0.12850  1.0000
  H   H21       1.0  0.07050  0.05760  0.87850  1.0000
  H   H22       1.0  0.92950  0.44240  0.87850  1.0000
  H   H23       1.0  0.42950  0.05760  0.12150  1.0000
  H   H24       1.0  0.07050  0.94240  0.62150  1.0000
  H   H25       1.0  0.19240  0.17950  0.37150  1.0000
  H   H26       1.0  0.80760  0.32050  0.37150  1.0000
  H   H27       1.0  0.19240  0.82050  0.12850  1.0000
  H   H28       1.0  0.30760  0.17950  0.62850  1.0000
  H   H29       1.0  0.57050  0.55760  0.37850  1.0000
  H   H30       1.0  0.42950  0.94240  0.37850  1.0000
  H   H31       1.0  0.92950  0.55760  0.62150  1.0000
  H   H32       1.0  0.57050  0.44240  0.12150  1.0000
  H   H33       1.0  0.26280  0.31270  0.19800  1.0000
  H   H34       1.0  0.73720  0.18730  0.19800  1.0000
  H   H35       1.0  0.26280  0.68730  0.30200  1.0000
  H   H36       1.0  0.23720  0.31270  0.80200  1.0000
  H   H37       1.0  0.93730  0.98720  0.05200  1.0000
  H   H38       1.0  0.06270  0.51280  0.05200  1.0000
  H   H39       1.0  0.56270  0.98720  0.94800  1.0000
  H   H40       1.0  0.93730  0.01280  0.44800  1.0000
  H   H41       1.0  0.76280  0.81270  0.69800  1.0000
  H   H42       1.0  0.23720  0.68730  0.69800  1.0000
  H   H43       1.0  0.76280  0.18730  0.80200  1.0000
  H   H44       1.0  0.73720  0.81270  0.30200  1.0000
  H   H45       1.0  0.43730  0.48720  0.55200  1.0000
  H   H46       1.0  0.56270  0.01280  0.55200  1.0000
  H   H47       1.0  0.06270  0.48720  0.44800  1.0000
  H   H48       1.0  0.43730  0.51280  0.94800  1.0000
  H   H49       1.0  0.73720  0.68730  0.80200  1.0000
  H   H50       1.0  0.26280  0.81270  0.80200  1.0000
  H   H51       1.0  0.73720  0.31270  0.69800  1.0000
  H   H52       1.0  0.76280  0.68730  0.19800  1.0000
  H   H53       1.0  0.06270  0.01280  0.94800  1.0000
  H   H54       1.0  0.93730  0.48720  0.94800  1.0000
  H   H55       1.0  0.43730  0.01280  0.05200  1.0000
  H   H56       1.0  0.06270  0.98720  0.55200  1.0000
  H   H57       1.0  0.23720  0.18730  0.30200  1.0000
  H   H58       1.0  0.76280  0.31270  0.30200  1.0000
  H   H59       1.0  0.23720  0.81270  0.19800  1.0000
  H   H60       1.0  0.26280  0.18730  0.69800  1.0000
  H   H61       1.0  0.56270  0.51280  0.44800  1.0000
  H   H62       1.0  0.43730  0.98720  0.44800  1.0000
  H   H63       1.0  0.93730  0.51280  0.55200  1.0000
  H   H64       1.0  0.56270  0.48720  0.05200  1.0000
  C   C65       1.0  0.34950  0.32850  0.23080  1.0000
  C   C66       1.0  0.65050  0.17150  0.23080  1.0000
  C   C67       1.0  0.34950  0.67150  0.26920  1.0000
  C   C68       1.0  0.15050  0.32850  0.76920  1.0000
  C   C69       1.0  0.92150  0.90050  0.01920  1.0000
  C   C70       1.0  0.07850  0.59950  0.01920  1.0000
  C   C71       1.0  0.57850  0.90050  0.98080  1.0000
  C   C72       1.0  0.92150  0.09950  0.48080  1.0000
  C   C73       1.0  0.84950  0.82850  0.73080  1.0000
  C   C74       1.0  0.15050  0.67150  0.73080  1.0000
  C   C75       1.0  0.84950  0.17150  0.76920  1.0000
  C   C76       1.0  0.65050  0.82850  0.26920  1.0000
  C   C77       1.0  0.42150  0.40050  0.51920  1.0000
  C   C78       1.0  0.57850  0.09950  0.51920  1.0000
  C   C79       1.0  0.07850  0.40050  0.48080  1.0000
  C   C80       1.0  0.42150  0.59950  0.98080  1.0000
  C   C81       1.0  0.65050  0.67150  0.76920  1.0000
  C   C82       1.0  0.34950  0.82850  0.76920  1.0000
  C   C83       1.0  0.65050  0.32850  0.73080  1.0000
  C   C84       1.0  0.84950  0.67150  0.23080  1.0000
  C   C85       1.0  0.07850  0.09950  0.98080  1.0000
  C   C86       1.0  0.92150  0.40050  0.98080  1.0000
  C   C87       1.0  0.42150  0.09950  0.01920  1.0000
  C   C88       1.0  0.07850  0.90050  0.51920  1.0000
  C   C89       1.0  0.15050  0.17150  0.26920  1.0000
  C   C90       1.0  0.84950  0.32850  0.26920  1.0000
  C   C91       1.0  0.15050  0.82850  0.23080  1.0000
  C   C92       1.0  0.34950  0.17150  0.73080  1.0000
  C   C93       1.0  0.57850  0.59950  0.48080  1.0000
  C   C94       1.0  0.42150  0.90050  0.48080  1.0000
  C   C95       1.0  0.92150  0.59950  0.51920  1.0000
  C   C96       1.0  0.57850  0.40050  0.01920  1.0000
  H   H65       1.0  0.38960  0.32520  0.20730  1.0000
  H   H66       1.0  0.61040  0.17480  0.20730  1.0000
  H   H67       1.0  0.38960  0.67480  0.29270  1.0000
  H   H68       1.0  0.11040  0.32520  0.79270  1.0000
  H   H69       1.0  0.92480  0.86040  0.04270  1.0000
  H   H70       1.0  0.07520  0.63960  0.04270  1.0000
  H   H71       1.0  0.57520  0.86040  0.95730  1.0000
  H   H72       1.0  0.92480  0.13960  0.45730  1.0000
  H   H73       1.0  0.88960  0.82520  0.70730  1.0000
  H   H74       1.0  0.11040  0.67480  0.70730  1.0000
  H   H75       1.0  0.88960  0.17480  0.79270  1.0000
  H   H76       1.0  0.61040  0.82520  0.29270  1.0000
  H   H77       1.0  0.42480  0.36040  0.54270  1.0000
  H   H78       1.0  0.57520  0.13960  0.54270  1.0000
  H   H79       1.0  0.07520  0.36040  0.45730  1.0000
  H   H80       1.0  0.42480  0.63960  0.95730  1.0000
  H   H81       1.0  0.61040  0.67480  0.79270  1.0000
  H   H82       1.0  0.38960  0.82520  0.79270  1.0000
  H   H83       1.0  0.61040  0.32520  0.70730  1.0000
  H   H84       1.0  0.88960  0.67480  0.20730  1.0000
  H   H85       1.0  0.07520  0.13960  0.95730  1.0000
  H   H86       1.0  0.92480  0.36040  0.95730  1.0000
  H   H87       1.0  0.42480  0.13960  0.04270  1.0000
  H   H88       1.0  0.07520  0.86040  0.54270  1.0000
  H   H89       1.0  0.11040  0.17480  0.29270  1.0000
  H   H90       1.0  0.88960  0.32520  0.29270  1.0000
  H   H91       1.0  0.11040  0.82520  0.20730  1.0000
  H   H92       1.0  0.38960  0.17480  0.70730  1.0000
  H   H93       1.0  0.57520  0.63960  0.45730  1.0000
  H   H94       1.0  0.42480  0.86040  0.45730  1.0000
  H   H95       1.0  0.92480  0.63960  0.54270  1.0000
  H   H96       1.0  0.57520  0.36040  0.04270  1.0000
  H   H97       1.0  0.35010  0.30580  0.27870  1.0000
  H   H98       1.0  0.64990  0.19420  0.27870  1.0000
  H   H99       1.0  0.35010  0.69420  0.22130  1.0000
  H   H100      1.0  0.14990  0.30580  0.72130  1.0000
  H   H101      1.0  0.94420  0.89990  0.97130  1.0000
  H   H102      1.0  0.05580  0.60010  0.97130  1.0000
  H   H103      1.0  0.55580  0.89990  0.02870  1.0000
  H   H104      1.0  0.94420  0.10010  0.52870  1.0000
  H   H105      1.0  0.85010  0.80580  0.77870  1.0000
  H   H106      1.0  0.14990  0.69420  0.77870  1.0000
  H   H107      1.0  0.85010  0.19420  0.72130  1.0000
  H   H108      1.0  0.64990  0.80580  0.22130  1.0000
  H   H109      1.0  0.44420  0.39990  0.47130  1.0000
  H   H110      1.0  0.55580  0.10010  0.47130  1.0000
  H   H111      1.0  0.05580  0.39990  0.52870  1.0000
  H   H112      1.0  0.44420  0.60010  0.02870  1.0000
  H   H113      1.0  0.64990  0.69420  0.72130  1.0000
  H   H114      1.0  0.35010  0.80580  0.72130  1.0000
  H   H115      1.0  0.64990  0.30580  0.77870  1.0000
  H   H116      1.0  0.85010  0.69420  0.27870  1.0000
  H   H117      1.0  0.05580  0.10010  0.02870  1.0000
  H   H118      1.0  0.94420  0.39990  0.02870  1.0000
  H   H119      1.0  0.44420  0.10010  0.97130  1.0000
  H   H120      1.0  0.05580  0.89990  0.47130  1.0000
  H   H121      1.0  0.14990  0.19420  0.22130  1.0000
  H   H122      1.0  0.85010  0.30580  0.22130  1.0000
  H   H123      1.0  0.14990  0.80580  0.27870  1.0000
  H   H124      1.0  0.35010  0.19420  0.77870  1.0000
  H   H125      1.0  0.55580  0.60010  0.52870  1.0000
  H   H126      1.0  0.44420  0.89990  0.52870  1.0000
  H   H127      1.0  0.94420  0.60010  0.47130  1.0000
  H   H128      1.0  0.55580  0.39990  0.97130  1.0000
  O   O1        1.0  0.38530  0.43130  0.29560  1.0000
  O   O2        1.0  0.61470  0.06870  0.29560  1.0000
  O   O3        1.0  0.38530  0.56870  0.20440  1.0000
  O   O4        1.0  0.11470  0.43130  0.70440  1.0000
  O   O5        1.0  0.81870  0.86470  0.95440  1.0000
  O   O6        1.0  0.18130  0.63530  0.95440  1.0000
  O   O7        1.0  0.68130  0.86470  0.04560  1.0000
  O   O8        1.0  0.81870  0.13530  0.54560  1.0000
  O   O9        1.0  0.88530  0.93130  0.79560  1.0000
  O   O10       1.0  0.11470  0.56870  0.79560  1.0000
  O   O11       1.0  0.88530  0.06870  0.70440  1.0000
  O   O12       1.0  0.61470  0.93130  0.20440  1.0000
  O   O13       1.0  0.31870  0.36470  0.45440  1.0000
  O   O14       1.0  0.68130  0.13530  0.45440  1.0000
  O   O15       1.0  0.18130  0.36470  0.54560  1.0000
  O   O16       1.0  0.31870  0.63530  0.04560  1.0000
  O   O17       1.0  0.61470  0.56870  0.70440  1.0000
  O   O18       1.0  0.38530  0.93130  0.70440  1.0000
  O   O19       1.0  0.61470  0.43130  0.79560  1.0000
  O   O20       1.0  0.88530  0.56870  0.29560  1.0000
  O   O21       1.0  0.18130  0.13530  0.04560  1.0000
  O   O22       1.0  0.81870  0.36470  0.04560  1.0000
  O   O23       1.0  0.31870  0.13530  0.95440  1.0000
  O   O24       1.0  0.18130  0.86470  0.45440  1.0000
  O   O25       1.0  0.11470  0.06870  0.20440  1.0000
  O   O26       1.0  0.88530  0.43130  0.20440  1.0000
  O   O27       1.0  0.11470  0.93130  0.29560  1.0000
  O   O28       1.0  0.38530  0.06870  0.79560  1.0000
  O   O29       1.0  0.68130  0.63530  0.54560  1.0000
  O   O30       1.0  0.31870  0.86470  0.54560  1.0000
  O   O31       1.0  0.81870  0.63530  0.45440  1.0000
  O   O32       1.0  0.68130  0.36470  0.95440  1.0000
  O   O33       1.0  0.32700  0.43810  0.17390  1.0000
  O   O34       1.0  0.67300  0.06190  0.17390  1.0000
  O   O35       1.0  0.32700  0.56190  0.32610  1.0000
  O   O36       1.0  0.17300  0.43810  0.82610  1.0000
  O   O37       1.0  0.81190  0.92300  0.07610  1.0000
  O   O38       1.0  0.18810  0.57700  0.07610  1.0000
  O   O39       1.0  0.68810  0.92300  0.92390  1.0000
  O   O40       1.0  0.81190  0.07700  0.42390  1.0000
  O   O41       1.0  0.82700  0.93810  0.67390  1.0000
  O   O42       1.0  0.17300  0.56190  0.67390  1.0000
  O   O43       1.0  0.82700  0.06190  0.82610  1.0000
  O   O44       1.0  0.67300  0.93810  0.32610  1.0000
  O   O45       1.0  0.31190  0.42300  0.57610  1.0000
  O   O46       1.0  0.68810  0.07700  0.57610  1.0000
  O   O47       1.0  0.18810  0.42300  0.42390  1.0000
  O   O48       1.0  0.31190  0.57700  0.92390  1.0000
  O   O49       1.0  0.67300  0.56190  0.82610  1.0000
  O   O50       1.0  0.32700  0.93810  0.82610  1.0000
  O   O51       1.0  0.67300  0.43810  0.67390  1.0000
  O   O52       1.0  0.82700  0.56190  0.17390  1.0000
  O   O53       1.0  0.18810  0.07700  0.92390  1.0000
  O   O54       1.0  0.81190  0.42300  0.92390  1.0000
  O   O55       1.0  0.31190  0.07700  0.07610  1.0000
  O   O56       1.0  0.18810  0.92300  0.57610  1.0000
  O   O57       1.0  0.17300  0.06190  0.32610  1.0000
  O   O58       1.0  0.82700  0.43810  0.32610  1.0000
  O   O59       1.0  0.17300  0.93810  0.17390  1.0000
  O   O60       1.0  0.32700  0.06190  0.67390  1.0000
  O   O61       1.0  0.68810  0.57700  0.42390  1.0000
  O   O62       1.0  0.31190  0.92300  0.42390  1.0000
  O   O63       1.0  0.81190  0.57700  0.57610  1.0000
  O   O64       1.0  0.68810  0.42300  0.07610  1.0000
  O   O65       1.0  0.26580  0.21330  0.12560  1.0000
  O   O66       1.0  0.73420  0.28670  0.12560  1.0000
  O   O67       1.0  0.26580  0.78670  0.37440  1.0000
  O   O68       1.0  0.23420  0.21330  0.87440  1.0000
  O   O69       1.0  0.03670  0.98420  0.12440  1.0000
  O   O70       1.0  0.96330  0.51580  0.12440  1.0000
  O   O71       1.0  0.46330  0.98420  0.87560  1.0000
  O   O72       1.0  0.03670  0.01580  0.37560  1.0000
  O   O73       1.0  0.76580  0.71330  0.62560  1.0000
  O   O74       1.0  0.23420  0.78670  0.62560  1.0000
  O   O75       1.0  0.76580  0.28670  0.87440  1.0000
  O   O76       1.0  0.73420  0.71330  0.37440  1.0000
  O   O77       1.0  0.53670  0.48420  0.62440  1.0000
  O   O78       1.0  0.46330  0.01580  0.62440  1.0000
  O   O79       1.0  0.96330  0.48420  0.37560  1.0000
  O   O80       1.0  0.53670  0.51580  0.87560  1.0000
  O   O81       1.0  0.73420  0.78670  0.87440  1.0000
  O   O82       1.0  0.26580  0.71330  0.87440  1.0000
  O   O83       1.0  0.73420  0.21330  0.62560  1.0000
  O   O84       1.0  0.76580  0.78670  0.12560  1.0000
  O   O85       1.0  0.96330  0.01580  0.87560  1.0000
  O   O86       1.0  0.03670  0.48420  0.87560  1.0000
  O   O87       1.0  0.53670  0.01580  0.12440  1.0000
  O   O88       1.0  0.96330  0.98420  0.62440  1.0000
  O   O89       1.0  0.23420  0.28670  0.37440  1.0000
  O   O90       1.0  0.76580  0.21330  0.37440  1.0000
  O   O91       1.0  0.23420  0.71330  0.12560  1.0000
  O   O92       1.0  0.26580  0.28670  0.62560  1.0000
  O   O93       1.0  0.46330  0.51580  0.37560  1.0000
  O   O94       1.0  0.53670  0.98420  0.37560  1.0000
  O   O95       1.0  0.03670  0.51580  0.62440  1.0000
  O   O96       1.0  0.46330  0.48420  0.12440  1.0000
  O   O97       1.0  0.27380  0.40930  0.29170  1.0000
  O   O98       1.0  0.72620  0.09070  0.29170  1.0000
  O   O99       1.0  0.27380  0.59070  0.20830  1.0000
  O   O100      1.0  0.22620  0.40930  0.70830  1.0000
  O   O101      1.0  0.84070  0.97620  0.95830  1.0000
  O   O102      1.0  0.15930  0.52380  0.95830  1.0000
  O   O103      1.0  0.65930  0.97620  0.04170  1.0000
  O   O104      1.0  0.84070  0.02380  0.54170  1.0000
  O   O105      1.0  0.77380  0.90930  0.79170  1.0000
  O   O106      1.0  0.22620  0.59070  0.79170  1.0000
  O   O107      1.0  0.77380  0.09070  0.70830  1.0000
  O   O108      1.0  0.72620  0.90930  0.20830  1.0000
  O   O109      1.0  0.34070  0.47620  0.45830  1.0000
  O   O110      1.0  0.65930  0.02380  0.45830  1.0000
  O   O111      1.0  0.15930  0.47620  0.54170  1.0000
  O   O112      1.0  0.34070  0.52380  0.04170  1.0000
  O   O113      1.0  0.72620  0.59070  0.70830  1.0000
  O   O114      1.0  0.27380  0.90930  0.70830  1.0000
  O   O115      1.0  0.72620  0.40930  0.79170  1.0000
  O   O116      1.0  0.77380  0.59070  0.29170  1.0000
  O   O117      1.0  0.15930  0.02380  0.04170  1.0000
  O   O118      1.0  0.84070  0.47620  0.04170  1.0000
  O   O119      1.0  0.34070  0.02380  0.95830  1.0000
  O   O120      1.0  0.15930  0.97620  0.45830  1.0000
  O   O121      1.0  0.22620  0.09070  0.20830  1.0000
  O   O122      1.0  0.77380  0.40930  0.20830  1.0000
  O   O123      1.0  0.22620  0.90930  0.29170  1.0000
  O   O124      1.0  0.27380  0.09070  0.79170  1.0000
  O   O125      1.0  0.65930  0.52380  0.54170  1.0000
  O   O126      1.0  0.34070  0.97620  0.54170  1.0000
  O   O127      1.0  0.84070  0.52380  0.45830  1.0000
  O   O128      1.0  0.65930  0.47620  0.95830  1.0000
  O   O129      1.0  0.34100  0.20260  0.20470  1.0000
  O   O130      1.0  0.65900  0.29740  0.20470  1.0000
  O   O131      1.0  0.34100  0.79740  0.29530  1.0000
  O   O132      1.0  0.15900  0.20260  0.79530  1.0000
  O   O133      1.0  0.04740  0.90900  0.04530  1.0000
  O   O134      1.0  0.95260  0.59100  0.04530  1.0000
  O   O135      1.0  0.45260  0.90900  0.95470  1.0000
  O   O136      1.0  0.04740  0.09100  0.45470  1.0000
  O   O137      1.0  0.84100  0.70260  0.70470  1.0000
  O   O138      1.0  0.15900  0.79740  0.70470  1.0000
  O   O139      1.0  0.84100  0.29740  0.79530  1.0000
  O   O140      1.0  0.65900  0.70260  0.29530  1.0000
  O   O141      1.0  0.54740  0.40900  0.54530  1.0000
  O   O142      1.0  0.45260  0.09100  0.54530  1.0000
  O   O143      1.0  0.95260  0.40900  0.45470  1.0000
  O   O144      1.0  0.54740  0.59100  0.95470  1.0000
  O   O145      1.0  0.65900  0.79740  0.79530  1.0000
  O   O146      1.0  0.34100  0.70260  0.79530  1.0000
  O   O147      1.0  0.65900  0.20260  0.70470  1.0000
  O   O148      1.0  0.84100  0.79740  0.20470  1.0000
  O   O149      1.0  0.95260  0.09100  0.95470  1.0000
  O   O150      1.0  0.04740  0.40900  0.95470  1.0000
  O   O151      1.0  0.54740  0.09100  0.04530  1.0000
  O   O152      1.0  0.95260  0.90900  0.54530  1.0000
  O   O153      1.0  0.15900  0.29740  0.29530  1.0000
  O   O154      1.0  0.84100  0.20260  0.29530  1.0000
  O   O155      1.0  0.15900  0.70260  0.20470  1.0000
  O   O156      1.0  0.34100  0.29740  0.70470  1.0000
  O   O157      1.0  0.45260  0.59100  0.45470  1.0000
  O   O158      1.0  0.54740  0.90900  0.45470  1.0000
  O   O159      1.0  0.04740  0.59100  0.54530  1.0000
  O   O160      1.0  0.45260  0.40900  0.04530  1.0000
  P   P1        1.0  0.33333  0.40607  0.24981  1.0000
  P   P2        1.0  0.66667  0.09393  0.24981  1.0000
  P   P3        1.0  0.33333  0.59393  0.25019  1.0000
  P   P4        1.0  0.16667  0.40607  0.75019  1.0000
  P   P5        1.0  0.84393  0.91667  0.00019  1.0000
  P   P6        1.0  0.15607  0.58333  0.00019  1.0000
  P   P7        1.0  0.65607  0.91667  0.99981  1.0000
  P   P8        1.0  0.84393  0.08333  0.49981  1.0000
  P   P9        1.0  0.83333  0.90607  0.74981  1.0000
  P   P10       1.0  0.16667  0.59393  0.74981  1.0000
  P   P11       1.0  0.83333  0.09393  0.75019  1.0000
  P   P12       1.0  0.66667  0.90607  0.25019  1.0000
  P   P13       1.0  0.34393  0.41667  0.50019  1.0000
  P   P14       1.0  0.65607  0.08333  0.50019  1.0000
  P   P15       1.0  0.15607  0.41667  0.49981  1.0000
  P   P16       1.0  0.34393  0.58333  0.99981  1.0000
  P   P17       1.0  0.66667  0.59393  0.75019  1.0000
  P   P18       1.0  0.33333  0.90607  0.75019  1.0000
  P   P19       1.0  0.66667  0.40607  0.74981  1.0000
  P   P20       1.0  0.83333  0.59393  0.24981  1.0000
  P   P21       1.0  0.15607  0.08333  0.99981  1.0000
  P   P22       1.0  0.84393  0.41667  0.99981  1.0000
  P   P23       1.0  0.34393  0.08333  0.00019  1.0000
  P   P24       1.0  0.15607  0.91667  0.50019  1.0000
  P   P25       1.0  0.16667  0.09393  0.25019  1.0000
  P   P26       1.0  0.83333  0.40607  0.25019  1.0000
  P   P27       1.0  0.16667  0.90607  0.24981  1.0000
  P   P28       1.0  0.33333  0.09393  0.74981  1.0000
  P   P29       1.0  0.65607  0.58333  0.49981  1.0000
  P   P30       1.0  0.34393  0.91667  0.49981  1.0000
  P   P31       1.0  0.84393  0.58333  0.50019  1.0000
  P   P32       1.0  0.65607  0.41667  0.00019  1.0000
  Zn  Zn1       1.0  0.24965  0.12812  0.11433  1.0000
  Zn  Zn2       1.0  0.75035  0.37188  0.11433  1.0000
  Zn  Zn3       1.0  0.24965  0.87188  0.38567  1.0000
  Zn  Zn4       1.0  0.25035  0.12812  0.88567  1.0000
  Zn  Zn5       1.0  0.12188  0.00035  0.13567  1.0000
  Zn  Zn6       1.0  0.87812  0.49965  0.13567  1.0000
  Zn  Zn7       1.0  0.37812  0.00035  0.86433  1.0000
  Zn  Zn8       1.0  0.12188  0.99965  0.36433  1.0000
  Zn  Zn9       1.0  0.74965  0.62812  0.61433  1.0000
  Zn  Zn10      1.0  0.25035  0.87188  0.61433  1.0000
  Zn  Zn11      1.0  0.74965  0.37188  0.88567  1.0000
  Zn  Zn12      1.0  0.75035  0.62812  0.38567  1.0000
  Zn  Zn13      1.0  0.62188  0.50035  0.63567  1.0000
  Zn  Zn14      1.0  0.37812  0.99965  0.63567  1.0000
  Zn  Zn15      1.0  0.87812  0.50035  0.36433  1.0000
  Zn  Zn16      1.0  0.62188  0.49965  0.86433  1.0000
  Zn  Zn17      1.0  0.75035  0.87188  0.88567  1.0000
  Zn  Zn18      1.0  0.24965  0.62812  0.88567  1.0000
  Zn  Zn19      1.0  0.75035  0.12812  0.61433  1.0000
  Zn  Zn20      1.0  0.74965  0.87188  0.11433  1.0000
  Zn  Zn21      1.0  0.87812  0.99965  0.86433  1.0000
  Zn  Zn22      1.0  0.12188  0.50035  0.86433  1.0000
  Zn  Zn23      1.0  0.62188  0.99965  0.13567  1.0000
  Zn  Zn24      1.0  0.87812  0.00035  0.63567  1.0000
  Zn  Zn25      1.0  0.25035  0.37188  0.38567  1.0000
  Zn  Zn26      1.0  0.74965  0.12812  0.38567  1.0000
  Zn  Zn27      1.0  0.25035  0.62812  0.11433  1.0000
  Zn  Zn28      1.0  0.24965  0.37188  0.61433  1.0000
  Zn  Zn29      1.0  0.37812  0.49965  0.36433  1.0000
  Zn  Zn30      1.0  0.62188  0.00035  0.36433  1.0000
  Zn  Zn31      1.0  0.12188  0.49965  0.63567  1.0000
  Zn  Zn32      1.0  0.37812  0.50035  0.13567  1.0000
