data_image0
_chemical_formula_structural       Co4O24C4H4C8H8
_chemical_formula_sum              "Co4 O24 C12 H12"
_cell_length_a       8.7238
_cell_length_b       11.6272
_cell_length_c       8.2747
_cell_angle_alpha    90
_cell_angle_beta     90
_cell_angle_gamma    90

_space_group_name_H-M_alt    "P 1"
_space_group_IT_number       1

loop_
  _space_group_symop_operation_xyz
  'x, y, z'

loop_
  _atom_site_type_symbol
  _atom_site_label
  _atom_site_symmetry_multiplicity
  _atom_site_fract_x
  _atom_site_fract_y
  _atom_site_fract_z
  _atom_site_occupancy
  Co  Co1       1.0  0.23720  0.25000  0.25000  1.0000
  Co  Co2       1.0  0.26280  0.75000  0.25000  1.0000
  Co  Co3       1.0  0.76280  0.75000  0.75000  1.0000
  Co  Co4       1.0  0.73720  0.25000  0.75000  1.0000
  O   O1        1.0  0.58387  0.32227  0.58900  1.0000
  O   O2        1.0  0.91613  0.67773  0.58900  1.0000
  O   O3        1.0  0.91613  0.82227  0.91100  1.0000
  O   O4        1.0  0.58387  0.17773  0.91100  1.0000
  O   O5        1.0  0.41613  0.67773  0.41100  1.0000
  O   O6        1.0  0.08387  0.32227  0.41100  1.0000
  O   O7        1.0  0.08387  0.17773  0.08900  1.0000
  O   O8        1.0  0.41613  0.82227  0.08900  1.0000
  O   O9        1.0  0.23808  0.09475  0.38367  1.0000
  O   O10       1.0  0.26192  0.90525  0.38367  1.0000
  O   O11       1.0  0.26192  0.59475  0.11633  1.0000
  O   O12       1.0  0.23808  0.40525  0.11633  1.0000
  O   O13       1.0  0.76192  0.90525  0.61633  1.0000
  O   O14       1.0  0.73808  0.09475  0.61633  1.0000
  O   O15       1.0  0.73808  0.40525  0.88367  1.0000
  O   O16       1.0  0.76192  0.59475  0.88367  1.0000
  O   O17       1.0  0.41236  0.31689  0.39500  1.0000
  O   O18       1.0  0.08764  0.68311  0.39500  1.0000
  O   O19       1.0  0.08764  0.81689  0.10500  1.0000
  O   O20       1.0  0.41236  0.18311  0.10500  1.0000
  O   O21       1.0  0.58764  0.68311  0.60500  1.0000
  O   O22       1.0  0.91236  0.31689  0.60500  1.0000
  O   O23       1.0  0.91236  0.18311  0.89500  1.0000
  O   O24       1.0  0.58764  0.81689  0.89500  1.0000
  C   C1        1.0  0.25000  0.00000  0.31430  1.0000
  C   C2        1.0  0.25000  0.50000  0.18570  1.0000
  C   C3        1.0  0.75000  0.00000  0.68570  1.0000
  C   C4        1.0  0.75000  0.50000  0.81430  1.0000
  H   H1        1.0  0.25000  0.00000  0.20190  1.0000
  H   H2        1.0  0.25000  0.50000  0.29810  1.0000
  H   H3        1.0  0.75000  0.00000  0.79810  1.0000
  H   H4        1.0  0.75000  0.50000  0.70190  1.0000
  C   C5        1.0  0.47015  0.28001  0.52253  1.0000
  C   C6        1.0  0.02985  0.71999  0.52253  1.0000
  C   C7        1.0  0.02985  0.78001  0.97747  1.0000
  C   C8        1.0  0.47015  0.21999  0.97747  1.0000
  C   C9        1.0  0.52985  0.71999  0.47747  1.0000
  C   C10       1.0  0.97015  0.28001  0.47747  1.0000
  C   C11       1.0  0.97015  0.21999  0.02253  1.0000
  C   C12       1.0  0.52985  0.78001  0.02253  1.0000
  H   H5        1.0  0.42200  0.21230  0.57110  1.0000
  H   H6        1.0  0.07800  0.78770  0.57110  1.0000
  H   H7        1.0  0.07800  0.71230  0.92890  1.0000
  H   H8        1.0  0.42200  0.28770  0.92890  1.0000
  H   H9        1.0  0.57800  0.78770  0.42890  1.0000
  H   H10       1.0  0.92200  0.21230  0.42890  1.0000
  H   H11       1.0  0.92200  0.28770  0.07110  1.0000
  H   H12       1.0  0.57800  0.71230  0.07110  1.0000
