data_image0
_chemical_formula_structural       Fe4O24C4H4C8H8
_chemical_formula_sum              "Fe4 O24 C12 H12"
_cell_length_a       8.8246
_cell_length_b       11.7336
_cell_length_c       8.3258
_cell_angle_alpha    90
_cell_angle_beta     90
_cell_angle_gamma    90

_space_group_name_H-M_alt    "P 1"
_space_group_IT_number       1

loop_
  _space_group_symop_operation_xyz
  'x, y, z'

loop_
  _atom_site_type_symbol
  _atom_site_label
  _atom_site_symmetry_multiplicity
  _atom_site_fract_x
  _atom_site_fract_y
  _atom_site_fract_z
  _atom_site_occupancy
  Fe  Fe1       1.0  0.23846  0.25000  0.25000  1.0000
  Fe  Fe2       1.0  0.26154  0.75000  0.25000  1.0000
  Fe  Fe3       1.0  0.76154  0.75000  0.75000  1.0000
  Fe  Fe4       1.0  0.73846  0.25000  0.75000  1.0000
  O   O1        1.0  0.58295  0.32212  0.58916  1.0000
  O   O2        1.0  0.91705  0.67788  0.58916  1.0000
  O   O3        1.0  0.91705  0.82212  0.91084  1.0000
  O   O4        1.0  0.58295  0.17788  0.91084  1.0000
  O   O5        1.0  0.41705  0.67788  0.41084  1.0000
  O   O6        1.0  0.08295  0.32212  0.41084  1.0000
  O   O7        1.0  0.08295  0.17788  0.08916  1.0000
  O   O8        1.0  0.41705  0.82212  0.08916  1.0000
  O   O9        1.0  0.23851  0.09409  0.38752  1.0000
  O   O10       1.0  0.26149  0.90591  0.38752  1.0000
  O   O11       1.0  0.26149  0.59409  0.11248  1.0000
  O   O12       1.0  0.23851  0.40591  0.11248  1.0000
  O   O13       1.0  0.76149  0.90591  0.61248  1.0000
  O   O14       1.0  0.73851  0.09409  0.61248  1.0000
  O   O15       1.0  0.73851  0.40591  0.88752  1.0000
  O   O16       1.0  0.76149  0.59409  0.88752  1.0000
  O   O17       1.0  0.41520  0.31665  0.39495  1.0000
  O   O18       1.0  0.08480  0.68335  0.39495  1.0000
  O   O19       1.0  0.08480  0.81665  0.10505  1.0000
  O   O20       1.0  0.41520  0.18335  0.10505  1.0000
  O   O21       1.0  0.58480  0.68335  0.60505  1.0000
  O   O22       1.0  0.91520  0.31665  0.60505  1.0000
  O   O23       1.0  0.91520  0.18335  0.89495  1.0000
  O   O24       1.0  0.58480  0.81665  0.89495  1.0000
  C   C1        1.0  0.25000  0.00000  0.31910  1.0000
  C   C2        1.0  0.25000  0.50000  0.18090  1.0000
  C   C3        1.0  0.75000  0.00000  0.68090  1.0000
  C   C4        1.0  0.75000  0.50000  0.81910  1.0000
  H   H1        1.0  0.25000  0.00000  0.20740  1.0000
  H   H2        1.0  0.25000  0.50000  0.29260  1.0000
  H   H3        1.0  0.75000  0.00000  0.79260  1.0000
  H   H4        1.0  0.75000  0.50000  0.70740  1.0000
  C   C5        1.0  0.46995  0.28163  0.52333  1.0000
  C   C6        1.0  0.03005  0.71837  0.52333  1.0000
  C   C7        1.0  0.03005  0.78163  0.97667  1.0000
  C   C8        1.0  0.46995  0.21837  0.97667  1.0000
  C   C9        1.0  0.53005  0.71837  0.47667  1.0000
  C   C10       1.0  0.96995  0.28163  0.47667  1.0000
  C   C11       1.0  0.96995  0.21837  0.02333  1.0000
  C   C12       1.0  0.53005  0.78163  0.02333  1.0000
  H   H5        1.0  0.42430  0.21720  0.56750  1.0000
  H   H6        1.0  0.07570  0.78280  0.56750  1.0000
  H   H7        1.0  0.07570  0.71720  0.93250  1.0000
  H   H8        1.0  0.42430  0.28280  0.93250  1.0000
  H   H9        1.0  0.57570  0.78280  0.43250  1.0000
  H   H10       1.0  0.92430  0.21720  0.43250  1.0000
  H   H11       1.0  0.92430  0.28280  0.06750  1.0000
  H   H12       1.0  0.57570  0.71720  0.06750  1.0000
