data_image0
_chemical_formula_structural       Mn2Cr2O24C12H12
_chemical_formula_sum              "Mn2 Cr2 O24 C12 H12"
_cell_length_a       8.2708
_cell_length_b       8.2708
_cell_length_c       14.088
_cell_angle_alpha    90
_cell_angle_beta     90
_cell_angle_gamma    120

_space_group_name_H-M_alt    "P 1"
_space_group_IT_number       1

loop_
  _space_group_symop_operation_xyz
  'x, y, z'

loop_
  _atom_site_type_symbol
  _atom_site_label
  _atom_site_symmetry_multiplicity
  _atom_site_fract_x
  _atom_site_fract_y
  _atom_site_fract_z
  _atom_site_occupancy
  Mn  Mn1       1.0  0.66670  0.33330  0.25000  1.0000
  Mn  Mn2       1.0  0.33330  0.66670  0.75000  1.0000
  Cr  Cr1       1.0  0.00000  0.00000  0.00000  1.0000
  Cr  Cr2       1.0  0.00000  0.00000  0.50000  1.0000
  O   O1        1.0  0.44850  0.33780  0.16533  1.0000
  O   O2        1.0  0.66220  0.11070  0.16533  1.0000
  O   O3        1.0  0.88930  0.55150  0.16533  1.0000
  O   O4        1.0  0.66220  0.55150  0.33467  1.0000
  O   O5        1.0  0.88930  0.33780  0.33467  1.0000
  O   O6        1.0  0.44850  0.11070  0.33467  1.0000
  O   O7        1.0  0.55150  0.66220  0.83467  1.0000
  O   O8        1.0  0.33780  0.88930  0.83467  1.0000
  O   O9        1.0  0.11070  0.44850  0.83467  1.0000
  O   O10       1.0  0.33780  0.44850  0.66533  1.0000
  O   O11       1.0  0.11070  0.66220  0.66533  1.0000
  O   O12       1.0  0.55150  0.88930  0.66533  1.0000
  O   O13       1.0  0.19020  0.20400  0.07992  1.0000
  O   O14       1.0  0.79600  0.98620  0.07992  1.0000
  O   O15       1.0  0.01380  0.80980  0.07992  1.0000
  O   O16       1.0  0.79600  0.80980  0.42008  1.0000
  O   O17       1.0  0.01380  0.20400  0.42008  1.0000
  O   O18       1.0  0.19020  0.98620  0.42008  1.0000
  O   O19       1.0  0.80980  0.79600  0.92008  1.0000
  O   O20       1.0  0.20400  0.01380  0.92008  1.0000
  O   O21       1.0  0.98620  0.19020  0.92008  1.0000
  O   O22       1.0  0.20400  0.19020  0.57992  1.0000
  O   O23       1.0  0.98620  0.79600  0.57992  1.0000
  O   O24       1.0  0.80980  0.01380  0.57992  1.0000
  C   C1        1.0  0.33200  0.20990  0.11600  1.0000
  C   C2        1.0  0.79010  0.12210  0.11600  1.0000
  C   C3        1.0  0.87790  0.66800  0.11600  1.0000
  C   C4        1.0  0.79010  0.66800  0.38400  1.0000
  C   C5        1.0  0.87790  0.20990  0.38400  1.0000
  C   C6        1.0  0.33200  0.12210  0.38400  1.0000
  C   C7        1.0  0.66800  0.79010  0.88400  1.0000
  C   C8        1.0  0.20990  0.87790  0.88400  1.0000
  C   C9        1.0  0.12210  0.33200  0.88400  1.0000
  C   C10       1.0  0.20990  0.33200  0.61600  1.0000
  C   C11       1.0  0.12210  0.79010  0.61600  1.0000
  C   C12       1.0  0.66800  0.87790  0.61600  1.0000
  H   H1        1.0  0.35020  0.10940  0.10460  1.0000
  H   H2        1.0  0.89060  0.24080  0.10460  1.0000
  H   H3        1.0  0.75920  0.64980  0.10460  1.0000
  H   H4        1.0  0.89060  0.64980  0.39540  1.0000
  H   H5        1.0  0.75920  0.10940  0.39540  1.0000
  H   H6        1.0  0.35020  0.24080  0.39540  1.0000
  H   H7        1.0  0.64980  0.89060  0.89540  1.0000
  H   H8        1.0  0.10940  0.75920  0.89540  1.0000
  H   H9        1.0  0.24080  0.35020  0.89540  1.0000
  H   H10       1.0  0.10940  0.35020  0.60460  1.0000
  H   H11       1.0  0.24080  0.89060  0.60460  1.0000
  H   H12       1.0  0.64980  0.75920  0.60460  1.0000
