data_image0
_chemical_formula_structural       Cr2Mg2O24C12H12
_chemical_formula_sum              "Cr2 Mg2 O24 C12 H12"
_cell_length_a       8.1565
_cell_length_b       8.1565
_cell_length_c       13.705
_cell_angle_alpha    90
_cell_angle_beta     90
_cell_angle_gamma    120

_space_group_name_H-M_alt    "P 1"
_space_group_IT_number       1

loop_
  _space_group_symop_operation_xyz
  'x, y, z'

loop_
  _atom_site_type_symbol
  _atom_site_label
  _atom_site_symmetry_multiplicity
  _atom_site_fract_x
  _atom_site_fract_y
  _atom_site_fract_z
  _atom_site_occupancy
  Cr  Cr1       1.0  0.00000  0.00000  0.00000  1.0000
  Cr  Cr2       1.0  0.00000  0.00000  0.50000  1.0000
  Mg  Mg1       1.0  0.66670  0.33330  0.25000  1.0000
  Mg  Mg2       1.0  0.33330  0.66670  0.75000  1.0000
  O   O1        1.0  0.19300  0.20510  0.08156  1.0000
  O   O2        1.0  0.79490  0.98790  0.08156  1.0000
  O   O3        1.0  0.01210  0.80700  0.08156  1.0000
  O   O4        1.0  0.79490  0.80700  0.41844  1.0000
  O   O5        1.0  0.01210  0.20510  0.41844  1.0000
  O   O6        1.0  0.19300  0.98790  0.41844  1.0000
  O   O7        1.0  0.80700  0.79490  0.91844  1.0000
  O   O8        1.0  0.20510  0.01210  0.91844  1.0000
  O   O9        1.0  0.98790  0.19300  0.91844  1.0000
  O   O10       1.0  0.20510  0.19300  0.58156  1.0000
  O   O11       1.0  0.98790  0.79490  0.58156  1.0000
  O   O12       1.0  0.80700  0.01210  0.58156  1.0000
  O   O13       1.0  0.45740  0.33640  0.16715  1.0000
  O   O14       1.0  0.66360  0.12100  0.16715  1.0000
  O   O15       1.0  0.87900  0.54260  0.16715  1.0000
  O   O16       1.0  0.66360  0.54260  0.33285  1.0000
  O   O17       1.0  0.87900  0.33640  0.33285  1.0000
  O   O18       1.0  0.45740  0.12100  0.33285  1.0000
  O   O19       1.0  0.54260  0.66360  0.83285  1.0000
  O   O20       1.0  0.33640  0.87900  0.83285  1.0000
  O   O21       1.0  0.12100  0.45740  0.83285  1.0000
  O   O22       1.0  0.33640  0.45740  0.66715  1.0000
  O   O23       1.0  0.12100  0.66360  0.66715  1.0000
  O   O24       1.0  0.54260  0.87900  0.66715  1.0000
  C   C1        1.0  0.33540  0.20690  0.11720  1.0000
  C   C2        1.0  0.79310  0.12850  0.11720  1.0000
  C   C3        1.0  0.87150  0.66460  0.11720  1.0000
  C   C4        1.0  0.79310  0.66460  0.38280  1.0000
  C   C5        1.0  0.87150  0.20690  0.38280  1.0000
  C   C6        1.0  0.33540  0.12850  0.38280  1.0000
  C   C7        1.0  0.66460  0.79310  0.88280  1.0000
  C   C8        1.0  0.20690  0.87150  0.88280  1.0000
  C   C9        1.0  0.12850  0.33540  0.88280  1.0000
  C   C10       1.0  0.20690  0.33540  0.61720  1.0000
  C   C11       1.0  0.12850  0.79310  0.61720  1.0000
  C   C12       1.0  0.66460  0.87150  0.61720  1.0000
  H   H1        1.0  0.35020  0.10290  0.10510  1.0000
  H   H2        1.0  0.89710  0.24730  0.10510  1.0000
  H   H3        1.0  0.75270  0.64980  0.10510  1.0000
  H   H4        1.0  0.89710  0.64980  0.39490  1.0000
  H   H5        1.0  0.75270  0.10290  0.39490  1.0000
  H   H6        1.0  0.35020  0.24730  0.39490  1.0000
  H   H7        1.0  0.64980  0.89710  0.89490  1.0000
  H   H8        1.0  0.10290  0.75270  0.89490  1.0000
  H   H9        1.0  0.24730  0.35020  0.89490  1.0000
  H   H10       1.0  0.10290  0.35020  0.60510  1.0000
  H   H11       1.0  0.24730  0.89710  0.60510  1.0000
  H   H12       1.0  0.64980  0.75270  0.60510  1.0000
