data_image0
_chemical_formula_structural       I4Cu4S8O24N8C24H16
_chemical_formula_sum              "I4 Cu4 S8 O24 N8 C24 H16"
_cell_length_a       16.7521
_cell_length_b       13.8506
_cell_length_c       22.607
_cell_angle_alpha    90
_cell_angle_beta     97.146
_cell_angle_gamma    90

_space_group_name_H-M_alt    "P 1"
_space_group_IT_number       1

loop_
  _space_group_symop_operation_xyz
  'x, y, z'

loop_
  _atom_site_type_symbol
  _atom_site_label
  _atom_site_symmetry_multiplicity
  _atom_site_fract_x
  _atom_site_fract_y
  _atom_site_fract_z
  _atom_site_occupancy
  I   I1        1.0  0.31350  0.06908  0.12258  1.0000
  I   I2        1.0  0.68650  0.56908  0.37742  1.0000
  I   I3        1.0  0.68650  0.93092  0.87742  1.0000
  I   I4        1.0  0.31350  0.43092  0.62258  1.0000
  Cu  Cu1       1.0  0.25529  0.01411  0.01652  1.0000
  Cu  Cu2       1.0  0.74471  0.51411  0.48348  1.0000
  Cu  Cu3       1.0  0.74471  0.98589  0.98348  1.0000
  Cu  Cu4       1.0  0.25529  0.48589  0.51652  1.0000
  S   S1        1.0  0.16727  0.18252  0.95920  1.0000
  S   S2        1.0  0.83273  0.68252  0.54080  1.0000
  S   S3        1.0  0.83273  0.81748  0.04080  1.0000
  S   S4        1.0  0.16727  0.31748  0.45920  1.0000
  S   S5        1.0  0.32302  0.81189  0.00883  1.0000
  S   S6        1.0  0.67698  0.31189  0.49117  1.0000
  S   S7        1.0  0.67698  0.18811  0.99117  1.0000
  S   S8        1.0  0.32302  0.68811  0.50883  1.0000
  O   O1        1.0  0.25362  0.18130  0.95990  1.0000
  O   O2        1.0  0.74638  0.68130  0.54010  1.0000
  O   O3        1.0  0.74638  0.81870  0.04010  1.0000
  O   O4        1.0  0.25362  0.31870  0.45990  1.0000
  O   O5        1.0  0.12300  0.18470  0.90102  1.0000
  O   O6        1.0  0.87700  0.68470  0.59898  1.0000
  O   O7        1.0  0.87700  0.81530  0.09898  1.0000
  O   O8        1.0  0.12300  0.31530  0.40102  1.0000
  O   O9        1.0  0.13870  0.24940  0.00007  1.0000
  O   O10       1.0  0.86130  0.74940  0.49993  1.0000
  O   O11       1.0  0.86130  0.75060  0.99993  1.0000
  O   O12       1.0  0.13870  0.25060  0.50007  1.0000
  O   O13       1.0  0.36143  0.78420  0.06637  1.0000
  O   O14       1.0  0.63857  0.28420  0.43363  1.0000
  O   O15       1.0  0.63857  0.21580  0.93363  1.0000
  O   O16       1.0  0.36143  0.71580  0.56637  1.0000
  O   O17       1.0  0.35280  0.76240  0.96054  1.0000
  O   O18       1.0  0.64720  0.26240  0.53946  1.0000
  O   O19       1.0  0.64720  0.23760  0.03946  1.0000
  O   O20       1.0  0.35280  0.73760  0.46054  1.0000
  O   O21       1.0  0.23702  0.81730  0.00490  1.0000
  O   O22       1.0  0.76298  0.31730  0.49510  1.0000
  O   O23       1.0  0.76298  0.18270  0.99510  1.0000
  O   O24       1.0  0.23702  0.68270  0.50490  1.0000
  N   N1        1.0  0.15122  0.06750  0.98659  1.0000
  N   N2        1.0  0.84878  0.56750  0.51341  1.0000
  N   N3        1.0  0.84878  0.93250  0.01341  1.0000
  N   N4        1.0  0.15122  0.43250  0.48659  1.0000
  N   N5        1.0  0.34640  0.93250  0.99984  1.0000
  N   N6        1.0  0.65360  0.43250  0.50016  1.0000
  N   N7        1.0  0.65360  0.06750  0.00016  1.0000
  N   N8        1.0  0.34640  0.56750  0.49984  1.0000
  C   C1        1.0  0.07730  0.03850  0.99222  1.0000
  C   C2        1.0  0.92270  0.53850  0.50778  1.0000
  C   C3        1.0  0.92270  0.96150  0.00778  1.0000
  C   C4        1.0  0.07730  0.46150  0.49222  1.0000
  C   C5        1.0  0.00560  0.09780  0.98183  1.0000
  C   C6        1.0  0.99440  0.59780  0.51817  1.0000
  C   C7        1.0  0.99440  0.90220  0.01817  1.0000
  C   C8        1.0  0.00560  0.40220  0.48183  1.0000
  C   C9        1.0  0.06740  0.94010  0.01101  1.0000
  C   C10       1.0  0.93260  0.44010  0.48899  1.0000
  C   C11       1.0  0.93260  0.05990  0.98899  1.0000
  C   C12       1.0  0.06740  0.55990  0.51101  1.0000
  C   C13       1.0  0.42150  0.96100  0.99973  1.0000
  C   C14       1.0  0.57850  0.46100  0.50027  1.0000
  C   C15       1.0  0.57850  0.03900  0.00027  1.0000
  C   C16       1.0  0.42150  0.53900  0.49973  1.0000
  C   C17       1.0  0.43500  0.06300  0.99188  1.0000
  C   C18       1.0  0.56500  0.56300  0.50812  1.0000
  C   C19       1.0  0.56500  0.93700  0.00812  1.0000
  C   C20       1.0  0.43500  0.43700  0.49188  1.0000
  C   C21       1.0  0.49150  0.89840  0.00720  1.0000
  C   C22       1.0  0.50850  0.39840  0.49280  1.0000
  C   C23       1.0  0.50850  0.10160  0.99280  1.0000
  C   C24       1.0  0.49150  0.60160  0.50720  1.0000
  H   H1        1.0  0.00960  0.16190  0.97030  1.0000
  H   H2        1.0  0.99040  0.66190  0.52970  1.0000
  H   H3        1.0  0.99040  0.83810  0.02970  1.0000
  H   H4        1.0  0.00960  0.33810  0.47030  1.0000
  H   H5        1.0  0.11270  0.90110  0.01850  1.0000
  H   H6        1.0  0.88730  0.40110  0.48150  1.0000
  H   H7        1.0  0.88730  0.09890  0.98150  1.0000
  H   H8        1.0  0.11270  0.59890  0.51850  1.0000
  H   H9        1.0  0.39060  0.10380  0.98590  1.0000
  H   H10       1.0  0.60940  0.60380  0.51410  1.0000
  H   H11       1.0  0.60940  0.89620  0.01410  1.0000
  H   H12       1.0  0.39060  0.39620  0.48590  1.0000
  H   H13       1.0  0.48540  0.83210  0.01130  1.0000
  H   H14       1.0  0.51460  0.33210  0.48870  1.0000
  H   H15       1.0  0.51460  0.16790  0.98870  1.0000
  H   H16       1.0  0.48540  0.66790  0.51130  1.0000
