data_image0
_chemical_formula_structural       Zn18O90N54C54H18C18H18C54H18C18H18
_chemical_formula_sum              "Zn18 O90 N54 C144 H72"
_cell_length_a       26.9735
_cell_length_b       26.9735
_cell_length_c       11.1472
_cell_angle_alpha    90
_cell_angle_beta     90
_cell_angle_gamma    120

_space_group_name_H-M_alt    "P 1"
_space_group_IT_number       1

loop_
  _space_group_symop_operation_xyz
  'x, y, z'

loop_
  _atom_site_type_symbol
  _atom_site_label
  _atom_site_symmetry_multiplicity
  _atom_site_fract_x
  _atom_site_fract_y
  _atom_site_fract_z
  _atom_site_occupancy
  Zn  Zn1       1.0  0.91536  0.46855  0.23623  1.0000
  Zn  Zn2       1.0  0.53145  0.44681  0.23623  1.0000
  Zn  Zn3       1.0  0.55319  0.08464  0.23623  1.0000
  Zn  Zn4       1.0  0.55319  0.46855  0.73623  1.0000
  Zn  Zn5       1.0  0.91536  0.44681  0.73623  1.0000
  Zn  Zn6       1.0  0.53145  0.08464  0.73623  1.0000
  Zn  Zn7       1.0  0.58203  0.80188  0.56956  1.0000
  Zn  Zn8       1.0  0.19812  0.78014  0.56956  1.0000
  Zn  Zn9       1.0  0.21986  0.41797  0.56956  1.0000
  Zn  Zn10      1.0  0.21986  0.80188  0.06956  1.0000
  Zn  Zn11      1.0  0.58203  0.78014  0.06956  1.0000
  Zn  Zn12      1.0  0.19812  0.41797  0.06956  1.0000
  Zn  Zn13      1.0  0.24869  0.13522  0.90290  1.0000
  Zn  Zn14      1.0  0.86478  0.11348  0.90290  1.0000
  Zn  Zn15      1.0  0.88652  0.75131  0.90290  1.0000
  Zn  Zn16      1.0  0.88652  0.13522  0.40290  1.0000
  Zn  Zn17      1.0  0.24869  0.11348  0.40290  1.0000
  Zn  Zn18      1.0  0.86478  0.75131  0.40290  1.0000
  O   O1        1.0  0.98410  0.45880  0.25980  1.0000
  O   O2        1.0  0.54120  0.52530  0.25980  1.0000
  O   O3        1.0  0.47470  0.01590  0.25980  1.0000
  O   O4        1.0  0.47470  0.45880  0.75980  1.0000
  O   O5        1.0  0.98410  0.52530  0.75980  1.0000
  O   O6        1.0  0.54120  0.01590  0.75980  1.0000
  O   O7        1.0  0.65077  0.79213  0.59313  1.0000
  O   O8        1.0  0.20787  0.85863  0.59313  1.0000
  O   O9        1.0  0.14137  0.34923  0.59313  1.0000
  O   O10       1.0  0.14137  0.79213  0.09313  1.0000
  O   O11       1.0  0.65077  0.85863  0.09313  1.0000
  O   O12       1.0  0.20787  0.34923  0.09313  1.0000
  O   O13       1.0  0.31743  0.12547  0.92647  1.0000
  O   O14       1.0  0.87453  0.19197  0.92647  1.0000
  O   O15       1.0  0.80803  0.68257  0.92647  1.0000
  O   O16       1.0  0.80803  0.12547  0.42647  1.0000
  O   O17       1.0  0.31743  0.19197  0.42647  1.0000
  O   O18       1.0  0.87453  0.68257  0.42647  1.0000
  O   O19       1.0  0.90880  0.37250  0.27290  1.0000
  O   O20       1.0  0.62750  0.53630  0.27290  1.0000
  O   O21       1.0  0.46370  0.09120  0.27290  1.0000
  O   O22       1.0  0.46370  0.37250  0.77290  1.0000
  O   O23       1.0  0.90880  0.53630  0.77290  1.0000
  O   O24       1.0  0.62750  0.09120  0.77290  1.0000
  O   O25       1.0  0.57547  0.70583  0.60623  1.0000
  O   O26       1.0  0.29417  0.86963  0.60623  1.0000
  O   O27       1.0  0.13037  0.42453  0.60623  1.0000
  O   O28       1.0  0.13037  0.70583  0.10623  1.0000
  O   O29       1.0  0.57547  0.86963  0.10623  1.0000
  O   O30       1.0  0.29417  0.42453  0.10623  1.0000
  O   O31       1.0  0.24213  0.03917  0.93957  1.0000
  O   O32       1.0  0.96083  0.20297  0.93957  1.0000
  O   O33       1.0  0.79703  0.75787  0.93957  1.0000
  O   O34       1.0  0.79703  0.03917  0.43957  1.0000
  O   O35       1.0  0.24213  0.20297  0.43957  1.0000
  O   O36       1.0  0.96083  0.75787  0.43957  1.0000
  O   O37       1.0  0.96890  0.32390  0.31930  1.0000
  O   O38       1.0  0.67610  0.64500  0.31930  1.0000
  O   O39       1.0  0.35500  0.03110  0.31930  1.0000
  O   O40       1.0  0.35500  0.32390  0.81930  1.0000
  O   O41       1.0  0.96890  0.64500  0.81930  1.0000
  O   O42       1.0  0.67610  0.03110  0.81930  1.0000
  O   O43       1.0  0.63557  0.65723  0.65263  1.0000
  O   O44       1.0  0.34277  0.97833  0.65263  1.0000
  O   O45       1.0  0.02167  0.36443  0.65263  1.0000
  O   O46       1.0  0.02167  0.65723  0.15263  1.0000
  O   O47       1.0  0.63557  0.97833  0.15263  1.0000
  O   O48       1.0  0.34277  0.36443  0.15263  1.0000
  O   O49       1.0  0.30223  0.99057  0.98597  1.0000
  O   O50       1.0  0.00943  0.31167  0.98597  1.0000
  O   O51       1.0  0.68833  0.69777  0.98597  1.0000
  O   O52       1.0  0.68833  0.99057  0.48597  1.0000
  O   O53       1.0  0.30223  0.31167  0.48597  1.0000
  O   O54       1.0  0.00943  0.69777  0.48597  1.0000
  O   O55       1.0  0.92730  0.21770  0.36740  1.0000
  O   O56       1.0  0.78230  0.70960  0.36740  1.0000
  O   O57       1.0  0.29040  0.07270  0.36740  1.0000
  O   O58       1.0  0.29040  0.21770  0.86740  1.0000
  O   O59       1.0  0.92730  0.70960  0.86740  1.0000
  O   O60       1.0  0.78230  0.07270  0.86740  1.0000
  O   O61       1.0  0.59397  0.55103  0.70073  1.0000
  O   O62       1.0  0.44897  0.04293  0.70073  1.0000
  O   O63       1.0  0.95707  0.40603  0.70073  1.0000
  O   O64       1.0  0.95707  0.55103  0.20073  1.0000
  O   O65       1.0  0.59397  0.04293  0.20073  1.0000
  O   O66       1.0  0.44897  0.40603  0.20073  1.0000
  O   O67       1.0  0.26063  0.88437  0.03407  1.0000
  O   O68       1.0  0.11563  0.37627  0.03407  1.0000
  O   O69       1.0  0.62373  0.73937  0.03407  1.0000
  O   O70       1.0  0.62373  0.88437  0.53407  1.0000
  O   O71       1.0  0.26063  0.37627  0.53407  1.0000
  O   O72       1.0  0.11563  0.73937  0.53407  1.0000
  O   O73       1.0  0.01230  0.22280  0.36430  1.0000
  O   O74       1.0  0.77720  0.78950  0.36430  1.0000
  O   O75       1.0  0.21050  0.98770  0.36430  1.0000
  O   O76       1.0  0.21050  0.22280  0.86430  1.0000
  O   O77       1.0  0.01230  0.78950  0.86430  1.0000
  O   O78       1.0  0.77720  0.98770  0.86430  1.0000
  O   O79       1.0  0.67897  0.55613  0.69763  1.0000
  O   O80       1.0  0.44387  0.12283  0.69763  1.0000
  O   O81       1.0  0.87717  0.32103  0.69763  1.0000
  O   O82       1.0  0.87717  0.55613  0.19763  1.0000
  O   O83       1.0  0.67897  0.12283  0.19763  1.0000
  O   O84       1.0  0.44387  0.32103  0.19763  1.0000
  O   O85       1.0  0.34563  0.88947  0.03097  1.0000
  O   O86       1.0  0.11053  0.45617  0.03097  1.0000
  O   O87       1.0  0.54383  0.65437  0.03097  1.0000
  O   O88       1.0  0.54383  0.88947  0.53097  1.0000
  O   O89       1.0  0.34563  0.45617  0.53097  1.0000
  O   O90       1.0  0.11053  0.65437  0.53097  1.0000
  N   N1        1.0  0.87660  0.45580  0.39420  1.0000
  N   N2        1.0  0.54420  0.42080  0.39420  1.0000
  N   N3        1.0  0.57920  0.12340  0.39420  1.0000
  N   N4        1.0  0.57920  0.45580  0.89420  1.0000
  N   N5        1.0  0.87660  0.42080  0.89420  1.0000
  N   N6        1.0  0.54420  0.12340  0.89420  1.0000
  N   N7        1.0  0.54327  0.78913  0.72753  1.0000
  N   N8        1.0  0.21087  0.75413  0.72753  1.0000
  N   N9        1.0  0.24587  0.45673  0.72753  1.0000
  N   N10       1.0  0.24587  0.78913  0.22753  1.0000
  N   N11       1.0  0.54327  0.75413  0.22753  1.0000
  N   N12       1.0  0.21087  0.45673  0.22753  1.0000
  N   N13       1.0  0.20993  0.12247  0.06087  1.0000
  N   N14       1.0  0.87753  0.08747  0.06087  1.0000
  N   N15       1.0  0.91253  0.79007  0.06087  1.0000
  N   N16       1.0  0.91253  0.12247  0.56087  1.0000
  N   N17       1.0  0.20993  0.08747  0.56087  1.0000
  N   N18       1.0  0.87753  0.79007  0.56087  1.0000
  N   N19       1.0  0.90580  0.45450  0.48660  1.0000
  N   N20       1.0  0.54550  0.45130  0.48660  1.0000
  N   N21       1.0  0.54870  0.09420  0.48660  1.0000
  N   N22       1.0  0.54870  0.45450  0.98660  1.0000
  N   N23       1.0  0.90580  0.45130  0.98660  1.0000
  N   N24       1.0  0.54550  0.09420  0.98660  1.0000
  N   N25       1.0  0.57247  0.78783  0.81993  1.0000
  N   N26       1.0  0.21217  0.78463  0.81993  1.0000
  N   N27       1.0  0.21537  0.42753  0.81993  1.0000
  N   N28       1.0  0.21537  0.78783  0.31993  1.0000
  N   N29       1.0  0.57247  0.78463  0.31993  1.0000
  N   N30       1.0  0.21217  0.42753  0.31993  1.0000
  N   N31       1.0  0.23913  0.12117  0.15327  1.0000
  N   N32       1.0  0.87883  0.11797  0.15327  1.0000
  N   N33       1.0  0.88203  0.76087  0.15327  1.0000
  N   N34       1.0  0.88203  0.12117  0.65327  1.0000
  N   N35       1.0  0.23913  0.11797  0.65327  1.0000
  N   N36       1.0  0.87883  0.76087  0.65327  1.0000
  N   N37       1.0  0.87610  0.44500  0.58540  1.0000
  N   N38       1.0  0.55500  0.43110  0.58540  1.0000
  N   N39       1.0  0.56890  0.12390  0.58540  1.0000
  N   N40       1.0  0.56890  0.44500  0.08540  1.0000
  N   N41       1.0  0.87610  0.43110  0.08540  1.0000
  N   N42       1.0  0.55500  0.12390  0.08540  1.0000
  N   N43       1.0  0.54277  0.77833  0.91873  1.0000
  N   N44       1.0  0.22167  0.76443  0.91873  1.0000
  N   N45       1.0  0.23557  0.45723  0.91873  1.0000
  N   N46       1.0  0.23557  0.77833  0.41873  1.0000
  N   N47       1.0  0.54277  0.76443  0.41873  1.0000
  N   N48       1.0  0.22167  0.45723  0.41873  1.0000
  N   N49       1.0  0.20943  0.11167  0.25207  1.0000
  N   N50       1.0  0.88833  0.09777  0.25207  1.0000
  N   N51       1.0  0.90223  0.79057  0.25207  1.0000
  N   N52       1.0  0.90223  0.11167  0.75207  1.0000
  N   N53       1.0  0.20943  0.09777  0.75207  1.0000
  N   N54       1.0  0.88833  0.79057  0.75207  1.0000
  C   C1        1.0  0.96000  0.40490  0.27740  1.0000
  C   C2        1.0  0.59510  0.55510  0.27740  1.0000
  C   C3        1.0  0.44490  0.04000  0.27740  1.0000
  C   C4        1.0  0.44490  0.40490  0.77740  1.0000
  C   C5        1.0  0.96000  0.55510  0.77740  1.0000
  C   C6        1.0  0.59510  0.04000  0.77740  1.0000
  C   C7        1.0  0.62667  0.73823  0.61073  1.0000
  C   C8        1.0  0.26177  0.88843  0.61073  1.0000
  C   C9        1.0  0.11157  0.37333  0.61073  1.0000
  C   C10       1.0  0.11157  0.73823  0.11073  1.0000
  C   C11       1.0  0.62667  0.88843  0.11073  1.0000
  C   C12       1.0  0.26177  0.37333  0.11073  1.0000
  C   C13       1.0  0.29333  0.07157  0.94407  1.0000
  C   C14       1.0  0.92843  0.22177  0.94407  1.0000
  C   C15       1.0  0.77823  0.70667  0.94407  1.0000
  C   C16       1.0  0.77823  0.07157  0.44407  1.0000
  C   C17       1.0  0.29333  0.22177  0.44407  1.0000
  C   C18       1.0  0.92843  0.70667  0.44407  1.0000
  C   C19       1.0  0.99850  0.38150  0.30160  1.0000
  C   C20       1.0  0.61850  0.61700  0.30160  1.0000
  C   C21       1.0  0.38300  0.00150  0.30160  1.0000
  C   C22       1.0  0.38300  0.38150  0.80160  1.0000
  C   C23       1.0  0.99850  0.61700  0.80160  1.0000
  C   C24       1.0  0.61850  0.00150  0.80160  1.0000
  C   C25       1.0  0.66517  0.71483  0.63493  1.0000
  C   C26       1.0  0.28517  0.95033  0.63493  1.0000
  C   C27       1.0  0.04967  0.33483  0.63493  1.0000
  C   C28       1.0  0.04967  0.71483  0.13493  1.0000
  C   C29       1.0  0.66517  0.95033  0.13493  1.0000
  C   C30       1.0  0.28517  0.33483  0.13493  1.0000
  C   C31       1.0  0.33183  0.04817  0.96827  1.0000
  C   C32       1.0  0.95183  0.28367  0.96827  1.0000
  C   C33       1.0  0.71633  0.66817  0.96827  1.0000
  C   C34       1.0  0.71633  0.04817  0.46827  1.0000
  C   C35       1.0  0.33183  0.28367  0.46827  1.0000
  C   C36       1.0  0.95183  0.66817  0.46827  1.0000
  C   C37       1.0  0.05420  0.39960  0.30450  1.0000
  C   C38       1.0  0.60040  0.65460  0.30450  1.0000
  C   C39       1.0  0.34540  0.94580  0.30450  1.0000
  C   C40       1.0  0.34540  0.39960  0.80450  1.0000
  C   C41       1.0  0.05420  0.65460  0.80450  1.0000
  C   C42       1.0  0.60040  0.94580  0.80450  1.0000
  C   C43       1.0  0.72087  0.73293  0.63783  1.0000
  C   C44       1.0  0.26707  0.98793  0.63783  1.0000
  C   C45       1.0  0.01207  0.27913  0.63783  1.0000
  C   C46       1.0  0.01207  0.73293  0.13783  1.0000
  C   C47       1.0  0.72087  0.98793  0.13783  1.0000
  C   C48       1.0  0.26707  0.27913  0.13783  1.0000
  C   C49       1.0  0.38753  0.06627  0.97117  1.0000
  C   C50       1.0  0.93373  0.32127  0.97117  1.0000
  C   C51       1.0  0.67873  0.61247  0.97117  1.0000
  C   C52       1.0  0.67873  0.06627  0.47117  1.0000
  C   C53       1.0  0.38753  0.32127  0.47117  1.0000
  C   C54       1.0  0.93373  0.61247  0.47117  1.0000
  H   H1        1.0  0.08418  0.43803  0.29446  1.0000
  H   H2        1.0  0.56197  0.64615  0.29446  1.0000
  H   H3        1.0  0.35385  0.91582  0.29446  1.0000
  H   H4        1.0  0.35385  0.43803  0.79446  1.0000
  H   H5        1.0  0.08418  0.64615  0.79446  1.0000
  H   H6        1.0  0.56197  0.91582  0.79446  1.0000
  H   H7        1.0  0.75085  0.77136  0.62779  1.0000
  H   H8        1.0  0.22864  0.97948  0.62779  1.0000
  H   H9        1.0  0.02052  0.24915  0.62779  1.0000
  H   H10       1.0  0.02052  0.77136  0.12779  1.0000
  H   H11       1.0  0.75085  0.97948  0.12779  1.0000
  H   H12       1.0  0.22864  0.24915  0.12779  1.0000
  H   H13       1.0  0.41751  0.10470  0.96113  1.0000
  H   H14       1.0  0.89530  0.31282  0.96113  1.0000
  H   H15       1.0  0.68718  0.58249  0.96113  1.0000
  H   H16       1.0  0.68718  0.10470  0.46113  1.0000
  H   H17       1.0  0.41751  0.31282  0.46113  1.0000
  H   H18       1.0  0.89530  0.58249  0.46113  1.0000
  C   C55       1.0  0.06090  0.35110  0.32540  1.0000
  C   C56       1.0  0.64890  0.70980  0.32540  1.0000
  C   C57       1.0  0.29020  0.93910  0.32540  1.0000
  C   C58       1.0  0.29020  0.35110  0.82540  1.0000
  C   C59       1.0  0.06090  0.70980  0.82540  1.0000
  C   C60       1.0  0.64890  0.93910  0.82540  1.0000
  C   C61       1.0  0.72757  0.68443  0.65873  1.0000
  C   C62       1.0  0.31557  0.04313  0.65873  1.0000
  C   C63       1.0  0.95687  0.27243  0.65873  1.0000
  C   C64       1.0  0.95687  0.68443  0.15873  1.0000
  C   C65       1.0  0.72757  0.04313  0.15873  1.0000
  C   C66       1.0  0.31557  0.27243  0.15873  1.0000
  C   C67       1.0  0.39423  0.01777  0.99207  1.0000
  C   C68       1.0  0.98223  0.37647  0.99207  1.0000
  C   C69       1.0  0.62353  0.60577  0.99207  1.0000
  C   C70       1.0  0.62353  0.01777  0.49207  1.0000
  C   C71       1.0  0.39423  0.37647  0.49207  1.0000
  C   C72       1.0  0.98223  0.60577  0.49207  1.0000
  H   H19       1.0  0.09588  0.35067  0.33171  1.0000
  H   H20       1.0  0.64933  0.74521  0.33171  1.0000
  H   H21       1.0  0.25479  0.90412  0.33171  1.0000
  H   H22       1.0  0.25479  0.35067  0.83171  1.0000
  H   H23       1.0  0.09588  0.74521  0.83171  1.0000
  H   H24       1.0  0.64933  0.90412  0.83171  1.0000
  H   H25       1.0  0.76255  0.68400  0.66504  1.0000
  H   H26       1.0  0.31600  0.07854  0.66504  1.0000
  H   H27       1.0  0.92146  0.23745  0.66504  1.0000
  H   H28       1.0  0.92146  0.68400  0.16504  1.0000
  H   H29       1.0  0.76255  0.07854  0.16504  1.0000
  H   H30       1.0  0.31600  0.23745  0.16504  1.0000
  H   H31       1.0  0.42921  0.01734  0.99838  1.0000
  H   H32       1.0  0.98266  0.41188  0.99838  1.0000
  H   H33       1.0  0.58812  0.57079  0.99838  1.0000
  H   H34       1.0  0.58812  0.01734  0.49838  1.0000
  H   H35       1.0  0.42921  0.41188  0.49838  1.0000
  H   H36       1.0  0.98266  0.57079  0.49838  1.0000
  C   C73       1.0  0.00750  0.30590  0.33420  1.0000
  C   C74       1.0  0.69410  0.70160  0.33420  1.0000
  C   C75       1.0  0.29840  0.99250  0.33420  1.0000
  C   C76       1.0  0.29840  0.30590  0.83420  1.0000
  C   C77       1.0  0.00750  0.70160  0.83420  1.0000
  C   C78       1.0  0.69410  0.99250  0.83420  1.0000
  C   C79       1.0  0.67417  0.63923  0.66753  1.0000
  C   C80       1.0  0.36077  0.03493  0.66753  1.0000
  C   C81       1.0  0.96507  0.32583  0.66753  1.0000
  C   C82       1.0  0.96507  0.63923  0.16753  1.0000
  C   C83       1.0  0.67417  0.03493  0.16753  1.0000
  C   C84       1.0  0.36077  0.32583  0.16753  1.0000
  C   C85       1.0  0.34083  0.97257  0.00087  1.0000
  C   C86       1.0  0.02743  0.36827  0.00087  1.0000
  C   C87       1.0  0.63173  0.65917  0.00087  1.0000
  C   C88       1.0  0.63173  0.97257  0.50087  1.0000
  C   C89       1.0  0.34083  0.36827  0.50087  1.0000
  C   C90       1.0  0.02743  0.65917  0.50087  1.0000
  C   C91       1.0  0.98200  0.24410  0.35640  1.0000
  C   C92       1.0  0.75590  0.73790  0.35640  1.0000
  C   C93       1.0  0.26210  0.01800  0.35640  1.0000
  C   C94       1.0  0.26210  0.24410  0.85640  1.0000
  C   C95       1.0  0.98200  0.73790  0.85640  1.0000
  C   C96       1.0  0.75590  0.01800  0.85640  1.0000
  C   C97       1.0  0.64867  0.57743  0.68973  1.0000
  C   C98       1.0  0.42257  0.07123  0.68973  1.0000
  C   C99       1.0  0.92877  0.35133  0.68973  1.0000
  C   C100      1.0  0.92877  0.57743  0.18973  1.0000
  C   C101      1.0  0.64867  0.07123  0.18973  1.0000
  C   C102      1.0  0.42257  0.35133  0.18973  1.0000
  C   C103      1.0  0.31533  0.91077  0.02307  1.0000
  C   C104      1.0  0.08923  0.40457  0.02307  1.0000
  C   C105      1.0  0.59543  0.68467  0.02307  1.0000
  C   C106      1.0  0.59543  0.91077  0.52307  1.0000
  C   C107      1.0  0.31533  0.40457  0.52307  1.0000
  C   C108      1.0  0.08923  0.68467  0.52307  1.0000
  C   C109      1.0  0.82590  0.43870  0.55770  1.0000
  C   C110      1.0  0.56130  0.38720  0.55770  1.0000
  C   C111      1.0  0.61280  0.17410  0.55770  1.0000
  C   C112      1.0  0.61280  0.43870  0.05770  1.0000
  C   C113      1.0  0.82590  0.38720  0.05770  1.0000
  C   C114      1.0  0.56130  0.17410  0.05770  1.0000
  C   C115      1.0  0.49257  0.77203  0.89103  1.0000
  C   C116      1.0  0.22797  0.72053  0.89103  1.0000
  C   C117      1.0  0.27947  0.50743  0.89103  1.0000
  C   C118      1.0  0.27947  0.77203  0.39103  1.0000
  C   C119      1.0  0.49257  0.72053  0.39103  1.0000
  C   C120      1.0  0.22797  0.50743  0.39103  1.0000
  C   C121      1.0  0.15923  0.10537  0.22437  1.0000
  C   C122      1.0  0.89463  0.05387  0.22437  1.0000
  C   C123      1.0  0.94613  0.84077  0.22437  1.0000
  C   C124      1.0  0.94613  0.10537  0.72437  1.0000
  C   C125      1.0  0.15923  0.05387  0.72437  1.0000
  C   C126      1.0  0.89463  0.84077  0.72437  1.0000
  H   H37       1.0  0.79545  0.43070  0.61126  1.0000
  H   H38       1.0  0.56930  0.36475  0.61126  1.0000
  H   H39       1.0  0.63525  0.20455  0.61126  1.0000
  H   H40       1.0  0.63525  0.43070  0.11126  1.0000
  H   H41       1.0  0.79545  0.36475  0.11126  1.0000
  H   H42       1.0  0.56930  0.20455  0.11126  1.0000
  H   H43       1.0  0.46212  0.76403  0.94459  1.0000
  H   H44       1.0  0.23597  0.69808  0.94459  1.0000
  H   H45       1.0  0.30192  0.53788  0.94459  1.0000
  H   H46       1.0  0.30192  0.76403  0.44459  1.0000
  H   H47       1.0  0.46212  0.69808  0.44459  1.0000
  H   H48       1.0  0.23597  0.53788  0.44459  1.0000
  H   H49       1.0  0.12878  0.09737  0.27793  1.0000
  H   H50       1.0  0.90263  0.03142  0.27793  1.0000
  H   H51       1.0  0.96858  0.87122  0.27793  1.0000
  H   H52       1.0  0.96858  0.09737  0.77793  1.0000
  H   H53       1.0  0.12878  0.03142  0.77793  1.0000
  H   H54       1.0  0.90263  0.87122  0.77793  1.0000
  C   C127      1.0  0.82640  0.44620  0.42990  1.0000
  C   C128      1.0  0.55380  0.38020  0.42990  1.0000
  C   C129      1.0  0.61980  0.17360  0.42990  1.0000
  C   C130      1.0  0.61980  0.44620  0.92990  1.0000
  C   C131      1.0  0.82640  0.38020  0.92990  1.0000
  C   C132      1.0  0.55380  0.17360  0.92990  1.0000
  C   C133      1.0  0.49307  0.77953  0.76323  1.0000
  C   C134      1.0  0.22047  0.71353  0.76323  1.0000
  C   C135      1.0  0.28647  0.50693  0.76323  1.0000
  C   C136      1.0  0.28647  0.77953  0.26323  1.0000
  C   C137      1.0  0.49307  0.71353  0.26323  1.0000
  C   C138      1.0  0.22047  0.50693  0.26323  1.0000
  C   C139      1.0  0.15973  0.11287  0.09657  1.0000
  C   C140      1.0  0.88713  0.04687  0.09657  1.0000
  C   C141      1.0  0.95313  0.84027  0.09657  1.0000
  C   C142      1.0  0.95313  0.11287  0.59657  1.0000
  C   C143      1.0  0.15973  0.04687  0.59657  1.0000
  C   C144      1.0  0.88713  0.84027  0.59657  1.0000
  H   H55       1.0  0.79658  0.44452  0.38173  1.0000
  H   H56       1.0  0.55548  0.35206  0.38173  1.0000
  H   H57       1.0  0.64794  0.20342  0.38173  1.0000
  H   H58       1.0  0.64794  0.44452  0.88173  1.0000
  H   H59       1.0  0.79658  0.35206  0.88173  1.0000
  H   H60       1.0  0.55548  0.20342  0.88173  1.0000
  H   H61       1.0  0.46325  0.77785  0.71506  1.0000
  H   H62       1.0  0.22215  0.68539  0.71506  1.0000
  H   H63       1.0  0.31461  0.53675  0.71506  1.0000
  H   H64       1.0  0.31461  0.77785  0.21506  1.0000
  H   H65       1.0  0.46325  0.68539  0.21506  1.0000
  H   H66       1.0  0.22215  0.53675  0.21506  1.0000
  H   H67       1.0  0.12991  0.11119  0.04840  1.0000
  H   H68       1.0  0.88881  0.01873  0.04840  1.0000
  H   H69       1.0  0.98127  0.87009  0.04840  1.0000
  H   H70       1.0  0.98127  0.11119  0.54840  1.0000
  H   H71       1.0  0.12991  0.01873  0.54840  1.0000
  H   H72       1.0  0.88881  0.87009  0.54840  1.0000
