data_image0
_chemical_formula_structural       C4H2C8H2C8H2C6H4C2H4C2H4C2H4Cu6N2H4N2H6N2H4N2H4O12S6
_chemical_formula_sum              "C32 H40 Cu6 N8 O12 S6"
_cell_length_a       9.7569
_cell_length_b       12.5112
_cell_length_c       14.8622
_cell_angle_alpha    107.918
_cell_angle_beta     103.421
_cell_angle_gamma    96.912

_space_group_name_H-M_alt    "P 1"
_space_group_IT_number       1

loop_
  _space_group_symop_operation_xyz
  'x, y, z'

loop_
  _atom_site_type_symbol
  _atom_site_label
  _atom_site_symmetry_multiplicity
  _atom_site_fract_x
  _atom_site_fract_y
  _atom_site_fract_z
  _atom_site_occupancy
  C   C1        1.0  0.89200  0.90186  0.43608  1.0000
  C   C2        1.0  0.10800  0.09814  0.56392  1.0000
  C   C3        1.0  0.97000  0.97081  0.39927  1.0000
  C   C4        1.0  0.03000  0.02919  0.60073  1.0000
  H   H1        1.0  0.95060  0.95080  0.32980  1.0000
  H   H2        1.0  0.04940  0.04920  0.67020  1.0000
  C   C5        1.0  0.92430  0.93171  0.53920  1.0000
  C   C6        1.0  0.07570  0.06829  0.46080  1.0000
  C   C7        1.0  0.85130  0.86140  0.58795  1.0000
  C   C8        1.0  0.14870  0.13860  0.41205  1.0000
  C   C9        1.0  0.99610  0.60102  0.07440  1.0000
  C   C10       1.0  0.00390  0.39898  0.92560  1.0000
  C   C11       1.0  0.91800  0.57583  0.97649  1.0000
  C   C12       1.0  0.08200  0.42417  0.02351  1.0000
  H   H3        1.0  0.86160  0.62750  0.95980  1.0000
  H   H4        1.0  0.13840  0.37250  0.04020  1.0000
  C   C13       1.0  0.07880  0.52364  0.09744  1.0000
  C   C14       1.0  0.92120  0.47636  0.90256  1.0000
  C   C15       1.0  0.16390  0.54431  0.20273  1.0000
  C   C16       1.0  0.83610  0.45569  0.79727  1.0000
  C   C17       1.0  0.60550  0.97576  0.07180  1.0000
  C   C18       1.0  0.39450  0.02424  0.92820  1.0000
  C   C19       1.0  0.51410  0.05081  0.09786  1.0000
  C   C20       1.0  0.48590  0.94919  0.90214  1.0000
  H   H5        1.0  0.52400  0.08710  0.16600  1.0000
  H   H6        1.0  0.47600  0.91290  0.83400  1.0000
  C   C21       1.0  0.59080  0.92432  0.97044  1.0000
  C   C22       1.0  0.40920  0.07568  0.02956  1.0000
  C   C23       1.0  0.68340  0.84579  0.92611  1.0000
  C   C24       1.0  0.31660  0.15421  0.07389  1.0000
  C   C25       1.0  0.34230  0.78780  0.10545  1.0000
  C   C26       1.0  0.65770  0.21220  0.89455  1.0000
  H   H7        1.0  0.24610  0.73760  0.06960  1.0000
  H   H8        1.0  0.75390  0.26240  0.93040  1.0000
  H   H9        1.0  0.37160  0.82780  0.06270  1.0000
  H   H10       1.0  0.62840  0.17220  0.93730  1.0000
  C   C27       1.0  0.33680  0.87440  0.20058  1.0000
  C   C28       1.0  0.66320  0.12560  0.79942  1.0000
  H   H11       1.0  0.30750  0.83360  0.24270  1.0000
  H   H12       1.0  0.69250  0.16640  0.75730  1.0000
  H   H13       1.0  0.43390  0.92300  0.23660  1.0000
  H   H14       1.0  0.56610  0.07700  0.76340  1.0000
  C   C29       1.0  0.67790  0.43040  0.21180  1.0000
  C   C30       1.0  0.32210  0.56960  0.78820  1.0000
  H   H15       1.0  0.70730  0.44990  0.28430  1.0000
  H   H16       1.0  0.29270  0.55010  0.71570  1.0000
  H   H17       1.0  0.67390  0.34740  0.18060  1.0000
  H   H18       1.0  0.32610  0.65260  0.81940  1.0000
  C   C31       1.0  0.53160  0.45750  0.17880  1.0000
  C   C32       1.0  0.46840  0.54250  0.82120  1.0000
  H   H19       1.0  0.46120  0.41630  0.20150  1.0000
  H   H20       1.0  0.53880  0.58370  0.79850  1.0000
  H   H21       1.0  0.53700  0.54090  0.20870  1.0000
  H   H22       1.0  0.46300  0.45910  0.79130  1.0000
  Cu  Cu1       1.0  0.82812  0.67464  0.24092  1.0000
  Cu  Cu2       1.0  0.17188  0.32536  0.75908  1.0000
  Cu  Cu3       1.0  0.83288  0.81745  0.11677  1.0000
  Cu  Cu4       1.0  0.16712  0.18255  0.88323  1.0000
  Cu  Cu5       1.0  0.64528  0.81484  0.21964  1.0000
  Cu  Cu6       1.0  0.35472  0.18516  0.78036  1.0000
  N   N1        1.0  0.44760  0.71873  0.13007  1.0000
  N   N2        1.0  0.55240  0.28127  0.86993  1.0000
  H   H23       1.0  0.45910  0.67110  0.07250  1.0000
  H   H24       1.0  0.54090  0.32890  0.92750  1.0000
  H   H25       1.0  0.41130  0.67310  0.16080  1.0000
  H   H26       1.0  0.58870  0.32690  0.83920  1.0000
  N   N3        1.0  0.23360  0.94841  0.18157  1.0000
  N   N4        1.0  0.76640  0.05159  0.81843  1.0000
  H   H27       1.0  0.27830  0.00820  0.16920  1.0000
  H   H28       1.0  0.72170  0.99180  0.83080  1.0000
  H   H29       1.0  0.20160  0.97580  0.23540  1.0000
  H   H30       1.0  0.79840  0.02420  0.76460  1.0000
  H   H31       1.0  0.15750  0.90650  0.12850  1.0000
  H   H32       1.0  0.84250  0.09350  0.87150  1.0000
  N   N5        1.0  0.78250  0.49768  0.18304  1.0000
  N   N6        1.0  0.21750  0.50232  0.81696  1.0000
  H   H33       1.0  0.75140  0.47700  0.11550  1.0000
  H   H34       1.0  0.24860  0.52300  0.88450  1.0000
  H   H35       1.0  0.86810  0.47410  0.19770  1.0000
  H   H36       1.0  0.13190  0.52590  0.80230  1.0000
  N   N7        1.0  0.48230  0.42230  0.06910  1.0000
  N   N8        1.0  0.51770  0.57770  0.93090  1.0000
  H   H37       1.0  0.43200  0.46800  0.04100  1.0000
  H   H38       1.0  0.56800  0.53200  0.95900  1.0000
  H   H39       1.0  0.41200  0.35400  0.04300  1.0000
  H   H40       1.0  0.58800  0.64600  0.95700  1.0000
  O   O1        1.0  0.78880  0.91110  0.64790  1.0000
  O   O2        1.0  0.21120  0.08890  0.35210  1.0000
  O   O3        1.0  0.86180  0.75799  0.56868  1.0000
  O   O4        1.0  0.13820  0.24201  0.43132  1.0000
  O   O5        1.0  0.28578  0.60961  0.23491  1.0000
  O   O6        1.0  0.71422  0.39039  0.76509  1.0000
  O   O7        1.0  0.10569  0.49351  0.24962  1.0000
  O   O8        1.0  0.89431  0.50649  0.75038  1.0000
  O   O9        1.0  0.69880  0.84616  0.84442  1.0000
  O   O10       1.0  0.30120  0.15384  0.15558  1.0000
  O   O11       1.0  0.74197  0.78382  0.96904  1.0000
  O   O12       1.0  0.25803  0.21618  0.03096  1.0000
  S   S1        1.0  0.74680  0.78378  0.35812  1.0000
  S   S2        1.0  0.25320  0.21622  0.64188  1.0000
  S   S3        1.0  0.99385  0.72806  0.17030  1.0000
  S   S4        1.0  0.00615  0.27194  0.82970  1.0000
  S   S5        1.0  0.73215  0.96243  0.17287  1.0000
  S   S6        1.0  0.26785  0.03757  0.82713  1.0000
