data_image0
_chemical_formula_structural       Mn4Cu4I4Mo24O88N8C8H16C8H16C24H16C8H8C8H8C8H8C8H8O8
_chemical_formula_sum              "Mn4 Cu4 I4 Mo24 O96 N8 C72 H80"
_cell_length_a       28.172
_cell_length_b       26.818
_cell_length_c       14.157
_cell_angle_alpha    90
_cell_angle_beta     114.778
_cell_angle_gamma    90

_space_group_name_H-M_alt    "P 1"
_space_group_IT_number       1

loop_
  _space_group_symop_operation_xyz
  'x, y, z'

loop_
  _atom_site_type_symbol
  _atom_site_label
  _atom_site_symmetry_multiplicity
  _atom_site_fract_x
  _atom_site_fract_y
  _atom_site_fract_z
  _atom_site_occupancy
  Mn  Mn1       1.0  0.25000  0.25000  0.00000  1.0000
  Mn  Mn2       1.0  0.75000  0.25000  0.00000  1.0000
  Mn  Mn3       1.0  0.75000  0.75000  0.00000  1.0000
  Mn  Mn4       1.0  0.25000  0.75000  0.00000  1.0000
  Cu  Cu1       1.0  0.50000  0.04741  0.50000  1.0000
  Cu  Cu2       1.0  0.00000  0.54741  0.50000  1.0000
  Cu  Cu3       1.0  0.50000  0.95259  0.50000  1.0000
  Cu  Cu4       1.0  0.00000  0.45259  0.50000  1.0000
  I   I1        1.0  0.54977  0.00000  0.40442  1.0000
  I   I2        1.0  0.45023  0.00000  0.59558  1.0000
  I   I3        1.0  0.04977  0.50000  0.40442  1.0000
  I   I4        1.0  0.95023  0.50000  0.59558  1.0000
  Mo  Mo1       1.0  0.27572  0.33401  0.18545  1.0000
  Mo  Mo2       1.0  0.72428  0.33401  0.81455  1.0000
  Mo  Mo3       1.0  0.77572  0.83401  0.18545  1.0000
  Mo  Mo4       1.0  0.22428  0.83401  0.81455  1.0000
  Mo  Mo5       1.0  0.72428  0.66599  0.81455  1.0000
  Mo  Mo6       1.0  0.27572  0.66599  0.18545  1.0000
  Mo  Mo7       1.0  0.22428  0.16599  0.81455  1.0000
  Mo  Mo8       1.0  0.77572  0.16599  0.18545  1.0000
  Mo  Mo9       1.0  0.34178  0.33549  0.03860  1.0000
  Mo  Mo10      1.0  0.65822  0.33549  0.96140  1.0000
  Mo  Mo11      1.0  0.84178  0.83549  0.03860  1.0000
  Mo  Mo12      1.0  0.15822  0.83549  0.96140  1.0000
  Mo  Mo13      1.0  0.65822  0.66451  0.96140  1.0000
  Mo  Mo14      1.0  0.34178  0.66451  0.03860  1.0000
  Mo  Mo15      1.0  0.15822  0.16451  0.96140  1.0000
  Mo  Mo16      1.0  0.84178  0.16451  0.03860  1.0000
  Mo  Mo17      1.0  0.31625  0.25236  0.85369  1.0000
  Mo  Mo18      1.0  0.68375  0.25236  0.14631  1.0000
  Mo  Mo19      1.0  0.81625  0.75236  0.85369  1.0000
  Mo  Mo20      1.0  0.18375  0.75236  0.14631  1.0000
  Mo  Mo21      1.0  0.68375  0.74764  0.14631  1.0000
  Mo  Mo22      1.0  0.31625  0.74764  0.85369  1.0000
  Mo  Mo23      1.0  0.18375  0.24764  0.14631  1.0000
  Mo  Mo24      1.0  0.81625  0.24764  0.85369  1.0000
  O   O1        1.0  0.31451  0.27594  0.12120  1.0000
  O   O2        1.0  0.68549  0.27594  0.87880  1.0000
  O   O3        1.0  0.81451  0.77594  0.12120  1.0000
  O   O4        1.0  0.18549  0.77594  0.87880  1.0000
  O   O5        1.0  0.68549  0.72406  0.87880  1.0000
  O   O6        1.0  0.31451  0.72406  0.12120  1.0000
  O   O7        1.0  0.18549  0.22406  0.87880  1.0000
  O   O8        1.0  0.81451  0.22406  0.12120  1.0000
  O   O9        1.0  0.23353  0.20054  0.08400  1.0000
  O   O10       1.0  0.76647  0.20054  0.91600  1.0000
  O   O11       1.0  0.73353  0.70054  0.08400  1.0000
  O   O12       1.0  0.26647  0.70054  0.91600  1.0000
  O   O13       1.0  0.76647  0.79946  0.91600  1.0000
  O   O14       1.0  0.23353  0.79946  0.08400  1.0000
  O   O15       1.0  0.26647  0.29946  0.91600  1.0000
  O   O16       1.0  0.73353  0.29946  0.08400  1.0000
  O   O17       1.0  0.36190  0.27780  0.98430  1.0000
  O   O18       1.0  0.63810  0.27780  0.01570  1.0000
  O   O19       1.0  0.86190  0.77780  0.98430  1.0000
  O   O20       1.0  0.13810  0.77780  0.01570  1.0000
  O   O21       1.0  0.63810  0.72220  0.01570  1.0000
  O   O22       1.0  0.36190  0.72220  0.98430  1.0000
  O   O23       1.0  0.13810  0.22220  0.01570  1.0000
  O   O24       1.0  0.86190  0.22220  0.98430  1.0000
  O   O25       1.0  0.24820  0.22480  0.76990  1.0000
  O   O26       1.0  0.75180  0.22480  0.23010  1.0000
  O   O27       1.0  0.74820  0.72480  0.76990  1.0000
  O   O28       1.0  0.25180  0.72480  0.23010  1.0000
  O   O29       1.0  0.75180  0.77520  0.23010  1.0000
  O   O30       1.0  0.24820  0.77520  0.76990  1.0000
  O   O31       1.0  0.25180  0.27520  0.23010  1.0000
  O   O32       1.0  0.74820  0.27520  0.76990  1.0000
  O   O33       1.0  0.39970  0.34280  0.14720  1.0000
  O   O34       1.0  0.60030  0.34280  0.85280  1.0000
  O   O35       1.0  0.89970  0.84280  0.14720  1.0000
  O   O36       1.0  0.10030  0.84280  0.85280  1.0000
  O   O37       1.0  0.60030  0.65720  0.85280  1.0000
  O   O38       1.0  0.39970  0.65720  0.14720  1.0000
  O   O39       1.0  0.10030  0.15720  0.85280  1.0000
  O   O40       1.0  0.89970  0.15720  0.14720  1.0000
  O   O41       1.0  0.33340  0.34100  0.29670  1.0000
  O   O42       1.0  0.66660  0.34100  0.70330  1.0000
  O   O43       1.0  0.83340  0.84100  0.29670  1.0000
  O   O44       1.0  0.16660  0.84100  0.70330  1.0000
  O   O45       1.0  0.66660  0.65900  0.70330  1.0000
  O   O46       1.0  0.33340  0.65900  0.29670  1.0000
  O   O47       1.0  0.16660  0.15900  0.70330  1.0000
  O   O48       1.0  0.83340  0.15900  0.29670  1.0000
  O   O49       1.0  0.29130  0.36510  0.08040  1.0000
  O   O50       1.0  0.70870  0.36510  0.91960  1.0000
  O   O51       1.0  0.79130  0.86510  0.08040  1.0000
  O   O52       1.0  0.20870  0.86510  0.91960  1.0000
  O   O53       1.0  0.70870  0.63490  0.91960  1.0000
  O   O54       1.0  0.29130  0.63490  0.08040  1.0000
  O   O55       1.0  0.20870  0.13490  0.91960  1.0000
  O   O56       1.0  0.79130  0.13490  0.08040  1.0000
  O   O57       1.0  0.23340  0.37850  0.19480  1.0000
  O   O58       1.0  0.76660  0.37850  0.80520  1.0000
  O   O59       1.0  0.73340  0.87850  0.19480  1.0000
  O   O60       1.0  0.26660  0.87850  0.80520  1.0000
  O   O61       1.0  0.76660  0.62150  0.80520  1.0000
  O   O62       1.0  0.23340  0.62150  0.19480  1.0000
  O   O63       1.0  0.26660  0.12150  0.80520  1.0000
  O   O64       1.0  0.73340  0.12150  0.19480  1.0000
  O   O65       1.0  0.35670  0.20390  0.84510  1.0000
  O   O66       1.0  0.64330  0.20390  0.15490  1.0000
  O   O67       1.0  0.85670  0.70390  0.84510  1.0000
  O   O68       1.0  0.14330  0.70390  0.15490  1.0000
  O   O69       1.0  0.64330  0.79610  0.15490  1.0000
  O   O70       1.0  0.35670  0.79610  0.84510  1.0000
  O   O71       1.0  0.14330  0.29610  0.15490  1.0000
  O   O72       1.0  0.85670  0.29610  0.84510  1.0000
  O   O73       1.0  0.31740  0.29950  0.77410  1.0000
  O   O74       1.0  0.68260  0.29950  0.22590  1.0000
  O   O75       1.0  0.81740  0.79950  0.77410  1.0000
  O   O76       1.0  0.18260  0.79950  0.22590  1.0000
  O   O77       1.0  0.68260  0.70050  0.22590  1.0000
  O   O78       1.0  0.31740  0.70050  0.77410  1.0000
  O   O79       1.0  0.18260  0.20050  0.22590  1.0000
  O   O80       1.0  0.81740  0.20050  0.77410  1.0000
  O   O81       1.0  0.34120  0.37940  0.95660  1.0000
  O   O82       1.0  0.65880  0.37940  0.04340  1.0000
  O   O83       1.0  0.84120  0.87940  0.95660  1.0000
  O   O84       1.0  0.15880  0.87940  0.04340  1.0000
  O   O85       1.0  0.65880  0.62060  0.04340  1.0000
  O   O86       1.0  0.34120  0.62060  0.95660  1.0000
  O   O87       1.0  0.15880  0.12060  0.04340  1.0000
  O   O88       1.0  0.84120  0.12060  0.95660  1.0000
  N   N1        1.0  0.44610  0.08955  0.38810  1.0000
  N   N2        1.0  0.55390  0.08955  0.61190  1.0000
  N   N3        1.0  0.94610  0.58955  0.38810  1.0000
  N   N4        1.0  0.05390  0.58955  0.61190  1.0000
  N   N5        1.0  0.55390  0.91045  0.61190  1.0000
  N   N6        1.0  0.44610  0.91045  0.38810  1.0000
  N   N7        1.0  0.05390  0.41045  0.61190  1.0000
  N   N8        1.0  0.94610  0.41045  0.38810  1.0000
  C   C1        1.0  0.27680  0.17290  0.15960  1.0000
  C   C2        1.0  0.72320  0.17290  0.84040  1.0000
  C   C3        1.0  0.77680  0.67290  0.15960  1.0000
  C   C4        1.0  0.22320  0.67290  0.84040  1.0000
  C   C5        1.0  0.72320  0.82710  0.84040  1.0000
  C   C6        1.0  0.27680  0.82710  0.15960  1.0000
  C   C7        1.0  0.22320  0.32710  0.84040  1.0000
  C   C8        1.0  0.77680  0.32710  0.15960  1.0000
  H   H1        1.0  0.26900  0.13680  0.14960  1.0000
  H   H2        1.0  0.73100  0.13680  0.85040  1.0000
  H   H3        1.0  0.76900  0.63680  0.14960  1.0000
  H   H4        1.0  0.23100  0.63680  0.85040  1.0000
  H   H5        1.0  0.73100  0.86320  0.85040  1.0000
  H   H6        1.0  0.26900  0.86320  0.14960  1.0000
  H   H7        1.0  0.23100  0.36320  0.85040  1.0000
  H   H8        1.0  0.76900  0.36320  0.14960  1.0000
  H   H9        1.0  0.28080  0.18190  0.23040  1.0000
  H   H10       1.0  0.71920  0.18190  0.76960  1.0000
  H   H11       1.0  0.78080  0.68190  0.23040  1.0000
  H   H12       1.0  0.21920  0.68190  0.76960  1.0000
  H   H13       1.0  0.71920  0.81810  0.76960  1.0000
  H   H14       1.0  0.28080  0.81810  0.23040  1.0000
  H   H15       1.0  0.21920  0.31810  0.76960  1.0000
  H   H16       1.0  0.78080  0.31810  0.23040  1.0000
  C   C9        1.0  0.32930  0.17240  0.04820  1.0000
  C   C10       1.0  0.67070  0.17240  0.95180  1.0000
  C   C11       1.0  0.82930  0.67240  0.04820  1.0000
  C   C12       1.0  0.17070  0.67240  0.95180  1.0000
  C   C13       1.0  0.67070  0.82760  0.95180  1.0000
  C   C14       1.0  0.32930  0.82760  0.04820  1.0000
  C   C15       1.0  0.17070  0.32760  0.95180  1.0000
  C   C16       1.0  0.82930  0.32760  0.04820  1.0000
  H   H17       1.0  0.32200  0.13650  0.03340  1.0000
  H   H18       1.0  0.67800  0.13650  0.96660  1.0000
  H   H19       1.0  0.82200  0.63650  0.03340  1.0000
  H   H20       1.0  0.17800  0.63650  0.96660  1.0000
  H   H21       1.0  0.67800  0.86350  0.96660  1.0000
  H   H22       1.0  0.32200  0.86350  0.03340  1.0000
  H   H23       1.0  0.17800  0.36350  0.96660  1.0000
  H   H24       1.0  0.82200  0.36350  0.03340  1.0000
  H   H25       1.0  0.36480  0.17890  0.05290  1.0000
  H   H26       1.0  0.63520  0.17890  0.94710  1.0000
  H   H27       1.0  0.86480  0.67890  0.05290  1.0000
  H   H28       1.0  0.13520  0.67890  0.94710  1.0000
  H   H29       1.0  0.63520  0.82110  0.94710  1.0000
  H   H30       1.0  0.36480  0.82110  0.05290  1.0000
  H   H31       1.0  0.13520  0.32110  0.94710  1.0000
  H   H32       1.0  0.86480  0.32110  0.05290  1.0000
  C   C17       1.0  0.37120  0.15100  0.23260  1.0000
  C   C18       1.0  0.62880  0.15100  0.76740  1.0000
  C   C19       1.0  0.87120  0.65100  0.23260  1.0000
  C   C20       1.0  0.12880  0.65100  0.76740  1.0000
  C   C21       1.0  0.62880  0.84900  0.76740  1.0000
  C   C22       1.0  0.37120  0.84900  0.23260  1.0000
  C   C23       1.0  0.12880  0.34900  0.76740  1.0000
  C   C24       1.0  0.87120  0.34900  0.23260  1.0000
  C   C25       1.0  0.32910  0.18350  0.15060  1.0000
  C   C26       1.0  0.67090  0.18350  0.84940  1.0000
  C   C27       1.0  0.82910  0.68350  0.15060  1.0000
  C   C28       1.0  0.17090  0.68350  0.84940  1.0000
  C   C29       1.0  0.67090  0.81650  0.84940  1.0000
  C   C30       1.0  0.32910  0.81650  0.15060  1.0000
  C   C31       1.0  0.17090  0.31650  0.84940  1.0000
  C   C32       1.0  0.82910  0.31650  0.15060  1.0000
  C   C33       1.0  0.34880  0.23770  0.18820  1.0000
  C   C34       1.0  0.65120  0.23770  0.81180  1.0000
  C   C35       1.0  0.84880  0.73770  0.18820  1.0000
  C   C36       1.0  0.15120  0.73770  0.81180  1.0000
  C   C37       1.0  0.65120  0.76230  0.81180  1.0000
  C   C38       1.0  0.34880  0.76230  0.18820  1.0000
  C   C39       1.0  0.15120  0.26230  0.81180  1.0000
  C   C40       1.0  0.84880  0.26230  0.18820  1.0000
  H   H33       1.0  0.35160  0.24220  0.25970  1.0000
  H   H34       1.0  0.64840  0.24220  0.74030  1.0000
  H   H35       1.0  0.85160  0.74220  0.25970  1.0000
  H   H36       1.0  0.14840  0.74220  0.74030  1.0000
  H   H37       1.0  0.64840  0.75780  0.74030  1.0000
  H   H38       1.0  0.35160  0.75780  0.25970  1.0000
  H   H39       1.0  0.14840  0.25780  0.74030  1.0000
  H   H40       1.0  0.85160  0.25780  0.25970  1.0000
  H   H41       1.0  0.38420  0.24190  0.19040  1.0000
  H   H42       1.0  0.61580  0.24190  0.80960  1.0000
  H   H43       1.0  0.88420  0.74190  0.19040  1.0000
  H   H44       1.0  0.11580  0.74190  0.80960  1.0000
  H   H45       1.0  0.61580  0.75810  0.80960  1.0000
  H   H46       1.0  0.38420  0.75810  0.19040  1.0000
  H   H47       1.0  0.11580  0.25810  0.80960  1.0000
  H   H48       1.0  0.88420  0.25810  0.19040  1.0000
  C   C41       1.0  0.39990  0.11670  0.20590  1.0000
  C   C42       1.0  0.60010  0.11670  0.79410  1.0000
  C   C43       1.0  0.89990  0.61670  0.20590  1.0000
  C   C44       1.0  0.10010  0.61670  0.79410  1.0000
  C   C45       1.0  0.60010  0.88330  0.79410  1.0000
  C   C46       1.0  0.39990  0.88330  0.20590  1.0000
  C   C47       1.0  0.10010  0.38330  0.79410  1.0000
  C   C48       1.0  0.89990  0.38330  0.20590  1.0000
  H   H49       1.0  0.39520  0.11300  0.13580  1.0000
  H   H50       1.0  0.60480  0.11300  0.86420  1.0000
  H   H51       1.0  0.89520  0.61300  0.13580  1.0000
  H   H52       1.0  0.10480  0.61300  0.86420  1.0000
  H   H53       1.0  0.60480  0.88700  0.86420  1.0000
  H   H54       1.0  0.39520  0.88700  0.13580  1.0000
  H   H55       1.0  0.10480  0.38700  0.86420  1.0000
  H   H56       1.0  0.89520  0.38700  0.13580  1.0000
  C   C49       1.0  0.38170  0.15310  0.33550  1.0000
  C   C50       1.0  0.61830  0.15310  0.66450  1.0000
  C   C51       1.0  0.88170  0.65310  0.33550  1.0000
  C   C52       1.0  0.11830  0.65310  0.66450  1.0000
  C   C53       1.0  0.61830  0.84690  0.66450  1.0000
  C   C54       1.0  0.38170  0.84690  0.33550  1.0000
  C   C55       1.0  0.11830  0.34690  0.66450  1.0000
  C   C56       1.0  0.88170  0.34690  0.33550  1.0000
  H   H57       1.0  0.36300  0.17650  0.35720  1.0000
  H   H58       1.0  0.63700  0.17650  0.64280  1.0000
  H   H59       1.0  0.86300  0.67650  0.35720  1.0000
  H   H60       1.0  0.13700  0.67650  0.64280  1.0000
  H   H61       1.0  0.63700  0.82350  0.64280  1.0000
  H   H62       1.0  0.36300  0.82350  0.35720  1.0000
  H   H63       1.0  0.13700  0.32350  0.64280  1.0000
  H   H64       1.0  0.86300  0.32350  0.35720  1.0000
  C   C57       1.0  0.43600  0.08740  0.28450  1.0000
  C   C58       1.0  0.56400  0.08740  0.71550  1.0000
  C   C59       1.0  0.93600  0.58740  0.28450  1.0000
  C   C60       1.0  0.06400  0.58740  0.71550  1.0000
  C   C61       1.0  0.56400  0.91260  0.71550  1.0000
  C   C62       1.0  0.43600  0.91260  0.28450  1.0000
  C   C63       1.0  0.06400  0.41260  0.71550  1.0000
  C   C64       1.0  0.93600  0.41260  0.28450  1.0000
  H   H65       1.0  0.45530  0.06380  0.26470  1.0000
  H   H66       1.0  0.54470  0.06380  0.73530  1.0000
  H   H67       1.0  0.95530  0.56380  0.26470  1.0000
  H   H68       1.0  0.04470  0.56380  0.73530  1.0000
  H   H69       1.0  0.54470  0.93620  0.73530  1.0000
  H   H70       1.0  0.45530  0.93620  0.26470  1.0000
  H   H71       1.0  0.04470  0.43620  0.73530  1.0000
  H   H72       1.0  0.95530  0.43620  0.26470  1.0000
  C   C65       1.0  0.41810  0.12290  0.41070  1.0000
  C   C66       1.0  0.58190  0.12290  0.58930  1.0000
  C   C67       1.0  0.91810  0.62290  0.41070  1.0000
  C   C68       1.0  0.08190  0.62290  0.58930  1.0000
  C   C69       1.0  0.58190  0.87710  0.58930  1.0000
  C   C70       1.0  0.41810  0.87710  0.41070  1.0000
  C   C71       1.0  0.08190  0.37710  0.58930  1.0000
  C   C72       1.0  0.91810  0.37710  0.41070  1.0000
  H   H73       1.0  0.42310  0.12650  0.48100  1.0000
  H   H74       1.0  0.57690  0.12650  0.51900  1.0000
  H   H75       1.0  0.92310  0.62650  0.48100  1.0000
  H   H76       1.0  0.07690  0.62650  0.51900  1.0000
  H   H77       1.0  0.57690  0.87350  0.51900  1.0000
  H   H78       1.0  0.42310  0.87350  0.48100  1.0000
  H   H79       1.0  0.07690  0.37350  0.51900  1.0000
  H   H80       1.0  0.92310  0.37350  0.48100  1.0000
  O   O89       1.0  0.29081  0.20160  0.95840  1.0000
  O   O90       1.0  0.70919  0.20160  0.04160  1.0000
  O   O91       1.0  0.79081  0.70160  0.95840  1.0000
  O   O92       1.0  0.20919  0.70160  0.04160  1.0000
  O   O93       1.0  0.70919  0.79840  0.04160  1.0000
  O   O94       1.0  0.29081  0.79840  0.95840  1.0000
  O   O95       1.0  0.20919  0.29840  0.04160  1.0000
  O   O96       1.0  0.79081  0.29840  0.95840  1.0000
