data_image0
_chemical_formula_structural       Al8P16F8O48C4H8C4H8C4H8C4H8
_chemical_formula_sum              "Al8 P16 F8 O48 C16 H32"
_cell_length_a       12.145
_cell_length_b       9.265
_cell_length_c       20.422
_cell_angle_alpha    90
_cell_angle_beta     104.952
_cell_angle_gamma    90

_space_group_name_H-M_alt    "P 1"
_space_group_IT_number       1

loop_
  _space_group_symop_operation_xyz
  'x, y, z'

loop_
  _atom_site_type_symbol
  _atom_site_label
  _atom_site_symmetry_multiplicity
  _atom_site_fract_x
  _atom_site_fract_y
  _atom_site_fract_z
  _atom_site_occupancy
  Al  Al1       1.0  0.17035  0.05763  0.16230  1.0000
  Al  Al2       1.0  0.32965  0.55763  0.33770  1.0000
  Al  Al3       1.0  0.82965  0.94237  0.83770  1.0000
  Al  Al4       1.0  0.67035  0.44237  0.66230  1.0000
  Al  Al5       1.0  0.11693  0.31053  0.27459  1.0000
  Al  Al6       1.0  0.38307  0.81053  0.22541  1.0000
  Al  Al7       1.0  0.88307  0.68947  0.72541  1.0000
  Al  Al8       1.0  0.61693  0.18947  0.77459  1.0000
  P   P1        1.0  0.98044  0.02217  0.24289  1.0000
  P   P2        1.0  0.51956  0.52217  0.25711  1.0000
  P   P3        1.0  0.01956  0.97783  0.75711  1.0000
  P   P4        1.0  0.48044  0.47783  0.74289  1.0000
  P   P5        1.0  0.19369  0.77252  0.08664  1.0000
  P   P6        1.0  0.30631  0.27252  0.41336  1.0000
  P   P7        1.0  0.80631  0.22748  0.91336  1.0000
  P   P8        1.0  0.69369  0.72748  0.58664  1.0000
  P   P9        1.0  0.04573  0.34833  0.11512  1.0000
  P   P10       1.0  0.45427  0.84833  0.38488  1.0000
  P   P11       1.0  0.95427  0.65167  0.88488  1.0000
  P   P12       1.0  0.54573  0.15167  0.61512  1.0000
  P   P13       1.0  0.07372  0.59752  0.34549  1.0000
  P   P14       1.0  0.42628  0.09752  0.15451  1.0000
  P   P15       1.0  0.92628  0.40248  0.65451  1.0000
  P   P16       1.0  0.57372  0.90248  0.84549  1.0000
  F   F1        1.0  0.19780  0.18460  0.23350  1.0000
  F   F2        1.0  0.30220  0.68460  0.26650  1.0000
  F   F3        1.0  0.80220  0.81540  0.76650  1.0000
  F   F4        1.0  0.69780  0.31540  0.73350  1.0000
  F   F5        1.0  0.26240  0.93440  0.22225  1.0000
  F   F6        1.0  0.23760  0.43440  0.27775  1.0000
  F   F7        1.0  0.73760  0.06560  0.77775  1.0000
  F   F8        1.0  0.76240  0.56560  0.72225  1.0000
  O   O1        1.0  0.03840  0.45330  0.30872  1.0000
  O   O2        1.0  0.46160  0.95330  0.19128  1.0000
  O   O3        1.0  0.96160  0.54670  0.69128  1.0000
  O   O4        1.0  0.53840  0.04670  0.80872  1.0000
  O   O5        1.0  0.04070  0.37460  0.18676  1.0000
  O   O6        1.0  0.45930  0.87460  0.31324  1.0000
  O   O7        1.0  0.95930  0.62540  0.81324  1.0000
  O   O8        1.0  0.54070  0.12540  0.68676  1.0000
  O   O9        1.0  0.03960  0.99620  0.18688  1.0000
  O   O10       1.0  0.46040  0.49620  0.31312  1.0000
  O   O11       1.0  0.96040  0.00380  0.81312  1.0000
  O   O12       1.0  0.53960  0.50380  0.68688  1.0000
  O   O13       1.0  0.08150  0.19580  0.10142  1.0000
  O   O14       1.0  0.41850  0.69580  0.39858  1.0000
  O   O15       1.0  0.91850  0.80420  0.89858  1.0000
  O   O16       1.0  0.58150  0.30420  0.60142  1.0000
  O   O17       1.0  0.20240  0.61770  0.36630  1.0000
  O   O18       1.0  0.29760  0.11770  0.13370  1.0000
  O   O19       1.0  0.79760  0.38230  0.63370  1.0000
  O   O20       1.0  0.70240  0.88230  0.86630  1.0000
  O   O21       1.0  0.02120  0.60940  0.40528  1.0000
  O   O22       1.0  0.47880  0.10940  0.09472  1.0000
  O   O23       1.0  0.97880  0.39060  0.59472  1.0000
  O   O24       1.0  0.52120  0.89060  0.90528  1.0000
  O   O25       1.0  0.20840  0.76480  0.01408  1.0000
  O   O26       1.0  0.29160  0.26480  0.48592  1.0000
  O   O27       1.0  0.79160  0.23520  0.98592  1.0000
  O   O28       1.0  0.70840  0.73520  0.51408  1.0000
  O   O29       1.0  0.30680  0.74890  0.13792  1.0000
  O   O30       1.0  0.19320  0.24890  0.36208  1.0000
  O   O31       1.0  0.69320  0.25110  0.86208  1.0000
  O   O32       1.0  0.80680  0.75110  0.63792  1.0000
  O   O33       1.0  0.00310  0.17410  0.27277  1.0000
  O   O34       1.0  0.49690  0.67410  0.22723  1.0000
  O   O35       1.0  0.99690  0.82590  0.72723  1.0000
  O   O36       1.0  0.50310  0.32590  0.77277  1.0000
  O   O37       1.0  0.13640  0.91680  0.09514  1.0000
  O   O38       1.0  0.36360  0.41680  0.40486  1.0000
  O   O39       1.0  0.86360  0.08320  0.90486  1.0000
  O   O40       1.0  0.63640  0.58320  0.59514  1.0000
  O   O41       1.0  0.85320  0.99200  0.21768  1.0000
  O   O42       1.0  0.64680  0.49200  0.28232  1.0000
  O   O43       1.0  0.14680  0.00800  0.78232  1.0000
  O   O44       1.0  0.35320  0.50800  0.71768  1.0000
  O   O45       1.0  0.92810  0.38850  0.06658  1.0000
  O   O46       1.0  0.57190  0.88850  0.43342  1.0000
  O   O47       1.0  0.07190  0.61150  0.93342  1.0000
  O   O48       1.0  0.42810  0.11150  0.56658  1.0000
  C   C1        1.0  0.14220  0.47950  0.09490  1.0000
  C   C2        1.0  0.35780  0.97950  0.40510  1.0000
  C   C3        1.0  0.85780  0.52050  0.90510  1.0000
  C   C4        1.0  0.64220  0.02050  0.59490  1.0000
  H   H1        1.0  0.21820  0.46850  0.12710  1.0000
  H   H2        1.0  0.28180  0.96850  0.37290  1.0000
  H   H3        1.0  0.78180  0.53150  0.87290  1.0000
  H   H4        1.0  0.71820  0.03150  0.62710  1.0000
  H   H5        1.0  0.15050  0.46040  0.04870  1.0000
  H   H6        1.0  0.34950  0.96040  0.45130  1.0000
  H   H7        1.0  0.84950  0.53960  0.95130  1.0000
  H   H8        1.0  0.65050  0.03960  0.54870  1.0000
  C   C5        1.0  0.01510  0.73820  0.28460  1.0000
  C   C6        1.0  0.48490  0.23820  0.21540  1.0000
  C   C7        1.0  0.98490  0.26180  0.71540  1.0000
  C   C8        1.0  0.51510  0.76180  0.78460  1.0000
  H   H9        1.0  0.04540  0.72440  0.24450  1.0000
  H   H10       1.0  0.45460  0.22440  0.25550  1.0000
  H   H11       1.0  0.95460  0.27560  0.75550  1.0000
  H   H12       1.0  0.54540  0.77560  0.74450  1.0000
  H   H13       1.0  0.93150  0.72450  0.26960  1.0000
  H   H14       1.0  0.56850  0.22450  0.23040  1.0000
  H   H15       1.0  0.06850  0.27550  0.73040  1.0000
  H   H16       1.0  0.43150  0.77550  0.76960  1.0000
  C   C9        1.0  0.10100  0.63200  0.09840  1.0000
  C   C10       1.0  0.39900  0.13200  0.40160  1.0000
  C   C11       1.0  0.89900  0.36800  0.90160  1.0000
  C   C12       1.0  0.60100  0.86800  0.59840  1.0000
  H   H17       1.0  0.08520  0.64580  0.14320  1.0000
  H   H18       1.0  0.41480  0.14580  0.35680  1.0000
  H   H19       1.0  0.91480  0.35420  0.85680  1.0000
  H   H20       1.0  0.58520  0.85420  0.64320  1.0000
  H   H21       1.0  0.02780  0.64300  0.06360  1.0000
  H   H22       1.0  0.47220  0.14300  0.43640  1.0000
  H   H23       1.0  0.97220  0.35700  0.93640  1.0000
  H   H24       1.0  0.52780  0.85700  0.56360  1.0000
  C   C13       1.0  0.03820  0.89370  0.30850  1.0000
  C   C14       1.0  0.46180  0.39370  0.19150  1.0000
  C   C15       1.0  0.96180  0.10630  0.69150  1.0000
  C   C16       1.0  0.53820  0.60630  0.80850  1.0000
  H   H25       1.0  0.12150  0.90850  0.32480  1.0000
  H   H26       1.0  0.37850  0.40850  0.17520  1.0000
  H   H27       1.0  0.87850  0.09150  0.67520  1.0000
  H   H28       1.0  0.62150  0.59150  0.82480  1.0000
  H   H29       1.0  0.00460  0.91080  0.34710  1.0000
  H   H30       1.0  0.49540  0.41080  0.15290  1.0000
  H   H31       1.0  0.99540  0.08920  0.65290  1.0000
  H   H32       1.0  0.50460  0.58920  0.84710  1.0000
