data_image0
_chemical_formula_structural       Zn12C36H12C12H12C24H12C12H12C18H6C12H12C24H12C12H12C48H12C12H12O60
_chemical_formula_sum              "Zn12 C210 H114 O60"
_cell_length_a       16.5748
_cell_length_b       16.5748
_cell_length_c       28.129
_cell_angle_alpha    90
_cell_angle_beta     90
_cell_angle_gamma    120

_space_group_name_H-M_alt    "P 1"
_space_group_IT_number       1

loop_
  _space_group_symop_operation_xyz
  'x, y, z'

loop_
  _atom_site_type_symbol
  _atom_site_label
  _atom_site_symmetry_multiplicity
  _atom_site_fract_x
  _atom_site_fract_y
  _atom_site_fract_z
  _atom_site_occupancy
  Zn  Zn1       1.0  0.50631  0.49813  0.14223  1.0000
  Zn  Zn2       1.0  0.00818  0.50631  0.97556  1.0000
  Zn  Zn3       1.0  0.50187  0.00818  0.80890  1.0000
  Zn  Zn4       1.0  0.49369  0.50187  0.64223  1.0000
  Zn  Zn5       1.0  0.99182  0.49369  0.47556  1.0000
  Zn  Zn6       1.0  0.49813  0.99182  0.30890  1.0000
  Zn  Zn7       1.0  0.50187  0.49369  0.02444  1.0000
  Zn  Zn8       1.0  0.00818  0.50187  0.85777  1.0000
  Zn  Zn9       1.0  0.50631  0.00818  0.69110  1.0000
  Zn  Zn10      1.0  0.49813  0.50631  0.52444  1.0000
  Zn  Zn11      1.0  0.99182  0.49813  0.35777  1.0000
  Zn  Zn12      1.0  0.49369  0.99182  0.19110  1.0000
  C   C1        1.0  0.33590  0.41940  0.08590  1.0000
  C   C2        1.0  0.91650  0.33590  0.91923  1.0000
  C   C3        1.0  0.58060  0.91650  0.75257  1.0000
  C   C4        1.0  0.66410  0.58060  0.58590  1.0000
  C   C5        1.0  0.08350  0.66410  0.41923  1.0000
  C   C6        1.0  0.41940  0.08350  0.25257  1.0000
  C   C7        1.0  0.58060  0.66410  0.08077  1.0000
  C   C8        1.0  0.91650  0.58060  0.91410  1.0000
  C   C9        1.0  0.33590  0.91650  0.74743  1.0000
  C   C10       1.0  0.41940  0.33590  0.58077  1.0000
  C   C11       1.0  0.08350  0.41940  0.41410  1.0000
  C   C12       1.0  0.66410  0.08350  0.24743  1.0000
  C   C13       1.0  0.23200  0.36990  0.08385  1.0000
  C   C14       1.0  0.86210  0.23200  0.91718  1.0000
  C   C15       1.0  0.63010  0.86210  0.75052  1.0000
  C   C16       1.0  0.76800  0.63010  0.58385  1.0000
  C   C17       1.0  0.13790  0.76800  0.41718  1.0000
  C   C18       1.0  0.36990  0.13790  0.25052  1.0000
  C   C19       1.0  0.63010  0.76800  0.08282  1.0000
  C   C20       1.0  0.86210  0.63010  0.91615  1.0000
  C   C21       1.0  0.23200  0.86210  0.74948  1.0000
  C   C22       1.0  0.36990  0.23200  0.58282  1.0000
  C   C23       1.0  0.13790  0.36990  0.41615  1.0000
  C   C24       1.0  0.76800  0.13790  0.24948  1.0000
  C   C25       1.0  0.18410  0.37890  0.04552  1.0000
  C   C26       1.0  0.80520  0.18410  0.87885  1.0000
  C   C27       1.0  0.62110  0.80520  0.71219  1.0000
  C   C28       1.0  0.81590  0.62110  0.54552  1.0000
  C   C29       1.0  0.19480  0.81590  0.37885  1.0000
  C   C30       1.0  0.37890  0.19480  0.21219  1.0000
  C   C31       1.0  0.62110  0.81590  0.12115  1.0000
  C   C32       1.0  0.80520  0.62110  0.95448  1.0000
  C   C33       1.0  0.18410  0.80520  0.78781  1.0000
  C   C34       1.0  0.37890  0.18410  0.62115  1.0000
  C   C35       1.0  0.19480  0.37890  0.45448  1.0000
  C   C36       1.0  0.81590  0.19480  0.28781  1.0000
  H   H1        1.0  0.21670  0.42020  0.02100  1.0000
  H   H2        1.0  0.79650  0.21670  0.85433  1.0000
  H   H3        1.0  0.57980  0.79650  0.68767  1.0000
  H   H4        1.0  0.78330  0.57980  0.52100  1.0000
  H   H5        1.0  0.20350  0.78330  0.35433  1.0000
  H   H6        1.0  0.42020  0.20350  0.18767  1.0000
  H   H7        1.0  0.57980  0.78330  0.14567  1.0000
  H   H8        1.0  0.79650  0.57980  0.97900  1.0000
  H   H9        1.0  0.21670  0.79650  0.81233  1.0000
  H   H10       1.0  0.42020  0.21670  0.64567  1.0000
  H   H11       1.0  0.20350  0.42020  0.47900  1.0000
  H   H12       1.0  0.78330  0.20350  0.31233  1.0000
  C   C37       1.0  0.08750  0.32630  0.04380  1.0000
  C   C38       1.0  0.76120  0.08750  0.87713  1.0000
  C   C39       1.0  0.67370  0.76120  0.71047  1.0000
  C   C40       1.0  0.91250  0.67370  0.54380  1.0000
  C   C41       1.0  0.23880  0.91250  0.37713  1.0000
  C   C42       1.0  0.32630  0.23880  0.21047  1.0000
  C   C43       1.0  0.67370  0.91250  0.12287  1.0000
  C   C44       1.0  0.76120  0.67370  0.95620  1.0000
  C   C45       1.0  0.08750  0.76120  0.78953  1.0000
  C   C46       1.0  0.32630  0.08750  0.62287  1.0000
  C   C47       1.0  0.23880  0.32630  0.45620  1.0000
  C   C48       1.0  0.91250  0.23880  0.28953  1.0000
  H   H13       1.0  0.05540  0.33230  0.01820  1.0000
  H   H14       1.0  0.72310  0.05540  0.85153  1.0000
  H   H15       1.0  0.66770  0.72310  0.68487  1.0000
  H   H16       1.0  0.94460  0.66770  0.51820  1.0000
  H   H17       1.0  0.27690  0.94460  0.35153  1.0000
  H   H18       1.0  0.33230  0.27690  0.18487  1.0000
  H   H19       1.0  0.66770  0.94460  0.14847  1.0000
  H   H20       1.0  0.72310  0.66770  0.98180  1.0000
  H   H21       1.0  0.05540  0.72310  0.81513  1.0000
  H   H22       1.0  0.33230  0.05540  0.64847  1.0000
  H   H23       1.0  0.27690  0.33230  0.48180  1.0000
  H   H24       1.0  0.94460  0.27690  0.31513  1.0000
  C   C49       1.0  0.03870  0.26460  0.08040  1.0000
  C   C50       1.0  0.77410  0.03870  0.91373  1.0000
  C   C51       1.0  0.73540  0.77410  0.74707  1.0000
  C   C52       1.0  0.96130  0.73540  0.58040  1.0000
  C   C53       1.0  0.22590  0.96130  0.41373  1.0000
  C   C54       1.0  0.26460  0.22590  0.24707  1.0000
  C   C55       1.0  0.73540  0.96130  0.08627  1.0000
  C   C56       1.0  0.77410  0.73540  0.91960  1.0000
  C   C57       1.0  0.03870  0.77410  0.75293  1.0000
  C   C58       1.0  0.26460  0.03870  0.58627  1.0000
  C   C59       1.0  0.22590  0.26460  0.41960  1.0000
  C   C60       1.0  0.96130  0.22590  0.25293  1.0000
  C   C61       1.0  0.08650  0.25560  0.11872  1.0000
  C   C62       1.0  0.83090  0.08650  0.95205  1.0000
  C   C63       1.0  0.74440  0.83090  0.78539  1.0000
  C   C64       1.0  0.91350  0.74440  0.61872  1.0000
  C   C65       1.0  0.16910  0.91350  0.45205  1.0000
  C   C66       1.0  0.25560  0.16910  0.28539  1.0000
  C   C67       1.0  0.74440  0.91350  0.04795  1.0000
  C   C68       1.0  0.83090  0.74440  0.88128  1.0000
  C   C69       1.0  0.08650  0.83090  0.71461  1.0000
  C   C70       1.0  0.25560  0.08650  0.54795  1.0000
  C   C71       1.0  0.16910  0.25560  0.38128  1.0000
  C   C72       1.0  0.91350  0.16910  0.21461  1.0000
  H   H25       1.0  0.05390  0.21430  0.14320  1.0000
  H   H26       1.0  0.83960  0.05390  0.97653  1.0000
  H   H27       1.0  0.78570  0.83960  0.80987  1.0000
  H   H28       1.0  0.94610  0.78570  0.64320  1.0000
  H   H29       1.0  0.16040  0.94610  0.47653  1.0000
  H   H30       1.0  0.21430  0.16040  0.30987  1.0000
  H   H31       1.0  0.78570  0.94610  0.02347  1.0000
  H   H32       1.0  0.83960  0.78570  0.85680  1.0000
  H   H33       1.0  0.05390  0.83960  0.69013  1.0000
  H   H34       1.0  0.21430  0.05390  0.52347  1.0000
  H   H35       1.0  0.16040  0.21430  0.35680  1.0000
  H   H36       1.0  0.94610  0.16040  0.19013  1.0000
  C   C73       1.0  0.18320  0.30830  0.12045  1.0000
  C   C74       1.0  0.87490  0.18320  0.95378  1.0000
  C   C75       1.0  0.69170  0.87490  0.78712  1.0000
  C   C76       1.0  0.81680  0.69170  0.62045  1.0000
  C   C77       1.0  0.12510  0.81680  0.45378  1.0000
  C   C78       1.0  0.30830  0.12510  0.28712  1.0000
  C   C79       1.0  0.69170  0.81680  0.04622  1.0000
  C   C80       1.0  0.87490  0.69170  0.87955  1.0000
  C   C81       1.0  0.18320  0.87490  0.71288  1.0000
  C   C82       1.0  0.30830  0.18320  0.54622  1.0000
  C   C83       1.0  0.12510  0.30830  0.37955  1.0000
  C   C84       1.0  0.81680  0.12510  0.21288  1.0000
  H   H37       1.0  0.21520  0.30230  0.14610  1.0000
  H   H38       1.0  0.91290  0.21520  0.97943  1.0000
  H   H39       1.0  0.69770  0.91290  0.81277  1.0000
  H   H40       1.0  0.78480  0.69770  0.64610  1.0000
  H   H41       1.0  0.08710  0.78480  0.47943  1.0000
  H   H42       1.0  0.30230  0.08710  0.31277  1.0000
  H   H43       1.0  0.69770  0.78480  0.02057  1.0000
  H   H44       1.0  0.91290  0.69770  0.85390  1.0000
  H   H45       1.0  0.21520  0.91290  0.68723  1.0000
  H   H46       1.0  0.30230  0.21520  0.52057  1.0000
  H   H47       1.0  0.08710  0.30230  0.35390  1.0000
  H   H48       1.0  0.78480  0.08710  0.18723  1.0000
  C   C85       1.0  0.93580  0.21390  0.08060  1.0000
  C   C86       1.0  0.72190  0.93580  0.91393  1.0000
  C   C87       1.0  0.78610  0.72190  0.74727  1.0000
  C   C88       1.0  0.06420  0.78610  0.58060  1.0000
  C   C89       1.0  0.27810  0.06420  0.41393  1.0000
  C   C90       1.0  0.21390  0.27810  0.24727  1.0000
  C   C91       1.0  0.78610  0.06420  0.08607  1.0000
  C   C92       1.0  0.72190  0.78610  0.91940  1.0000
  C   C93       1.0  0.93580  0.72190  0.75273  1.0000
  C   C94       1.0  0.21390  0.93580  0.58607  1.0000
  C   C95       1.0  0.27810  0.21390  0.41940  1.0000
  C   C96       1.0  0.06420  0.27810  0.25273  1.0000
  C   C97       1.0  0.88380  0.11620  0.08330  1.0000
  C   C98       1.0  0.76760  0.88380  0.91663  1.0000
  C   C99       1.0  0.88380  0.76760  0.74997  1.0000
  C   C100      1.0  0.11620  0.88380  0.58330  1.0000
  C   C101      1.0  0.23240  0.11620  0.41663  1.0000
  C   C102      1.0  0.11620  0.23240  0.24997  1.0000
  H   H49       1.0  0.91620  0.08380  0.08330  1.0000
  H   H50       1.0  0.83240  0.91620  0.91663  1.0000
  H   H51       1.0  0.91620  0.83240  0.74997  1.0000
  H   H52       1.0  0.08380  0.91620  0.58330  1.0000
  H   H53       1.0  0.16760  0.08380  0.41663  1.0000
  H   H54       1.0  0.08380  0.16760  0.24997  1.0000
  C   C103      1.0  0.88720  0.25900  0.07910  1.0000
  C   C104      1.0  0.62820  0.88720  0.91243  1.0000
  C   C105      1.0  0.74100  0.62820  0.74577  1.0000
  C   C106      1.0  0.11280  0.74100  0.57910  1.0000
  C   C107      1.0  0.37180  0.11280  0.41243  1.0000
  C   C108      1.0  0.25900  0.37180  0.24577  1.0000
  C   C109      1.0  0.74100  0.11280  0.08757  1.0000
  C   C110      1.0  0.62820  0.74100  0.92090  1.0000
  C   C111      1.0  0.88720  0.62820  0.75423  1.0000
  C   C112      1.0  0.25900  0.88720  0.58757  1.0000
  C   C113      1.0  0.37180  0.25900  0.42090  1.0000
  C   C114      1.0  0.11280  0.37180  0.25423  1.0000
  H   H55       1.0  0.91890  0.32330  0.07520  1.0000
  H   H56       1.0  0.59560  0.91890  0.90853  1.0000
  H   H57       1.0  0.67670  0.59560  0.74187  1.0000
  H   H58       1.0  0.08110  0.67670  0.57520  1.0000
  H   H59       1.0  0.40440  0.08110  0.40853  1.0000
  H   H60       1.0  0.32330  0.40440  0.24187  1.0000
  H   H61       1.0  0.67670  0.08110  0.09147  1.0000
  H   H62       1.0  0.59560  0.67670  0.92480  1.0000
  H   H63       1.0  0.91890  0.59560  0.75813  1.0000
  H   H64       1.0  0.32330  0.91890  0.59147  1.0000
  H   H65       1.0  0.40440  0.32330  0.42480  1.0000
  H   H66       1.0  0.08110  0.40440  0.25813  1.0000
  C   C115      1.0  0.78910  0.21090  0.08330  1.0000
  C   C116      1.0  0.57820  0.78910  0.91663  1.0000
  C   C117      1.0  0.78910  0.57820  0.74997  1.0000
  C   C118      1.0  0.21090  0.78910  0.58330  1.0000
  C   C119      1.0  0.42180  0.21090  0.41663  1.0000
  C   C120      1.0  0.21090  0.42180  0.24997  1.0000
  C   C121      1.0  0.73740  0.26260  0.08330  1.0000
  C   C122      1.0  0.47480  0.73740  0.91663  1.0000
  C   C123      1.0  0.73740  0.47480  0.74997  1.0000
  C   C124      1.0  0.26260  0.73740  0.58330  1.0000
  C   C125      1.0  0.52520  0.26260  0.41663  1.0000
  C   C126      1.0  0.26260  0.52520  0.24997  1.0000
  C   C127      1.0  0.76180  0.33630  0.05210  1.0000
  C   C128      1.0  0.42550  0.76180  0.88543  1.0000
  C   C129      1.0  0.66370  0.42550  0.71877  1.0000
  C   C130      1.0  0.23820  0.66370  0.55210  1.0000
  C   C131      1.0  0.57450  0.23820  0.38543  1.0000
  C   C132      1.0  0.33630  0.57450  0.21877  1.0000
  C   C133      1.0  0.66370  0.23820  0.11457  1.0000
  C   C134      1.0  0.42550  0.66370  0.94790  1.0000
  C   C135      1.0  0.76180  0.42550  0.78123  1.0000
  C   C136      1.0  0.33630  0.76180  0.61457  1.0000
  C   C137      1.0  0.57450  0.33630  0.44790  1.0000
  C   C138      1.0  0.23820  0.57450  0.28123  1.0000
  H   H67       1.0  0.81120  0.35510  0.03100  1.0000
  H   H68       1.0  0.45610  0.81120  0.86433  1.0000
  H   H69       1.0  0.64490  0.45610  0.69767  1.0000
  H   H70       1.0  0.18880  0.64490  0.53100  1.0000
  H   H71       1.0  0.54390  0.18880  0.36433  1.0000
  H   H72       1.0  0.35510  0.54390  0.19767  1.0000
  H   H73       1.0  0.64490  0.18880  0.13567  1.0000
  H   H74       1.0  0.45610  0.64490  0.96900  1.0000
  H   H75       1.0  0.81120  0.45610  0.80233  1.0000
  H   H76       1.0  0.35510  0.81120  0.63567  1.0000
  H   H77       1.0  0.54390  0.35510  0.46900  1.0000
  H   H78       1.0  0.18880  0.54390  0.30233  1.0000
  C   C139      1.0  0.70990  0.38080  0.05350  1.0000
  C   C140      1.0  0.32910  0.70990  0.88683  1.0000
  C   C141      1.0  0.61920  0.32910  0.72017  1.0000
  C   C142      1.0  0.29010  0.61920  0.55350  1.0000
  C   C143      1.0  0.67090  0.29010  0.38683  1.0000
  C   C144      1.0  0.38080  0.67090  0.22017  1.0000
  C   C145      1.0  0.61920  0.29010  0.11317  1.0000
  C   C146      1.0  0.32910  0.61920  0.94650  1.0000
  C   C147      1.0  0.70990  0.32910  0.77983  1.0000
  C   C148      1.0  0.38080  0.70990  0.61317  1.0000
  C   C149      1.0  0.67090  0.38080  0.44650  1.0000
  C   C150      1.0  0.29010  0.67090  0.27983  1.0000
  H   H79       1.0  0.72550  0.42880  0.03180  1.0000
  H   H80       1.0  0.29670  0.72550  0.86513  1.0000
  H   H81       1.0  0.57120  0.29670  0.69847  1.0000
  H   H82       1.0  0.27450  0.57120  0.53180  1.0000
  H   H83       1.0  0.70330  0.27450  0.36513  1.0000
  H   H84       1.0  0.42880  0.70330  0.19847  1.0000
  H   H85       1.0  0.57120  0.27450  0.13487  1.0000
  H   H86       1.0  0.29670  0.57120  0.96820  1.0000
  H   H87       1.0  0.72550  0.29670  0.80153  1.0000
  H   H88       1.0  0.42880  0.72550  0.63487  1.0000
  H   H89       1.0  0.70330  0.42880  0.46820  1.0000
  H   H90       1.0  0.27450  0.70330  0.30153  1.0000
  C   C151      1.0  0.63910  0.36090  0.08330  1.0000
  C   C152      1.0  0.27820  0.63910  0.91663  1.0000
  C   C153      1.0  0.63910  0.27820  0.74997  1.0000
  C   C154      1.0  0.36090  0.63910  0.58330  1.0000
  C   C155      1.0  0.72180  0.36090  0.41663  1.0000
  C   C156      1.0  0.36090  0.72180  0.24997  1.0000
  C   C157      1.0  0.58710  0.41290  0.08330  1.0000
  C   C158      1.0  0.17420  0.58710  0.91663  1.0000
  C   C159      1.0  0.58710  0.17420  0.74997  1.0000
  C   C160      1.0  0.41290  0.58710  0.58330  1.0000
  C   C161      1.0  0.82580  0.41290  0.41663  1.0000
  C   C162      1.0  0.41290  0.82580  0.24997  1.0000
  C   C163      1.0  0.56280  0.55530  0.23170  1.0000
  C   C164      1.0  0.00750  0.56280  0.06503  1.0000
  C   C165      1.0  0.44470  0.00750  0.89837  1.0000
  C   C166      1.0  0.43720  0.44470  0.73170  1.0000
  C   C167      1.0  0.99250  0.43720  0.56503  1.0000
  C   C168      1.0  0.55530  0.99250  0.39837  1.0000
  C   C169      1.0  0.44470  0.43720  0.93497  1.0000
  C   C170      1.0  0.00750  0.44470  0.76830  1.0000
  C   C171      1.0  0.56280  0.00750  0.60163  1.0000
  C   C172      1.0  0.55530  0.56280  0.43497  1.0000
  C   C173      1.0  0.99250  0.55530  0.26830  1.0000
  C   C174      1.0  0.43720  0.99250  0.10163  1.0000
  C   C175      1.0  0.55600  0.55040  0.28460  1.0000
  C   C176      1.0  0.00560  0.55600  0.11793  1.0000
  C   C177      1.0  0.44960  0.00560  0.95127  1.0000
  C   C178      1.0  0.44400  0.44960  0.78460  1.0000
  C   C179      1.0  0.99440  0.44400  0.61793  1.0000
  C   C180      1.0  0.55040  0.99440  0.45127  1.0000
  C   C181      1.0  0.44960  0.44400  0.88207  1.0000
  C   C182      1.0  0.00560  0.44960  0.71540  1.0000
  C   C183      1.0  0.55600  0.00560  0.54873  1.0000
  C   C184      1.0  0.55040  0.55600  0.38207  1.0000
  C   C185      1.0  0.99440  0.55040  0.21540  1.0000
  C   C186      1.0  0.44400  0.99440  0.04873  1.0000
  C   C187      1.0  0.62980  0.62720  0.30900  1.0000
  C   C188      1.0  0.00260  0.62980  0.14233  1.0000
  C   C189      1.0  0.37280  0.00260  0.97567  1.0000
  C   C190      1.0  0.37020  0.37280  0.80900  1.0000
  C   C191      1.0  0.99740  0.37020  0.64233  1.0000
  C   C192      1.0  0.62720  0.99740  0.47567  1.0000
  C   C193      1.0  0.37280  0.37020  0.85767  1.0000
  C   C194      1.0  0.00260  0.37280  0.69100  1.0000
  C   C195      1.0  0.62980  0.00260  0.52433  1.0000
  C   C196      1.0  0.62720  0.62980  0.35767  1.0000
  C   C197      1.0  0.99740  0.62720  0.19100  1.0000
  C   C198      1.0  0.37020  0.99740  0.02433  1.0000
  H   H91       1.0  0.67890  0.67470  0.29220  1.0000
  H   H92       1.0  0.00420  0.67890  0.12553  1.0000
  H   H93       1.0  0.32530  0.00420  0.95887  1.0000
  H   H94       1.0  0.32110  0.32530  0.79220  1.0000
  H   H95       1.0  0.99580  0.32110  0.62553  1.0000
  H   H96       1.0  0.67470  0.99580  0.45887  1.0000
  H   H97       1.0  0.32530  0.32110  0.87447  1.0000
  H   H98       1.0  0.00420  0.32530  0.70780  1.0000
  H   H99       1.0  0.67890  0.00420  0.54113  1.0000
  H   H100      1.0  0.67470  0.67890  0.37447  1.0000
  H   H101      1.0  0.99580  0.67470  0.20780  1.0000
  H   H102      1.0  0.32110  0.99580  0.04113  1.0000
  C   C199      1.0  0.48450  0.47920  0.30830  1.0000
  C   C200      1.0  0.00530  0.48450  0.14163  1.0000
  C   C201      1.0  0.52080  0.00530  0.97497  1.0000
  C   C202      1.0  0.51550  0.52080  0.80830  1.0000
  C   C203      1.0  0.99470  0.51550  0.64163  1.0000
  C   C204      1.0  0.47920  0.99470  0.47497  1.0000
  C   C205      1.0  0.52080  0.51550  0.85837  1.0000
  C   C206      1.0  0.00530  0.52080  0.69170  1.0000
  C   C207      1.0  0.48450  0.00530  0.52503  1.0000
  C   C208      1.0  0.47920  0.48450  0.35837  1.0000
  C   C209      1.0  0.99470  0.47920  0.19170  1.0000
  C   C210      1.0  0.51550  0.99470  0.02503  1.0000
  H   H103      1.0  0.43960  0.42750  0.29190  1.0000
  H   H104      1.0  0.01210  0.43960  0.12523  1.0000
  H   H105      1.0  0.57250  0.01210  0.95857  1.0000
  H   H106      1.0  0.56040  0.57250  0.79190  1.0000
  H   H107      1.0  0.98790  0.56040  0.62523  1.0000
  H   H108      1.0  0.42750  0.98790  0.45857  1.0000
  H   H109      1.0  0.57250  0.56040  0.87477  1.0000
  H   H110      1.0  0.01210  0.57250  0.70810  1.0000
  H   H111      1.0  0.43960  0.01210  0.54143  1.0000
  H   H112      1.0  0.42750  0.43960  0.37477  1.0000
  H   H113      1.0  0.98790  0.42750  0.20810  1.0000
  H   H114      1.0  0.56040  0.98790  0.04143  1.0000
  O   O1        1.0  0.37210  0.42180  0.12312  1.0000
  O   O2        1.0  0.95030  0.37210  0.95645  1.0000
  O   O3        1.0  0.57820  0.95030  0.78979  1.0000
  O   O4        1.0  0.62790  0.57820  0.62312  1.0000
  O   O5        1.0  0.04970  0.62790  0.45645  1.0000
  O   O6        1.0  0.42180  0.04970  0.28979  1.0000
  O   O7        1.0  0.57820  0.62790  0.04355  1.0000
  O   O8        1.0  0.95030  0.57820  0.87688  1.0000
  O   O9        1.0  0.37210  0.95030  0.71021  1.0000
  O   O10       1.0  0.42180  0.37210  0.54355  1.0000
  O   O11       1.0  0.04970  0.42180  0.37688  1.0000
  O   O12       1.0  0.62790  0.04970  0.21021  1.0000
  O   O13       1.0  0.37760  0.45770  0.04896  1.0000
  O   O14       1.0  0.91990  0.37760  0.88229  1.0000
  O   O15       1.0  0.54230  0.91990  0.71563  1.0000
  O   O16       1.0  0.62240  0.54230  0.54896  1.0000
  O   O17       1.0  0.08010  0.62240  0.38229  1.0000
  O   O18       1.0  0.45770  0.08010  0.21563  1.0000
  O   O19       1.0  0.54230  0.62240  0.11771  1.0000
  O   O20       1.0  0.91990  0.54230  0.95104  1.0000
  O   O21       1.0  0.37760  0.91990  0.78437  1.0000
  O   O22       1.0  0.45770  0.37760  0.61771  1.0000
  O   O23       1.0  0.08010  0.45770  0.45104  1.0000
  O   O24       1.0  0.62240  0.08010  0.28437  1.0000
  O   O25       1.0  0.55550  0.41920  0.12219  1.0000
  O   O26       1.0  0.13630  0.55550  0.95552  1.0000
  O   O27       1.0  0.58080  0.13630  0.78886  1.0000
  O   O28       1.0  0.44450  0.58080  0.62219  1.0000
  O   O29       1.0  0.86370  0.44450  0.45552  1.0000
  O   O30       1.0  0.41920  0.86370  0.28886  1.0000
  O   O31       1.0  0.58080  0.44450  0.04448  1.0000
  O   O32       1.0  0.13630  0.58080  0.87781  1.0000
  O   O33       1.0  0.55550  0.13630  0.71114  1.0000
  O   O34       1.0  0.41920  0.55550  0.54448  1.0000
  O   O35       1.0  0.86370  0.41920  0.37781  1.0000
  O   O36       1.0  0.44450  0.86370  0.21114  1.0000
  O   O37       1.0  0.49730  0.49430  0.21080  1.0000
  O   O38       1.0  0.00300  0.49730  0.04413  1.0000
  O   O39       1.0  0.50570  0.00300  0.87747  1.0000
  O   O40       1.0  0.50270  0.50570  0.71080  1.0000
  O   O41       1.0  0.99700  0.50270  0.54413  1.0000
  O   O42       1.0  0.49430  0.99700  0.37747  1.0000
  O   O43       1.0  0.50570  0.50270  0.95587  1.0000
  O   O44       1.0  0.00300  0.50570  0.78920  1.0000
  O   O45       1.0  0.49730  0.00300  0.62253  1.0000
  O   O46       1.0  0.49430  0.49730  0.45587  1.0000
  O   O47       1.0  0.99700  0.49430  0.28920  1.0000
  O   O48       1.0  0.50270  0.99700  0.12253  1.0000
  O   O49       1.0  0.63420  0.58940  0.20840  1.0000
  O   O50       1.0  0.04480  0.63420  0.04173  1.0000
  O   O51       1.0  0.41060  0.04480  0.87507  1.0000
  O   O52       1.0  0.36580  0.41060  0.70840  1.0000
  O   O53       1.0  0.95520  0.36580  0.54173  1.0000
  O   O54       1.0  0.58940  0.95520  0.37507  1.0000
  O   O55       1.0  0.41060  0.36580  0.95827  1.0000
  O   O56       1.0  0.04480  0.41060  0.79160  1.0000
  O   O57       1.0  0.63420  0.04480  0.62493  1.0000
  O   O58       1.0  0.58940  0.63420  0.45827  1.0000
  O   O59       1.0  0.95520  0.58940  0.29160  1.0000
  O   O60       1.0  0.36580  0.95520  0.12493  1.0000
