data_image0
_chemical_formula_structural       Er16O128N32C96H32C32H32C32H32C64
_chemical_formula_sum              "Er16 O128 N32 C224 H96"
_cell_length_a       26.4473
_cell_length_b       17.9442
_cell_length_c       17.3804
_cell_angle_alpha    90
_cell_angle_beta     90
_cell_angle_gamma    90

_space_group_name_H-M_alt    "P 1"
_space_group_IT_number       1

loop_
  _space_group_symop_operation_xyz
  'x, y, z'

loop_
  _atom_site_type_symbol
  _atom_site_label
  _atom_site_symmetry_multiplicity
  _atom_site_fract_x
  _atom_site_fract_y
  _atom_site_fract_z
  _atom_site_occupancy
  Er  Er1       1.0  0.87500  0.37500  0.50283  1.0000
  Er  Er2       1.0  0.37500  0.87500  0.50283  1.0000
  Er  Er3       1.0  0.87500  0.87500  0.74717  1.0000
  Er  Er4       1.0  0.37500  0.37500  0.74717  1.0000
  Er  Er5       1.0  0.87500  0.87500  0.00283  1.0000
  Er  Er6       1.0  0.37500  0.37500  0.00283  1.0000
  Er  Er7       1.0  0.87500  0.37500  0.24717  1.0000
  Er  Er8       1.0  0.37500  0.87500  0.24717  1.0000
  Er  Er9       1.0  0.12500  0.62500  0.49717  1.0000
  Er  Er10      1.0  0.62500  0.12500  0.49717  1.0000
  Er  Er11      1.0  0.12500  0.12500  0.25283  1.0000
  Er  Er12      1.0  0.62500  0.62500  0.25283  1.0000
  Er  Er13      1.0  0.12500  0.12500  0.99717  1.0000
  Er  Er14      1.0  0.62500  0.62500  0.99717  1.0000
  Er  Er15      1.0  0.12500  0.62500  0.75283  1.0000
  Er  Er16      1.0  0.62500  0.12500  0.75283  1.0000
  O   O1        1.0  0.92977  0.30226  0.43530  1.0000
  O   O2        1.0  0.32023  0.94774  0.43530  1.0000
  O   O3        1.0  0.92977  0.94774  0.81470  1.0000
  O   O4        1.0  0.32023  0.30226  0.81470  1.0000
  O   O5        1.0  0.92977  0.80226  0.93530  1.0000
  O   O6        1.0  0.32023  0.44774  0.93530  1.0000
  O   O7        1.0  0.92977  0.44774  0.31470  1.0000
  O   O8        1.0  0.32023  0.80226  0.31470  1.0000
  O   O9        1.0  0.42977  0.30226  0.93530  1.0000
  O   O10       1.0  0.82023  0.94774  0.93530  1.0000
  O   O11       1.0  0.42977  0.94774  0.31470  1.0000
  O   O12       1.0  0.82023  0.30226  0.31470  1.0000
  O   O13       1.0  0.42977  0.80226  0.43530  1.0000
  O   O14       1.0  0.82023  0.44774  0.43530  1.0000
  O   O15       1.0  0.42977  0.44774  0.81470  1.0000
  O   O16       1.0  0.82023  0.80226  0.81470  1.0000
  O   O17       1.0  0.07023  0.69774  0.56470  1.0000
  O   O18       1.0  0.67977  0.05226  0.56470  1.0000
  O   O19       1.0  0.07023  0.05226  0.18530  1.0000
  O   O20       1.0  0.67977  0.69774  0.18530  1.0000
  O   O21       1.0  0.07023  0.19774  0.06470  1.0000
  O   O22       1.0  0.67977  0.55226  0.06470  1.0000
  O   O23       1.0  0.07023  0.55226  0.68530  1.0000
  O   O24       1.0  0.67977  0.19774  0.68530  1.0000
  O   O25       1.0  0.57023  0.69774  0.06470  1.0000
  O   O26       1.0  0.17977  0.05226  0.06470  1.0000
  O   O27       1.0  0.57023  0.05226  0.68530  1.0000
  O   O28       1.0  0.17977  0.69774  0.68530  1.0000
  O   O29       1.0  0.57023  0.19774  0.56470  1.0000
  O   O30       1.0  0.17977  0.55226  0.56470  1.0000
  O   O31       1.0  0.57023  0.55226  0.18530  1.0000
  O   O32       1.0  0.17977  0.19774  0.18530  1.0000
  O   O33       1.0  0.92575  0.28598  0.30908  1.0000
  O   O34       1.0  0.32425  0.96402  0.30908  1.0000
  O   O35       1.0  0.92575  0.96402  0.94092  1.0000
  O   O36       1.0  0.32425  0.28598  0.94092  1.0000
  O   O37       1.0  0.92575  0.78598  0.80908  1.0000
  O   O38       1.0  0.32425  0.46402  0.80908  1.0000
  O   O39       1.0  0.92575  0.46402  0.44092  1.0000
  O   O40       1.0  0.32425  0.78598  0.44092  1.0000
  O   O41       1.0  0.42575  0.28598  0.80908  1.0000
  O   O42       1.0  0.82425  0.96402  0.80908  1.0000
  O   O43       1.0  0.42575  0.96402  0.44092  1.0000
  O   O44       1.0  0.82425  0.28598  0.44092  1.0000
  O   O45       1.0  0.42575  0.78598  0.30908  1.0000
  O   O46       1.0  0.82425  0.46402  0.30908  1.0000
  O   O47       1.0  0.42575  0.46402  0.94092  1.0000
  O   O48       1.0  0.82425  0.78598  0.94092  1.0000
  O   O49       1.0  0.07425  0.71402  0.69092  1.0000
  O   O50       1.0  0.67575  0.03598  0.69092  1.0000
  O   O51       1.0  0.07425  0.03598  0.05908  1.0000
  O   O52       1.0  0.67575  0.71402  0.05908  1.0000
  O   O53       1.0  0.07425  0.21402  0.19092  1.0000
  O   O54       1.0  0.67575  0.53598  0.19092  1.0000
  O   O55       1.0  0.07425  0.53598  0.55908  1.0000
  O   O56       1.0  0.67575  0.21402  0.55908  1.0000
  O   O57       1.0  0.57425  0.71402  0.19092  1.0000
  O   O58       1.0  0.17575  0.03598  0.19092  1.0000
  O   O59       1.0  0.57425  0.03598  0.55908  1.0000
  O   O60       1.0  0.17575  0.71402  0.55908  1.0000
  O   O61       1.0  0.57425  0.21402  0.69092  1.0000
  O   O62       1.0  0.17575  0.53598  0.69092  1.0000
  O   O63       1.0  0.57425  0.53598  0.05908  1.0000
  O   O64       1.0  0.17575  0.21402  0.05908  1.0000
  O   O65       1.0  0.11390  0.02876  0.33944  1.0000
  O   O66       1.0  0.13610  0.22124  0.33944  1.0000
  O   O67       1.0  0.11390  0.22124  0.91056  1.0000
  O   O68       1.0  0.13610  0.02876  0.91056  1.0000
  O   O69       1.0  0.11390  0.52876  0.83944  1.0000
  O   O70       1.0  0.13610  0.72124  0.83944  1.0000
  O   O71       1.0  0.11390  0.72124  0.41056  1.0000
  O   O72       1.0  0.13610  0.52876  0.41056  1.0000
  O   O73       1.0  0.61390  0.02876  0.83944  1.0000
  O   O74       1.0  0.63610  0.22124  0.83944  1.0000
  O   O75       1.0  0.61390  0.22124  0.41056  1.0000
  O   O76       1.0  0.63610  0.02876  0.41056  1.0000
  O   O77       1.0  0.61390  0.52876  0.33944  1.0000
  O   O78       1.0  0.63610  0.72124  0.33944  1.0000
  O   O79       1.0  0.61390  0.72124  0.91056  1.0000
  O   O80       1.0  0.63610  0.52876  0.91056  1.0000
  O   O81       1.0  0.88610  0.97124  0.66056  1.0000
  O   O82       1.0  0.86390  0.77876  0.66056  1.0000
  O   O83       1.0  0.88610  0.77876  0.08944  1.0000
  O   O84       1.0  0.86390  0.97124  0.08944  1.0000
  O   O85       1.0  0.88610  0.47124  0.16056  1.0000
  O   O86       1.0  0.86390  0.27876  0.16056  1.0000
  O   O87       1.0  0.88610  0.27876  0.58944  1.0000
  O   O88       1.0  0.86390  0.47124  0.58944  1.0000
  O   O89       1.0  0.38610  0.97124  0.16056  1.0000
  O   O90       1.0  0.36390  0.77876  0.16056  1.0000
  O   O91       1.0  0.38610  0.77876  0.58944  1.0000
  O   O92       1.0  0.36390  0.97124  0.58944  1.0000
  O   O93       1.0  0.38610  0.47124  0.66056  1.0000
  O   O94       1.0  0.36390  0.27876  0.66056  1.0000
  O   O95       1.0  0.38610  0.27876  0.08944  1.0000
  O   O96       1.0  0.36390  0.47124  0.08944  1.0000
  O   O97       1.0  0.06750  0.96310  0.41950  1.0000
  O   O98       1.0  0.18250  0.28690  0.41950  1.0000
  O   O99       1.0  0.06750  0.28690  0.83050  1.0000
  O   O100      1.0  0.18250  0.96310  0.83050  1.0000
  O   O101      1.0  0.06750  0.46310  0.91950  1.0000
  O   O102      1.0  0.18250  0.78690  0.91950  1.0000
  O   O103      1.0  0.06750  0.78690  0.33050  1.0000
  O   O104      1.0  0.18250  0.46310  0.33050  1.0000
  O   O105      1.0  0.56750  0.96310  0.91950  1.0000
  O   O106      1.0  0.68250  0.28690  0.91950  1.0000
  O   O107      1.0  0.56750  0.28690  0.33050  1.0000
  O   O108      1.0  0.68250  0.96310  0.33050  1.0000
  O   O109      1.0  0.56750  0.46310  0.41950  1.0000
  O   O110      1.0  0.68250  0.78690  0.41950  1.0000
  O   O111      1.0  0.56750  0.78690  0.83050  1.0000
  O   O112      1.0  0.68250  0.46310  0.83050  1.0000
  O   O113      1.0  0.93250  0.03690  0.58050  1.0000
  O   O114      1.0  0.81750  0.71310  0.58050  1.0000
  O   O115      1.0  0.93250  0.71310  0.16950  1.0000
  O   O116      1.0  0.81750  0.03690  0.16950  1.0000
  O   O117      1.0  0.93250  0.53690  0.08050  1.0000
  O   O118      1.0  0.81750  0.21310  0.08050  1.0000
  O   O119      1.0  0.93250  0.21310  0.66950  1.0000
  O   O120      1.0  0.81750  0.53690  0.66950  1.0000
  O   O121      1.0  0.43250  0.03690  0.08050  1.0000
  O   O122      1.0  0.31750  0.71310  0.08050  1.0000
  O   O123      1.0  0.43250  0.71310  0.66950  1.0000
  O   O124      1.0  0.31750  0.03690  0.66950  1.0000
  O   O125      1.0  0.43250  0.53690  0.58050  1.0000
  O   O126      1.0  0.31750  0.21310  0.58050  1.0000
  O   O127      1.0  0.43250  0.21310  0.16950  1.0000
  O   O128      1.0  0.31750  0.53690  0.16950  1.0000
  N   N1        1.0  0.04608  0.13568  0.33308  1.0000
  N   N2        1.0  0.20392  0.11432  0.33308  1.0000
  N   N3        1.0  0.04608  0.11432  0.91692  1.0000
  N   N4        1.0  0.20392  0.13568  0.91692  1.0000
  N   N5        1.0  0.04608  0.63568  0.83308  1.0000
  N   N6        1.0  0.20392  0.61432  0.83308  1.0000
  N   N7        1.0  0.04608  0.61432  0.41692  1.0000
  N   N8        1.0  0.20392  0.63568  0.41692  1.0000
  N   N9        1.0  0.54608  0.13568  0.83308  1.0000
  N   N10       1.0  0.70392  0.11432  0.83308  1.0000
  N   N11       1.0  0.54608  0.11432  0.41692  1.0000
  N   N12       1.0  0.70392  0.13568  0.41692  1.0000
  N   N13       1.0  0.54608  0.63568  0.33308  1.0000
  N   N14       1.0  0.70392  0.61432  0.33308  1.0000
  N   N15       1.0  0.54608  0.61432  0.91692  1.0000
  N   N16       1.0  0.70392  0.63568  0.91692  1.0000
  N   N17       1.0  0.95392  0.86432  0.66692  1.0000
  N   N18       1.0  0.79608  0.88568  0.66692  1.0000
  N   N19       1.0  0.95392  0.88568  0.08308  1.0000
  N   N20       1.0  0.79608  0.86432  0.08308  1.0000
  N   N21       1.0  0.95392  0.36432  0.16692  1.0000
  N   N22       1.0  0.79608  0.38568  0.16692  1.0000
  N   N23       1.0  0.95392  0.38568  0.58308  1.0000
  N   N24       1.0  0.79608  0.36432  0.58308  1.0000
  N   N25       1.0  0.45392  0.86432  0.16692  1.0000
  N   N26       1.0  0.29608  0.88568  0.16692  1.0000
  N   N27       1.0  0.45392  0.88568  0.58308  1.0000
  N   N28       1.0  0.29608  0.86432  0.58308  1.0000
  N   N29       1.0  0.45392  0.36432  0.66692  1.0000
  N   N30       1.0  0.29608  0.38568  0.66692  1.0000
  N   N31       1.0  0.45392  0.38568  0.08308  1.0000
  N   N32       1.0  0.29608  0.36432  0.08308  1.0000
  C   C1        1.0  0.94037  0.26900  0.37500  1.0000
  C   C2        1.0  0.30963  0.98100  0.37500  1.0000
  C   C3        1.0  0.94037  0.98100  0.87500  1.0000
  C   C4        1.0  0.30963  0.26900  0.87500  1.0000
  C   C5        1.0  0.94037  0.76900  0.87500  1.0000
  C   C6        1.0  0.30963  0.48100  0.87500  1.0000
  C   C7        1.0  0.94037  0.48100  0.37500  1.0000
  C   C8        1.0  0.30963  0.76900  0.37500  1.0000
  C   C9        1.0  0.44037  0.26900  0.87500  1.0000
  C   C10       1.0  0.80963  0.98100  0.87500  1.0000
  C   C11       1.0  0.44037  0.98100  0.37500  1.0000
  C   C12       1.0  0.80963  0.26900  0.37500  1.0000
  C   C13       1.0  0.44037  0.76900  0.37500  1.0000
  C   C14       1.0  0.80963  0.48100  0.37500  1.0000
  C   C15       1.0  0.44037  0.48100  0.87500  1.0000
  C   C16       1.0  0.80963  0.76900  0.87500  1.0000
  C   C17       1.0  0.05963  0.73100  0.62500  1.0000
  C   C18       1.0  0.69037  0.01900  0.62500  1.0000
  C   C19       1.0  0.05963  0.01900  0.12500  1.0000
  C   C20       1.0  0.69037  0.73100  0.12500  1.0000
  C   C21       1.0  0.05963  0.23100  0.12500  1.0000
  C   C22       1.0  0.69037  0.51900  0.12500  1.0000
  C   C23       1.0  0.05963  0.51900  0.62500  1.0000
  C   C24       1.0  0.69037  0.23100  0.62500  1.0000
  C   C25       1.0  0.55963  0.73100  0.12500  1.0000
  C   C26       1.0  0.19037  0.01900  0.12500  1.0000
  C   C27       1.0  0.55963  0.01900  0.62500  1.0000
  C   C28       1.0  0.19037  0.73100  0.62500  1.0000
  C   C29       1.0  0.55963  0.23100  0.62500  1.0000
  C   C30       1.0  0.19037  0.51900  0.62500  1.0000
  C   C31       1.0  0.55963  0.51900  0.12500  1.0000
  C   C32       1.0  0.19037  0.23100  0.12500  1.0000
  C   C33       1.0  0.97399  0.20180  0.38120  1.0000
  C   C34       1.0  0.27601  0.04820  0.38120  1.0000
  C   C35       1.0  0.97399  0.04820  0.86880  1.0000
  C   C36       1.0  0.27601  0.20180  0.86880  1.0000
  C   C37       1.0  0.97399  0.70180  0.88120  1.0000
  C   C38       1.0  0.27601  0.54820  0.88120  1.0000
  C   C39       1.0  0.97399  0.54820  0.36880  1.0000
  C   C40       1.0  0.27601  0.70180  0.36880  1.0000
  C   C41       1.0  0.47399  0.20180  0.88120  1.0000
  C   C42       1.0  0.77601  0.04820  0.88120  1.0000
  C   C43       1.0  0.47399  0.04820  0.36880  1.0000
  C   C44       1.0  0.77601  0.20180  0.36880  1.0000
  C   C45       1.0  0.47399  0.70180  0.38120  1.0000
  C   C46       1.0  0.77601  0.54820  0.38120  1.0000
  C   C47       1.0  0.47399  0.54820  0.86880  1.0000
  C   C48       1.0  0.77601  0.70180  0.86880  1.0000
  C   C49       1.0  0.02601  0.79820  0.61880  1.0000
  C   C50       1.0  0.72399  0.95180  0.61880  1.0000
  C   C51       1.0  0.02601  0.95180  0.13120  1.0000
  C   C52       1.0  0.72399  0.79820  0.13120  1.0000
  C   C53       1.0  0.02601  0.29820  0.11880  1.0000
  C   C54       1.0  0.72399  0.45180  0.11880  1.0000
  C   C55       1.0  0.02601  0.45180  0.63120  1.0000
  C   C56       1.0  0.72399  0.29820  0.63120  1.0000
  C   C57       1.0  0.52601  0.79820  0.11880  1.0000
  C   C58       1.0  0.22399  0.95180  0.11880  1.0000
  C   C59       1.0  0.52601  0.95180  0.63120  1.0000
  C   C60       1.0  0.22399  0.79820  0.63120  1.0000
  C   C61       1.0  0.52601  0.29820  0.61880  1.0000
  C   C62       1.0  0.22399  0.45180  0.61880  1.0000
  C   C63       1.0  0.52601  0.45180  0.13120  1.0000
  C   C64       1.0  0.22399  0.29820  0.13120  1.0000
  C   C65       1.0  0.01407  0.19290  0.33210  1.0000
  C   C66       1.0  0.23593  0.05710  0.33210  1.0000
  C   C67       1.0  0.01407  0.05710  0.91790  1.0000
  C   C68       1.0  0.23593  0.19290  0.91790  1.0000
  C   C69       1.0  0.01407  0.69290  0.83210  1.0000
  C   C70       1.0  0.23593  0.55710  0.83210  1.0000
  C   C71       1.0  0.01407  0.55710  0.41790  1.0000
  C   C72       1.0  0.23593  0.69290  0.41790  1.0000
  C   C73       1.0  0.51407  0.19290  0.83210  1.0000
  C   C74       1.0  0.73593  0.05710  0.83210  1.0000
  C   C75       1.0  0.51407  0.05710  0.41790  1.0000
  C   C76       1.0  0.73593  0.19290  0.41790  1.0000
  C   C77       1.0  0.51407  0.69290  0.33210  1.0000
  C   C78       1.0  0.73593  0.55710  0.33210  1.0000
  C   C79       1.0  0.51407  0.55710  0.91790  1.0000
  C   C80       1.0  0.73593  0.69290  0.91790  1.0000
  C   C81       1.0  0.98593  0.80710  0.66790  1.0000
  C   C82       1.0  0.76407  0.94290  0.66790  1.0000
  C   C83       1.0  0.98593  0.94290  0.08210  1.0000
  C   C84       1.0  0.76407  0.80710  0.08210  1.0000
  C   C85       1.0  0.98593  0.30710  0.16790  1.0000
  C   C86       1.0  0.76407  0.44290  0.16790  1.0000
  C   C87       1.0  0.98593  0.44290  0.58210  1.0000
  C   C88       1.0  0.76407  0.30710  0.58210  1.0000
  C   C89       1.0  0.48593  0.80710  0.16790  1.0000
  C   C90       1.0  0.26407  0.94290  0.16790  1.0000
  C   C91       1.0  0.48593  0.94290  0.58210  1.0000
  C   C92       1.0  0.26407  0.80710  0.58210  1.0000
  C   C93       1.0  0.48593  0.30710  0.66790  1.0000
  C   C94       1.0  0.26407  0.44290  0.66790  1.0000
  C   C95       1.0  0.48593  0.44290  0.08210  1.0000
  C   C96       1.0  0.26407  0.30710  0.08210  1.0000
  H   H1        1.0  0.01930  0.22970  0.29530  1.0000
  H   H2        1.0  0.23070  0.02030  0.29530  1.0000
  H   H3        1.0  0.01930  0.02030  0.95470  1.0000
  H   H4        1.0  0.23070  0.22970  0.95470  1.0000
  H   H5        1.0  0.01930  0.72970  0.79530  1.0000
  H   H6        1.0  0.23070  0.52030  0.79530  1.0000
  H   H7        1.0  0.01930  0.52030  0.45470  1.0000
  H   H8        1.0  0.23070  0.72970  0.45470  1.0000
  H   H9        1.0  0.51930  0.22970  0.79530  1.0000
  H   H10       1.0  0.73070  0.02030  0.79530  1.0000
  H   H11       1.0  0.51930  0.02030  0.45470  1.0000
  H   H12       1.0  0.73070  0.22970  0.45470  1.0000
  H   H13       1.0  0.51930  0.72970  0.29530  1.0000
  H   H14       1.0  0.73070  0.52030  0.29530  1.0000
  H   H15       1.0  0.51930  0.52030  0.95470  1.0000
  H   H16       1.0  0.73070  0.72970  0.95470  1.0000
  H   H17       1.0  0.98070  0.77030  0.70470  1.0000
  H   H18       1.0  0.76930  0.97970  0.70470  1.0000
  H   H19       1.0  0.98070  0.97970  0.04530  1.0000
  H   H20       1.0  0.76930  0.77030  0.04530  1.0000
  H   H21       1.0  0.98070  0.27030  0.20470  1.0000
  H   H22       1.0  0.76930  0.47970  0.20470  1.0000
  H   H23       1.0  0.98070  0.47970  0.54530  1.0000
  H   H24       1.0  0.76930  0.27030  0.54530  1.0000
  H   H25       1.0  0.48070  0.77030  0.20470  1.0000
  H   H26       1.0  0.26930  0.97970  0.20470  1.0000
  H   H27       1.0  0.48070  0.97970  0.54530  1.0000
  H   H28       1.0  0.26930  0.77030  0.54530  1.0000
  H   H29       1.0  0.48070  0.27030  0.70470  1.0000
  H   H30       1.0  0.26930  0.47970  0.70470  1.0000
  H   H31       1.0  0.48070  0.47970  0.04530  1.0000
  H   H32       1.0  0.26930  0.27030  0.04530  1.0000
  C   C97       1.0  0.96660  0.14780  0.43430  1.0000
  C   C98       1.0  0.28340  0.10220  0.43430  1.0000
  C   C99       1.0  0.96660  0.10220  0.81570  1.0000
  C   C100      1.0  0.28340  0.14780  0.81570  1.0000
  C   C101      1.0  0.96660  0.64780  0.93430  1.0000
  C   C102      1.0  0.28340  0.60220  0.93430  1.0000
  C   C103      1.0  0.96660  0.60220  0.31570  1.0000
  C   C104      1.0  0.28340  0.64780  0.31570  1.0000
  C   C105      1.0  0.46660  0.14780  0.93430  1.0000
  C   C106      1.0  0.78340  0.10220  0.93430  1.0000
  C   C107      1.0  0.46660  0.10220  0.31570  1.0000
  C   C108      1.0  0.78340  0.14780  0.31570  1.0000
  C   C109      1.0  0.46660  0.64780  0.43430  1.0000
  C   C110      1.0  0.78340  0.60220  0.43430  1.0000
  C   C111      1.0  0.46660  0.60220  0.81570  1.0000
  C   C112      1.0  0.78340  0.64780  0.81570  1.0000
  C   C113      1.0  0.03340  0.85220  0.56570  1.0000
  C   C114      1.0  0.71660  0.89780  0.56570  1.0000
  C   C115      1.0  0.03340  0.89780  0.18430  1.0000
  C   C116      1.0  0.71660  0.85220  0.18430  1.0000
  C   C117      1.0  0.03340  0.35220  0.06570  1.0000
  C   C118      1.0  0.71660  0.39780  0.06570  1.0000
  C   C119      1.0  0.03340  0.39780  0.68430  1.0000
  C   C120      1.0  0.71660  0.35220  0.68430  1.0000
  C   C121      1.0  0.53340  0.85220  0.06570  1.0000
  C   C122      1.0  0.21660  0.89780  0.06570  1.0000
  C   C123      1.0  0.53340  0.89780  0.68430  1.0000
  C   C124      1.0  0.21660  0.85220  0.68430  1.0000
  C   C125      1.0  0.53340  0.35220  0.56570  1.0000
  C   C126      1.0  0.21660  0.39780  0.56570  1.0000
  C   C127      1.0  0.53340  0.39780  0.18430  1.0000
  C   C128      1.0  0.21660  0.35220  0.18430  1.0000
  H   H33       1.0  0.94050  0.15140  0.46990  1.0000
  H   H34       1.0  0.30950  0.09860  0.46990  1.0000
  H   H35       1.0  0.94050  0.09860  0.78010  1.0000
  H   H36       1.0  0.30950  0.15140  0.78010  1.0000
  H   H37       1.0  0.94050  0.65140  0.96990  1.0000
  H   H38       1.0  0.30950  0.59860  0.96990  1.0000
  H   H39       1.0  0.94050  0.59860  0.28010  1.0000
  H   H40       1.0  0.30950  0.65140  0.28010  1.0000
  H   H41       1.0  0.44050  0.15140  0.96990  1.0000
  H   H42       1.0  0.80950  0.09860  0.96990  1.0000
  H   H43       1.0  0.44050  0.09860  0.28010  1.0000
  H   H44       1.0  0.80950  0.15140  0.28010  1.0000
  H   H45       1.0  0.44050  0.65140  0.46990  1.0000
  H   H46       1.0  0.80950  0.59860  0.46990  1.0000
  H   H47       1.0  0.44050  0.59860  0.78010  1.0000
  H   H48       1.0  0.80950  0.65140  0.78010  1.0000
  H   H49       1.0  0.05950  0.84860  0.53010  1.0000
  H   H50       1.0  0.69050  0.90140  0.53010  1.0000
  H   H51       1.0  0.05950  0.90140  0.21990  1.0000
  H   H52       1.0  0.69050  0.84860  0.21990  1.0000
  H   H53       1.0  0.05950  0.34860  0.03010  1.0000
  H   H54       1.0  0.69050  0.40140  0.03010  1.0000
  H   H55       1.0  0.05950  0.40140  0.71990  1.0000
  H   H56       1.0  0.69050  0.34860  0.71990  1.0000
  H   H57       1.0  0.55950  0.84860  0.03010  1.0000
  H   H58       1.0  0.19050  0.90140  0.03010  1.0000
  H   H59       1.0  0.55950  0.90140  0.71990  1.0000
  H   H60       1.0  0.19050  0.84860  0.71990  1.0000
  H   H61       1.0  0.55950  0.34860  0.53010  1.0000
  H   H62       1.0  0.19050  0.40140  0.53010  1.0000
  H   H63       1.0  0.55950  0.40140  0.21990  1.0000
  H   H64       1.0  0.19050  0.34860  0.21990  1.0000
  C   C129      1.0  0.99860  0.08760  0.43450  1.0000
  C   C130      1.0  0.25140  0.16240  0.43450  1.0000
  C   C131      1.0  0.99860  0.16240  0.81550  1.0000
  C   C132      1.0  0.25140  0.08760  0.81550  1.0000
  C   C133      1.0  0.99860  0.58760  0.93450  1.0000
  C   C134      1.0  0.25140  0.66240  0.93450  1.0000
  C   C135      1.0  0.99860  0.66240  0.31550  1.0000
  C   C136      1.0  0.25140  0.58760  0.31550  1.0000
  C   C137      1.0  0.49860  0.08760  0.93450  1.0000
  C   C138      1.0  0.75140  0.16240  0.93450  1.0000
  C   C139      1.0  0.49860  0.16240  0.31550  1.0000
  C   C140      1.0  0.75140  0.08760  0.31550  1.0000
  C   C141      1.0  0.49860  0.58760  0.43450  1.0000
  C   C142      1.0  0.75140  0.66240  0.43450  1.0000
  C   C143      1.0  0.49860  0.66240  0.81550  1.0000
  C   C144      1.0  0.75140  0.58760  0.81550  1.0000
  C   C145      1.0  0.00140  0.91240  0.56550  1.0000
  C   C146      1.0  0.74860  0.83760  0.56550  1.0000
  C   C147      1.0  0.00140  0.83760  0.18450  1.0000
  C   C148      1.0  0.74860  0.91240  0.18450  1.0000
  C   C149      1.0  0.00140  0.41240  0.06550  1.0000
  C   C150      1.0  0.74860  0.33760  0.06550  1.0000
  C   C151      1.0  0.00140  0.33760  0.68450  1.0000
  C   C152      1.0  0.74860  0.41240  0.68450  1.0000
  C   C153      1.0  0.50140  0.91240  0.06550  1.0000
  C   C154      1.0  0.24860  0.83760  0.06550  1.0000
  C   C155      1.0  0.50140  0.83760  0.68450  1.0000
  C   C156      1.0  0.24860  0.91240  0.68450  1.0000
  C   C157      1.0  0.50140  0.41240  0.56550  1.0000
  C   C158      1.0  0.24860  0.33760  0.56550  1.0000
  C   C159      1.0  0.50140  0.33760  0.18450  1.0000
  C   C160      1.0  0.24860  0.41240  0.18450  1.0000
  H   H65       1.0  0.99330  0.04920  0.46950  1.0000
  H   H66       1.0  0.25670  0.20080  0.46950  1.0000
  H   H67       1.0  0.99330  0.20080  0.78050  1.0000
  H   H68       1.0  0.25670  0.04920  0.78050  1.0000
  H   H69       1.0  0.99330  0.54920  0.96950  1.0000
  H   H70       1.0  0.25670  0.70080  0.96950  1.0000
  H   H71       1.0  0.99330  0.70080  0.28050  1.0000
  H   H72       1.0  0.25670  0.54920  0.28050  1.0000
  H   H73       1.0  0.49330  0.04920  0.96950  1.0000
  H   H74       1.0  0.75670  0.20080  0.96950  1.0000
  H   H75       1.0  0.49330  0.20080  0.28050  1.0000
  H   H76       1.0  0.75670  0.04920  0.28050  1.0000
  H   H77       1.0  0.49330  0.54920  0.46950  1.0000
  H   H78       1.0  0.75670  0.70080  0.46950  1.0000
  H   H79       1.0  0.49330  0.70080  0.78050  1.0000
  H   H80       1.0  0.75670  0.54920  0.78050  1.0000
  H   H81       1.0  0.00670  0.95080  0.53050  1.0000
  H   H82       1.0  0.74330  0.79920  0.53050  1.0000
  H   H83       1.0  0.00670  0.79920  0.21950  1.0000
  H   H84       1.0  0.74330  0.95080  0.21950  1.0000
  H   H85       1.0  0.00670  0.45080  0.03050  1.0000
  H   H86       1.0  0.74330  0.29920  0.03050  1.0000
  H   H87       1.0  0.00670  0.29920  0.71950  1.0000
  H   H88       1.0  0.74330  0.45080  0.71950  1.0000
  H   H89       1.0  0.50670  0.95080  0.03050  1.0000
  H   H90       1.0  0.24330  0.79920  0.03050  1.0000
  H   H91       1.0  0.50670  0.79920  0.71950  1.0000
  H   H92       1.0  0.24330  0.95080  0.71950  1.0000
  H   H93       1.0  0.50670  0.45080  0.53050  1.0000
  H   H94       1.0  0.24330  0.29920  0.53050  1.0000
  H   H95       1.0  0.50670  0.29920  0.21950  1.0000
  H   H96       1.0  0.24330  0.45080  0.21950  1.0000
  C   C161      1.0  0.03830  0.08340  0.38420  1.0000
  C   C162      1.0  0.21170  0.16660  0.38420  1.0000
  C   C163      1.0  0.03830  0.16660  0.86580  1.0000
  C   C164      1.0  0.21170  0.08340  0.86580  1.0000
  C   C165      1.0  0.03830  0.58340  0.88420  1.0000
  C   C166      1.0  0.21170  0.66660  0.88420  1.0000
  C   C167      1.0  0.03830  0.66660  0.36580  1.0000
  C   C168      1.0  0.21170  0.58340  0.36580  1.0000
  C   C169      1.0  0.53830  0.08340  0.88420  1.0000
  C   C170      1.0  0.71170  0.16660  0.88420  1.0000
  C   C171      1.0  0.53830  0.16660  0.36580  1.0000
  C   C172      1.0  0.71170  0.08340  0.36580  1.0000
  C   C173      1.0  0.53830  0.58340  0.38420  1.0000
  C   C174      1.0  0.71170  0.66660  0.38420  1.0000
  C   C175      1.0  0.53830  0.66660  0.86580  1.0000
  C   C176      1.0  0.71170  0.58340  0.86580  1.0000
  C   C177      1.0  0.96170  0.91660  0.61580  1.0000
  C   C178      1.0  0.78830  0.83340  0.61580  1.0000
  C   C179      1.0  0.96170  0.83340  0.13420  1.0000
  C   C180      1.0  0.78830  0.91660  0.13420  1.0000
  C   C181      1.0  0.96170  0.41660  0.11580  1.0000
  C   C182      1.0  0.78830  0.33340  0.11580  1.0000
  C   C183      1.0  0.96170  0.33340  0.63420  1.0000
  C   C184      1.0  0.78830  0.41660  0.63420  1.0000
  C   C185      1.0  0.46170  0.91660  0.11580  1.0000
  C   C186      1.0  0.28830  0.83340  0.11580  1.0000
  C   C187      1.0  0.46170  0.83340  0.63420  1.0000
  C   C188      1.0  0.28830  0.91660  0.63420  1.0000
  C   C189      1.0  0.46170  0.41660  0.61580  1.0000
  C   C190      1.0  0.28830  0.33340  0.61580  1.0000
  C   C191      1.0  0.46170  0.33340  0.13420  1.0000
  C   C192      1.0  0.28830  0.41660  0.13420  1.0000
  C   C193      1.0  0.07580  0.01910  0.38150  1.0000
  C   C194      1.0  0.17420  0.23090  0.38150  1.0000
  C   C195      1.0  0.07580  0.23090  0.86850  1.0000
  C   C196      1.0  0.17420  0.01910  0.86850  1.0000
  C   C197      1.0  0.07580  0.51910  0.88150  1.0000
  C   C198      1.0  0.17420  0.73090  0.88150  1.0000
  C   C199      1.0  0.07580  0.73090  0.36850  1.0000
  C   C200      1.0  0.17420  0.51910  0.36850  1.0000
  C   C201      1.0  0.57580  0.01910  0.88150  1.0000
  C   C202      1.0  0.67420  0.23090  0.88150  1.0000
  C   C203      1.0  0.57580  0.23090  0.36850  1.0000
  C   C204      1.0  0.67420  0.01910  0.36850  1.0000
  C   C205      1.0  0.57580  0.51910  0.38150  1.0000
  C   C206      1.0  0.67420  0.73090  0.38150  1.0000
  C   C207      1.0  0.57580  0.73090  0.86850  1.0000
  C   C208      1.0  0.67420  0.51910  0.86850  1.0000
  C   C209      1.0  0.92420  0.98090  0.61850  1.0000
  C   C210      1.0  0.82580  0.76910  0.61850  1.0000
  C   C211      1.0  0.92420  0.76910  0.13150  1.0000
  C   C212      1.0  0.82580  0.98090  0.13150  1.0000
  C   C213      1.0  0.92420  0.48090  0.11850  1.0000
  C   C214      1.0  0.82580  0.26910  0.11850  1.0000
  C   C215      1.0  0.92420  0.26910  0.63150  1.0000
  C   C216      1.0  0.82580  0.48090  0.63150  1.0000
  C   C217      1.0  0.42420  0.98090  0.11850  1.0000
  C   C218      1.0  0.32580  0.76910  0.11850  1.0000
  C   C219      1.0  0.42420  0.76910  0.63150  1.0000
  C   C220      1.0  0.32580  0.98090  0.63150  1.0000
  C   C221      1.0  0.42420  0.48090  0.61850  1.0000
  C   C222      1.0  0.32580  0.26910  0.61850  1.0000
  C   C223      1.0  0.42420  0.26910  0.13150  1.0000
  C   C224      1.0  0.32580  0.48090  0.13150  1.0000
