data_image0
_chemical_formula_structural       Eu16O32N32C32O32C32O32C32H32O32C32H32C32H32C64
_chemical_formula_sum              "Eu16 O128 N32 C224 H96"
_cell_length_a       26.7127
_cell_length_b       17.9748
_cell_length_c       17.8024
_cell_angle_alpha    90
_cell_angle_beta     90
_cell_angle_gamma    90

_space_group_name_H-M_alt    "P 1"
_space_group_IT_number       1

loop_
  _space_group_symop_operation_xyz
  'x, y, z'

loop_
  _atom_site_type_symbol
  _atom_site_label
  _atom_site_symmetry_multiplicity
  _atom_site_fract_x
  _atom_site_fract_y
  _atom_site_fract_z
  _atom_site_occupancy
  Eu  Eu1       1.0  0.87500  0.37500  0.50204  1.0000
  Eu  Eu2       1.0  0.37500  0.87500  0.50204  1.0000
  Eu  Eu3       1.0  0.87500  0.87500  0.74796  1.0000
  Eu  Eu4       1.0  0.37500  0.37500  0.74796  1.0000
  Eu  Eu5       1.0  0.87500  0.87500  0.00204  1.0000
  Eu  Eu6       1.0  0.37500  0.37500  0.00204  1.0000
  Eu  Eu7       1.0  0.87500  0.37500  0.24796  1.0000
  Eu  Eu8       1.0  0.37500  0.87500  0.24796  1.0000
  Eu  Eu9       1.0  0.12500  0.62500  0.49796  1.0000
  Eu  Eu10      1.0  0.62500  0.12500  0.49796  1.0000
  Eu  Eu11      1.0  0.12500  0.12500  0.25204  1.0000
  Eu  Eu12      1.0  0.62500  0.62500  0.25204  1.0000
  Eu  Eu13      1.0  0.12500  0.12500  0.99796  1.0000
  Eu  Eu14      1.0  0.62500  0.62500  0.99796  1.0000
  Eu  Eu15      1.0  0.12500  0.62500  0.75204  1.0000
  Eu  Eu16      1.0  0.62500  0.12500  0.75204  1.0000
  O   O1        1.0  0.92637  0.29610  0.43320  1.0000
  O   O2        1.0  0.32363  0.95390  0.43320  1.0000
  O   O3        1.0  0.92637  0.95390  0.81680  1.0000
  O   O4        1.0  0.32363  0.29610  0.81680  1.0000
  O   O5        1.0  0.92637  0.79610  0.93320  1.0000
  O   O6        1.0  0.32363  0.45390  0.93320  1.0000
  O   O7        1.0  0.92637  0.45390  0.31680  1.0000
  O   O8        1.0  0.32363  0.79610  0.31680  1.0000
  O   O9        1.0  0.42637  0.29610  0.93320  1.0000
  O   O10       1.0  0.82363  0.95390  0.93320  1.0000
  O   O11       1.0  0.42637  0.95390  0.31680  1.0000
  O   O12       1.0  0.82363  0.29610  0.31680  1.0000
  O   O13       1.0  0.42637  0.79610  0.43320  1.0000
  O   O14       1.0  0.82363  0.45390  0.43320  1.0000
  O   O15       1.0  0.42637  0.45390  0.81680  1.0000
  O   O16       1.0  0.82363  0.79610  0.81680  1.0000
  O   O17       1.0  0.07363  0.70390  0.56680  1.0000
  O   O18       1.0  0.67637  0.04610  0.56680  1.0000
  O   O19       1.0  0.07363  0.04610  0.18320  1.0000
  O   O20       1.0  0.67637  0.70390  0.18320  1.0000
  O   O21       1.0  0.07363  0.20390  0.06680  1.0000
  O   O22       1.0  0.67637  0.54610  0.06680  1.0000
  O   O23       1.0  0.07363  0.54610  0.68320  1.0000
  O   O24       1.0  0.67637  0.20390  0.68320  1.0000
  O   O25       1.0  0.57363  0.70390  0.06680  1.0000
  O   O26       1.0  0.17637  0.04610  0.06680  1.0000
  O   O27       1.0  0.57363  0.04610  0.68320  1.0000
  O   O28       1.0  0.17637  0.70390  0.68320  1.0000
  O   O29       1.0  0.57363  0.20390  0.56680  1.0000
  O   O30       1.0  0.17637  0.54610  0.56680  1.0000
  O   O31       1.0  0.57363  0.54610  0.18320  1.0000
  O   O32       1.0  0.17637  0.20390  0.18320  1.0000
  N   N1        1.0  0.04515  0.13350  0.33310  1.0000
  N   N2        1.0  0.20485  0.11650  0.33310  1.0000
  N   N3        1.0  0.04515  0.11650  0.91690  1.0000
  N   N4        1.0  0.20485  0.13350  0.91690  1.0000
  N   N5        1.0  0.04515  0.63350  0.83310  1.0000
  N   N6        1.0  0.20485  0.61650  0.83310  1.0000
  N   N7        1.0  0.04515  0.61650  0.41690  1.0000
  N   N8        1.0  0.20485  0.63350  0.41690  1.0000
  N   N9        1.0  0.54515  0.13350  0.83310  1.0000
  N   N10       1.0  0.70485  0.11650  0.83310  1.0000
  N   N11       1.0  0.54515  0.11650  0.41690  1.0000
  N   N12       1.0  0.70485  0.13350  0.41690  1.0000
  N   N13       1.0  0.54515  0.63350  0.33310  1.0000
  N   N14       1.0  0.70485  0.61650  0.33310  1.0000
  N   N15       1.0  0.54515  0.61650  0.91690  1.0000
  N   N16       1.0  0.70485  0.63350  0.91690  1.0000
  N   N17       1.0  0.95485  0.86650  0.66690  1.0000
  N   N18       1.0  0.79515  0.88350  0.66690  1.0000
  N   N19       1.0  0.95485  0.88350  0.08310  1.0000
  N   N20       1.0  0.79515  0.86650  0.08310  1.0000
  N   N21       1.0  0.95485  0.36650  0.16690  1.0000
  N   N22       1.0  0.79515  0.38350  0.16690  1.0000
  N   N23       1.0  0.95485  0.38350  0.58310  1.0000
  N   N24       1.0  0.79515  0.36650  0.58310  1.0000
  N   N25       1.0  0.45485  0.86650  0.16690  1.0000
  N   N26       1.0  0.29515  0.88350  0.16690  1.0000
  N   N27       1.0  0.45485  0.88350  0.58310  1.0000
  N   N28       1.0  0.29515  0.86650  0.58310  1.0000
  N   N29       1.0  0.45485  0.36650  0.66690  1.0000
  N   N30       1.0  0.29515  0.38350  0.66690  1.0000
  N   N31       1.0  0.45485  0.38350  0.08310  1.0000
  N   N32       1.0  0.29515  0.36650  0.08310  1.0000
  C   C1        1.0  0.94057  0.26660  0.37430  1.0000
  C   C2        1.0  0.30943  0.98340  0.37430  1.0000
  C   C3        1.0  0.94057  0.98340  0.87570  1.0000
  C   C4        1.0  0.30943  0.26660  0.87570  1.0000
  C   C5        1.0  0.94057  0.76660  0.87430  1.0000
  C   C6        1.0  0.30943  0.48340  0.87430  1.0000
  C   C7        1.0  0.94057  0.48340  0.37570  1.0000
  C   C8        1.0  0.30943  0.76660  0.37570  1.0000
  C   C9        1.0  0.44057  0.26660  0.87430  1.0000
  C   C10       1.0  0.80943  0.98340  0.87430  1.0000
  C   C11       1.0  0.44057  0.98340  0.37570  1.0000
  C   C12       1.0  0.80943  0.26660  0.37570  1.0000
  C   C13       1.0  0.44057  0.76660  0.37430  1.0000
  C   C14       1.0  0.80943  0.48340  0.37430  1.0000
  C   C15       1.0  0.44057  0.48340  0.87570  1.0000
  C   C16       1.0  0.80943  0.76660  0.87570  1.0000
  C   C17       1.0  0.05943  0.73340  0.62570  1.0000
  C   C18       1.0  0.69057  0.01660  0.62570  1.0000
  C   C19       1.0  0.05943  0.01660  0.12430  1.0000
  C   C20       1.0  0.69057  0.73340  0.12430  1.0000
  C   C21       1.0  0.05943  0.23340  0.12570  1.0000
  C   C22       1.0  0.69057  0.51660  0.12570  1.0000
  C   C23       1.0  0.05943  0.51660  0.62430  1.0000
  C   C24       1.0  0.69057  0.23340  0.62430  1.0000
  C   C25       1.0  0.55943  0.73340  0.12570  1.0000
  C   C26       1.0  0.19057  0.01660  0.12570  1.0000
  C   C27       1.0  0.55943  0.01660  0.62430  1.0000
  C   C28       1.0  0.19057  0.73340  0.62430  1.0000
  C   C29       1.0  0.55943  0.23340  0.62570  1.0000
  C   C30       1.0  0.19057  0.51660  0.62570  1.0000
  C   C31       1.0  0.55943  0.51660  0.12430  1.0000
  C   C32       1.0  0.19057  0.23340  0.12430  1.0000
  O   O33       1.0  0.93019  0.28790  0.30980  1.0000
  O   O34       1.0  0.31981  0.96210  0.30980  1.0000
  O   O35       1.0  0.93019  0.96210  0.94020  1.0000
  O   O36       1.0  0.31981  0.28790  0.94020  1.0000
  O   O37       1.0  0.93019  0.78790  0.80980  1.0000
  O   O38       1.0  0.31981  0.46210  0.80980  1.0000
  O   O39       1.0  0.93019  0.46210  0.44020  1.0000
  O   O40       1.0  0.31981  0.78790  0.44020  1.0000
  O   O41       1.0  0.43019  0.28790  0.80980  1.0000
  O   O42       1.0  0.81981  0.96210  0.80980  1.0000
  O   O43       1.0  0.43019  0.96210  0.44020  1.0000
  O   O44       1.0  0.81981  0.28790  0.44020  1.0000
  O   O45       1.0  0.43019  0.78790  0.30980  1.0000
  O   O46       1.0  0.81981  0.46210  0.30980  1.0000
  O   O47       1.0  0.43019  0.46210  0.94020  1.0000
  O   O48       1.0  0.81981  0.78790  0.94020  1.0000
  O   O49       1.0  0.06981  0.71210  0.69020  1.0000
  O   O50       1.0  0.68019  0.03790  0.69020  1.0000
  O   O51       1.0  0.06981  0.03790  0.05980  1.0000
  O   O52       1.0  0.68019  0.71210  0.05980  1.0000
  O   O53       1.0  0.06981  0.21210  0.19020  1.0000
  O   O54       1.0  0.68019  0.53790  0.19020  1.0000
  O   O55       1.0  0.06981  0.53790  0.55980  1.0000
  O   O56       1.0  0.68019  0.21210  0.55980  1.0000
  O   O57       1.0  0.56981  0.71210  0.19020  1.0000
  O   O58       1.0  0.18019  0.03790  0.19020  1.0000
  O   O59       1.0  0.56981  0.03790  0.55980  1.0000
  O   O60       1.0  0.18019  0.71210  0.55980  1.0000
  O   O61       1.0  0.56981  0.21210  0.69020  1.0000
  O   O62       1.0  0.18019  0.53790  0.69020  1.0000
  O   O63       1.0  0.56981  0.53790  0.05980  1.0000
  O   O64       1.0  0.18019  0.21210  0.05980  1.0000
  C   C33       1.0  0.97421  0.19980  0.38050  1.0000
  C   C34       1.0  0.27579  0.05020  0.38050  1.0000
  C   C35       1.0  0.97421  0.05020  0.86950  1.0000
  C   C36       1.0  0.27579  0.19980  0.86950  1.0000
  C   C37       1.0  0.97421  0.69980  0.88050  1.0000
  C   C38       1.0  0.27579  0.55020  0.88050  1.0000
  C   C39       1.0  0.97421  0.55020  0.36950  1.0000
  C   C40       1.0  0.27579  0.69980  0.36950  1.0000
  C   C41       1.0  0.47421  0.19980  0.88050  1.0000
  C   C42       1.0  0.77579  0.05020  0.88050  1.0000
  C   C43       1.0  0.47421  0.05020  0.36950  1.0000
  C   C44       1.0  0.77579  0.19980  0.36950  1.0000
  C   C45       1.0  0.47421  0.69980  0.38050  1.0000
  C   C46       1.0  0.77579  0.55020  0.38050  1.0000
  C   C47       1.0  0.47421  0.55020  0.86950  1.0000
  C   C48       1.0  0.77579  0.69980  0.86950  1.0000
  C   C49       1.0  0.02579  0.80020  0.61950  1.0000
  C   C50       1.0  0.72421  0.94980  0.61950  1.0000
  C   C51       1.0  0.02579  0.94980  0.13050  1.0000
  C   C52       1.0  0.72421  0.80020  0.13050  1.0000
  C   C53       1.0  0.02579  0.30020  0.11950  1.0000
  C   C54       1.0  0.72421  0.44980  0.11950  1.0000
  C   C55       1.0  0.02579  0.44980  0.63050  1.0000
  C   C56       1.0  0.72421  0.30020  0.63050  1.0000
  C   C57       1.0  0.52579  0.80020  0.11950  1.0000
  C   C58       1.0  0.22421  0.94980  0.11950  1.0000
  C   C59       1.0  0.52579  0.94980  0.63050  1.0000
  C   C60       1.0  0.22421  0.80020  0.63050  1.0000
  C   C61       1.0  0.52579  0.30020  0.61950  1.0000
  C   C62       1.0  0.22421  0.44980  0.61950  1.0000
  C   C63       1.0  0.52579  0.44980  0.13050  1.0000
  C   C64       1.0  0.22421  0.30020  0.13050  1.0000
  O   O65       1.0  0.11357  0.02812  0.34120  1.0000
  O   O66       1.0  0.13643  0.22188  0.34120  1.0000
  O   O67       1.0  0.11357  0.22188  0.90880  1.0000
  O   O68       1.0  0.13643  0.02812  0.90880  1.0000
  O   O69       1.0  0.11357  0.52812  0.84120  1.0000
  O   O70       1.0  0.13643  0.72188  0.84120  1.0000
  O   O71       1.0  0.11357  0.72188  0.40880  1.0000
  O   O72       1.0  0.13643  0.52812  0.40880  1.0000
  O   O73       1.0  0.61357  0.02812  0.84120  1.0000
  O   O74       1.0  0.63643  0.22188  0.84120  1.0000
  O   O75       1.0  0.61357  0.22188  0.40880  1.0000
  O   O76       1.0  0.63643  0.02812  0.40880  1.0000
  O   O77       1.0  0.61357  0.52812  0.34120  1.0000
  O   O78       1.0  0.63643  0.72188  0.34120  1.0000
  O   O79       1.0  0.61357  0.72188  0.90880  1.0000
  O   O80       1.0  0.63643  0.52812  0.90880  1.0000
  O   O81       1.0  0.88643  0.97188  0.65880  1.0000
  O   O82       1.0  0.86357  0.77812  0.65880  1.0000
  O   O83       1.0  0.88643  0.77812  0.09120  1.0000
  O   O84       1.0  0.86357  0.97188  0.09120  1.0000
  O   O85       1.0  0.88643  0.47188  0.15880  1.0000
  O   O86       1.0  0.86357  0.27812  0.15880  1.0000
  O   O87       1.0  0.88643  0.27812  0.59120  1.0000
  O   O88       1.0  0.86357  0.47188  0.59120  1.0000
  O   O89       1.0  0.38643  0.97188  0.15880  1.0000
  O   O90       1.0  0.36357  0.77812  0.15880  1.0000
  O   O91       1.0  0.38643  0.77812  0.59120  1.0000
  O   O92       1.0  0.36357  0.97188  0.59120  1.0000
  O   O93       1.0  0.38643  0.47188  0.65880  1.0000
  O   O94       1.0  0.36357  0.27812  0.65880  1.0000
  O   O95       1.0  0.38643  0.27812  0.09120  1.0000
  O   O96       1.0  0.36357  0.47188  0.09120  1.0000
  C   C65       1.0  0.01284  0.18960  0.33140  1.0000
  C   C66       1.0  0.23716  0.06040  0.33140  1.0000
  C   C67       1.0  0.01284  0.06040  0.91860  1.0000
  C   C68       1.0  0.23716  0.18960  0.91860  1.0000
  C   C69       1.0  0.01284  0.68960  0.83140  1.0000
  C   C70       1.0  0.23716  0.56040  0.83140  1.0000
  C   C71       1.0  0.01284  0.56040  0.41860  1.0000
  C   C72       1.0  0.23716  0.68960  0.41860  1.0000
  C   C73       1.0  0.51284  0.18960  0.83140  1.0000
  C   C74       1.0  0.73716  0.06040  0.83140  1.0000
  C   C75       1.0  0.51284  0.06040  0.41860  1.0000
  C   C76       1.0  0.73716  0.18960  0.41860  1.0000
  C   C77       1.0  0.51284  0.68960  0.33140  1.0000
  C   C78       1.0  0.73716  0.56040  0.33140  1.0000
  C   C79       1.0  0.51284  0.56040  0.91860  1.0000
  C   C80       1.0  0.73716  0.68960  0.91860  1.0000
  C   C81       1.0  0.98716  0.81040  0.66860  1.0000
  C   C82       1.0  0.76284  0.93960  0.66860  1.0000
  C   C83       1.0  0.98716  0.93960  0.08140  1.0000
  C   C84       1.0  0.76284  0.81040  0.08140  1.0000
  C   C85       1.0  0.98716  0.31040  0.16860  1.0000
  C   C86       1.0  0.76284  0.43960  0.16860  1.0000
  C   C87       1.0  0.98716  0.43960  0.58140  1.0000
  C   C88       1.0  0.76284  0.31040  0.58140  1.0000
  C   C89       1.0  0.48716  0.81040  0.16860  1.0000
  C   C90       1.0  0.26284  0.93960  0.16860  1.0000
  C   C91       1.0  0.48716  0.93960  0.58140  1.0000
  C   C92       1.0  0.26284  0.81040  0.58140  1.0000
  C   C93       1.0  0.48716  0.31040  0.66860  1.0000
  C   C94       1.0  0.26284  0.43960  0.66860  1.0000
  C   C95       1.0  0.48716  0.43960  0.08140  1.0000
  C   C96       1.0  0.26284  0.31040  0.08140  1.0000
  H   H1        1.0  0.01690  0.22480  0.29360  1.0000
  H   H2        1.0  0.23310  0.02520  0.29360  1.0000
  H   H3        1.0  0.01690  0.02520  0.95640  1.0000
  H   H4        1.0  0.23310  0.22480  0.95640  1.0000
  H   H5        1.0  0.01690  0.72480  0.79360  1.0000
  H   H6        1.0  0.23310  0.52520  0.79360  1.0000
  H   H7        1.0  0.01690  0.52520  0.45640  1.0000
  H   H8        1.0  0.23310  0.72480  0.45640  1.0000
  H   H9        1.0  0.51690  0.22480  0.79360  1.0000
  H   H10       1.0  0.73310  0.02520  0.79360  1.0000
  H   H11       1.0  0.51690  0.02520  0.45640  1.0000
  H   H12       1.0  0.73310  0.22480  0.45640  1.0000
  H   H13       1.0  0.51690  0.72480  0.29360  1.0000
  H   H14       1.0  0.73310  0.52520  0.29360  1.0000
  H   H15       1.0  0.51690  0.52520  0.95640  1.0000
  H   H16       1.0  0.73310  0.72480  0.95640  1.0000
  H   H17       1.0  0.98310  0.77520  0.70640  1.0000
  H   H18       1.0  0.76690  0.97480  0.70640  1.0000
  H   H19       1.0  0.98310  0.97480  0.04360  1.0000
  H   H20       1.0  0.76690  0.77520  0.04360  1.0000
  H   H21       1.0  0.98310  0.27520  0.20640  1.0000
  H   H22       1.0  0.76690  0.47480  0.20640  1.0000
  H   H23       1.0  0.98310  0.47480  0.54360  1.0000
  H   H24       1.0  0.76690  0.27520  0.54360  1.0000
  H   H25       1.0  0.48310  0.77520  0.20640  1.0000
  H   H26       1.0  0.26690  0.97480  0.20640  1.0000
  H   H27       1.0  0.48310  0.97480  0.54360  1.0000
  H   H28       1.0  0.26690  0.77520  0.54360  1.0000
  H   H29       1.0  0.48310  0.27520  0.70640  1.0000
  H   H30       1.0  0.26690  0.47480  0.70640  1.0000
  H   H31       1.0  0.48310  0.47480  0.04360  1.0000
  H   H32       1.0  0.26690  0.27520  0.04360  1.0000
  O   O97       1.0  0.06840  0.96350  0.42120  1.0000
  O   O98       1.0  0.18160  0.28650  0.42120  1.0000
  O   O99       1.0  0.06840  0.28650  0.82880  1.0000
  O   O100      1.0  0.18160  0.96350  0.82880  1.0000
  O   O101      1.0  0.06840  0.46350  0.92120  1.0000
  O   O102      1.0  0.18160  0.78650  0.92120  1.0000
  O   O103      1.0  0.06840  0.78650  0.32880  1.0000
  O   O104      1.0  0.18160  0.46350  0.32880  1.0000
  O   O105      1.0  0.56840  0.96350  0.92120  1.0000
  O   O106      1.0  0.68160  0.28650  0.92120  1.0000
  O   O107      1.0  0.56840  0.28650  0.32880  1.0000
  O   O108      1.0  0.68160  0.96350  0.32880  1.0000
  O   O109      1.0  0.56840  0.46350  0.42120  1.0000
  O   O110      1.0  0.68160  0.78650  0.42120  1.0000
  O   O111      1.0  0.56840  0.78650  0.82880  1.0000
  O   O112      1.0  0.68160  0.46350  0.82880  1.0000
  O   O113      1.0  0.93160  0.03650  0.57880  1.0000
  O   O114      1.0  0.81840  0.71350  0.57880  1.0000
  O   O115      1.0  0.93160  0.71350  0.17120  1.0000
  O   O116      1.0  0.81840  0.03650  0.17120  1.0000
  O   O117      1.0  0.93160  0.53650  0.07880  1.0000
  O   O118      1.0  0.81840  0.21350  0.07880  1.0000
  O   O119      1.0  0.93160  0.21350  0.67120  1.0000
  O   O120      1.0  0.81840  0.53650  0.67120  1.0000
  O   O121      1.0  0.43160  0.03650  0.07880  1.0000
  O   O122      1.0  0.31840  0.71350  0.07880  1.0000
  O   O123      1.0  0.43160  0.71350  0.67120  1.0000
  O   O124      1.0  0.31840  0.03650  0.67120  1.0000
  O   O125      1.0  0.43160  0.53650  0.57880  1.0000
  O   O126      1.0  0.31840  0.21350  0.57880  1.0000
  O   O127      1.0  0.43160  0.21350  0.17120  1.0000
  O   O128      1.0  0.31840  0.53650  0.17120  1.0000
  C   C97       1.0  0.96830  0.14780  0.43350  1.0000
  C   C98       1.0  0.28170  0.10220  0.43350  1.0000
  C   C99       1.0  0.96830  0.10220  0.81650  1.0000
  C   C100      1.0  0.28170  0.14780  0.81650  1.0000
  C   C101      1.0  0.96830  0.64780  0.93350  1.0000
  C   C102      1.0  0.28170  0.60220  0.93350  1.0000
  C   C103      1.0  0.96830  0.60220  0.31650  1.0000
  C   C104      1.0  0.28170  0.64780  0.31650  1.0000
  C   C105      1.0  0.46830  0.14780  0.93350  1.0000
  C   C106      1.0  0.78170  0.10220  0.93350  1.0000
  C   C107      1.0  0.46830  0.10220  0.31650  1.0000
  C   C108      1.0  0.78170  0.14780  0.31650  1.0000
  C   C109      1.0  0.46830  0.64780  0.43350  1.0000
  C   C110      1.0  0.78170  0.60220  0.43350  1.0000
  C   C111      1.0  0.46830  0.60220  0.81650  1.0000
  C   C112      1.0  0.78170  0.64780  0.81650  1.0000
  C   C113      1.0  0.03170  0.85220  0.56650  1.0000
  C   C114      1.0  0.71830  0.89780  0.56650  1.0000
  C   C115      1.0  0.03170  0.89780  0.18350  1.0000
  C   C116      1.0  0.71830  0.85220  0.18350  1.0000
  C   C117      1.0  0.03170  0.35220  0.06650  1.0000
  C   C118      1.0  0.71830  0.39780  0.06650  1.0000
  C   C119      1.0  0.03170  0.39780  0.68350  1.0000
  C   C120      1.0  0.71830  0.35220  0.68350  1.0000
  C   C121      1.0  0.53170  0.85220  0.06650  1.0000
  C   C122      1.0  0.21830  0.89780  0.06650  1.0000
  C   C123      1.0  0.53170  0.89780  0.68350  1.0000
  C   C124      1.0  0.21830  0.85220  0.68350  1.0000
  C   C125      1.0  0.53170  0.35220  0.56650  1.0000
  C   C126      1.0  0.21830  0.39780  0.56650  1.0000
  C   C127      1.0  0.53170  0.39780  0.18350  1.0000
  C   C128      1.0  0.21830  0.35220  0.18350  1.0000
  H   H33       1.0  0.94300  0.15230  0.46920  1.0000
  H   H34       1.0  0.30700  0.09770  0.46920  1.0000
  H   H35       1.0  0.94300  0.09770  0.78080  1.0000
  H   H36       1.0  0.30700  0.15230  0.78080  1.0000
  H   H37       1.0  0.94300  0.65230  0.96920  1.0000
  H   H38       1.0  0.30700  0.59770  0.96920  1.0000
  H   H39       1.0  0.94300  0.59770  0.28080  1.0000
  H   H40       1.0  0.30700  0.65230  0.28080  1.0000
  H   H41       1.0  0.44300  0.15230  0.96920  1.0000
  H   H42       1.0  0.80700  0.09770  0.96920  1.0000
  H   H43       1.0  0.44300  0.09770  0.28080  1.0000
  H   H44       1.0  0.80700  0.15230  0.28080  1.0000
  H   H45       1.0  0.44300  0.65230  0.46920  1.0000
  H   H46       1.0  0.80700  0.59770  0.46920  1.0000
  H   H47       1.0  0.44300  0.59770  0.78080  1.0000
  H   H48       1.0  0.80700  0.65230  0.78080  1.0000
  H   H49       1.0  0.05700  0.84770  0.53080  1.0000
  H   H50       1.0  0.69300  0.90230  0.53080  1.0000
  H   H51       1.0  0.05700  0.90230  0.21920  1.0000
  H   H52       1.0  0.69300  0.84770  0.21920  1.0000
  H   H53       1.0  0.05700  0.34770  0.03080  1.0000
  H   H54       1.0  0.69300  0.40230  0.03080  1.0000
  H   H55       1.0  0.05700  0.40230  0.71920  1.0000
  H   H56       1.0  0.69300  0.34770  0.71920  1.0000
  H   H57       1.0  0.55700  0.84770  0.03080  1.0000
  H   H58       1.0  0.19300  0.90230  0.03080  1.0000
  H   H59       1.0  0.55700  0.90230  0.71920  1.0000
  H   H60       1.0  0.19300  0.84770  0.71920  1.0000
  H   H61       1.0  0.55700  0.34770  0.53080  1.0000
  H   H62       1.0  0.19300  0.40230  0.53080  1.0000
  H   H63       1.0  0.55700  0.40230  0.21920  1.0000
  H   H64       1.0  0.19300  0.34770  0.21920  1.0000
  C   C129      1.0  0.00010  0.08740  0.43450  1.0000
  C   C130      1.0  0.24990  0.16260  0.43450  1.0000
  C   C131      1.0  0.00010  0.16260  0.81550  1.0000
  C   C132      1.0  0.24990  0.08740  0.81550  1.0000
  C   C133      1.0  0.00010  0.58740  0.93450  1.0000
  C   C134      1.0  0.24990  0.66260  0.93450  1.0000
  C   C135      1.0  0.00010  0.66260  0.31550  1.0000
  C   C136      1.0  0.24990  0.58740  0.31550  1.0000
  C   C137      1.0  0.50010  0.08740  0.93450  1.0000
  C   C138      1.0  0.74990  0.16260  0.93450  1.0000
  C   C139      1.0  0.50010  0.16260  0.31550  1.0000
  C   C140      1.0  0.74990  0.08740  0.31550  1.0000
  C   C141      1.0  0.50010  0.58740  0.43450  1.0000
  C   C142      1.0  0.74990  0.66260  0.43450  1.0000
  C   C143      1.0  0.50010  0.66260  0.81550  1.0000
  C   C144      1.0  0.74990  0.58740  0.81550  1.0000
  C   C145      1.0  0.99990  0.91260  0.56550  1.0000
  C   C146      1.0  0.75010  0.83740  0.56550  1.0000
  C   C147      1.0  0.99990  0.83740  0.18450  1.0000
  C   C148      1.0  0.75010  0.91260  0.18450  1.0000
  C   C149      1.0  0.99990  0.41260  0.06550  1.0000
  C   C150      1.0  0.75010  0.33740  0.06550  1.0000
  C   C151      1.0  0.99990  0.33740  0.68450  1.0000
  C   C152      1.0  0.75010  0.41260  0.68450  1.0000
  C   C153      1.0  0.49990  0.91260  0.06550  1.0000
  C   C154      1.0  0.25010  0.83740  0.06550  1.0000
  C   C155      1.0  0.49990  0.83740  0.68450  1.0000
  C   C156      1.0  0.25010  0.91260  0.68450  1.0000
  C   C157      1.0  0.49990  0.41260  0.56550  1.0000
  C   C158      1.0  0.25010  0.33740  0.56550  1.0000
  C   C159      1.0  0.49990  0.33740  0.18450  1.0000
  C   C160      1.0  0.25010  0.41260  0.18450  1.0000
  H   H65       1.0  0.99540  0.05000  0.46990  1.0000
  H   H66       1.0  0.25460  0.20000  0.46990  1.0000
  H   H67       1.0  0.99540  0.20000  0.78010  1.0000
  H   H68       1.0  0.25460  0.05000  0.78010  1.0000
  H   H69       1.0  0.99540  0.55000  0.96990  1.0000
  H   H70       1.0  0.25460  0.70000  0.96990  1.0000
  H   H71       1.0  0.99540  0.70000  0.28010  1.0000
  H   H72       1.0  0.25460  0.55000  0.28010  1.0000
  H   H73       1.0  0.49540  0.05000  0.96990  1.0000
  H   H74       1.0  0.75460  0.20000  0.96990  1.0000
  H   H75       1.0  0.49540  0.20000  0.28010  1.0000
  H   H76       1.0  0.75460  0.05000  0.28010  1.0000
  H   H77       1.0  0.49540  0.55000  0.46990  1.0000
  H   H78       1.0  0.75460  0.70000  0.46990  1.0000
  H   H79       1.0  0.49540  0.70000  0.78010  1.0000
  H   H80       1.0  0.75460  0.55000  0.78010  1.0000
  H   H81       1.0  0.00460  0.95000  0.53010  1.0000
  H   H82       1.0  0.74540  0.80000  0.53010  1.0000
  H   H83       1.0  0.00460  0.80000  0.21990  1.0000
  H   H84       1.0  0.74540  0.95000  0.21990  1.0000
  H   H85       1.0  0.00460  0.45000  0.03010  1.0000
  H   H86       1.0  0.74540  0.30000  0.03010  1.0000
  H   H87       1.0  0.00460  0.30000  0.71990  1.0000
  H   H88       1.0  0.74540  0.45000  0.71990  1.0000
  H   H89       1.0  0.50460  0.95000  0.03010  1.0000
  H   H90       1.0  0.24540  0.80000  0.03010  1.0000
  H   H91       1.0  0.50460  0.80000  0.71990  1.0000
  H   H92       1.0  0.24540  0.95000  0.71990  1.0000
  H   H93       1.0  0.50460  0.45000  0.53010  1.0000
  H   H94       1.0  0.24540  0.30000  0.53010  1.0000
  H   H95       1.0  0.50460  0.30000  0.21990  1.0000
  H   H96       1.0  0.24540  0.45000  0.21990  1.0000
  C   C161      1.0  0.03850  0.08180  0.38420  1.0000
  C   C162      1.0  0.21150  0.16820  0.38420  1.0000
  C   C163      1.0  0.03850  0.16820  0.86580  1.0000
  C   C164      1.0  0.21150  0.08180  0.86580  1.0000
  C   C165      1.0  0.03850  0.58180  0.88420  1.0000
  C   C166      1.0  0.21150  0.66820  0.88420  1.0000
  C   C167      1.0  0.03850  0.66820  0.36580  1.0000
  C   C168      1.0  0.21150  0.58180  0.36580  1.0000
  C   C169      1.0  0.53850  0.08180  0.88420  1.0000
  C   C170      1.0  0.71150  0.16820  0.88420  1.0000
  C   C171      1.0  0.53850  0.16820  0.36580  1.0000
  C   C172      1.0  0.71150  0.08180  0.36580  1.0000
  C   C173      1.0  0.53850  0.58180  0.38420  1.0000
  C   C174      1.0  0.71150  0.66820  0.38420  1.0000
  C   C175      1.0  0.53850  0.66820  0.86580  1.0000
  C   C176      1.0  0.71150  0.58180  0.86580  1.0000
  C   C177      1.0  0.96150  0.91820  0.61580  1.0000
  C   C178      1.0  0.78850  0.83180  0.61580  1.0000
  C   C179      1.0  0.96150  0.83180  0.13420  1.0000
  C   C180      1.0  0.78850  0.91820  0.13420  1.0000
  C   C181      1.0  0.96150  0.41820  0.11580  1.0000
  C   C182      1.0  0.78850  0.33180  0.11580  1.0000
  C   C183      1.0  0.96150  0.33180  0.63420  1.0000
  C   C184      1.0  0.78850  0.41820  0.63420  1.0000
  C   C185      1.0  0.46150  0.91820  0.11580  1.0000
  C   C186      1.0  0.28850  0.83180  0.11580  1.0000
  C   C187      1.0  0.46150  0.83180  0.63420  1.0000
  C   C188      1.0  0.28850  0.91820  0.63420  1.0000
  C   C189      1.0  0.46150  0.41820  0.61580  1.0000
  C   C190      1.0  0.28850  0.33180  0.61580  1.0000
  C   C191      1.0  0.46150  0.33180  0.13420  1.0000
  C   C192      1.0  0.28850  0.41820  0.13420  1.0000
  C   C193      1.0  0.07640  0.01900  0.38300  1.0000
  C   C194      1.0  0.17360  0.23100  0.38300  1.0000
  C   C195      1.0  0.07640  0.23100  0.86700  1.0000
  C   C196      1.0  0.17360  0.01900  0.86700  1.0000
  C   C197      1.0  0.07640  0.51900  0.88300  1.0000
  C   C198      1.0  0.17360  0.73100  0.88300  1.0000
  C   C199      1.0  0.07640  0.73100  0.36700  1.0000
  C   C200      1.0  0.17360  0.51900  0.36700  1.0000
  C   C201      1.0  0.57640  0.01900  0.88300  1.0000
  C   C202      1.0  0.67360  0.23100  0.88300  1.0000
  C   C203      1.0  0.57640  0.23100  0.36700  1.0000
  C   C204      1.0  0.67360  0.01900  0.36700  1.0000
  C   C205      1.0  0.57640  0.51900  0.38300  1.0000
  C   C206      1.0  0.67360  0.73100  0.38300  1.0000
  C   C207      1.0  0.57640  0.73100  0.86700  1.0000
  C   C208      1.0  0.67360  0.51900  0.86700  1.0000
  C   C209      1.0  0.92360  0.98100  0.61700  1.0000
  C   C210      1.0  0.82640  0.76900  0.61700  1.0000
  C   C211      1.0  0.92360  0.76900  0.13300  1.0000
  C   C212      1.0  0.82640  0.98100  0.13300  1.0000
  C   C213      1.0  0.92360  0.48100  0.11700  1.0000
  C   C214      1.0  0.82640  0.26900  0.11700  1.0000
  C   C215      1.0  0.92360  0.26900  0.63300  1.0000
  C   C216      1.0  0.82640  0.48100  0.63300  1.0000
  C   C217      1.0  0.42360  0.98100  0.11700  1.0000
  C   C218      1.0  0.32640  0.76900  0.11700  1.0000
  C   C219      1.0  0.42360  0.76900  0.63300  1.0000
  C   C220      1.0  0.32640  0.98100  0.63300  1.0000
  C   C221      1.0  0.42360  0.48100  0.61700  1.0000
  C   C222      1.0  0.32640  0.26900  0.61700  1.0000
  C   C223      1.0  0.42360  0.26900  0.13300  1.0000
  C   C224      1.0  0.32640  0.48100  0.13300  1.0000
