data_image0
_chemical_formula_structural       Cd28Sb96O18H6O132H12O6H12O72H6O126H12O6H12O48C12H6C6H6C18H6C6H6C18H6C6H6C18H6C6H6C18H6C6H6C18H6C6H6C18H6C6H6C18H6C6H6C6
_chemical_formula_sum              "Cd28 Sb96 O408 H156 C192"
_cell_length_a       24.7997
_cell_length_b       24.7997
_cell_length_c       31.9951
_cell_angle_alpha    90
_cell_angle_beta     90
_cell_angle_gamma    120

_space_group_name_H-M_alt    "P 1"
_space_group_IT_number       1

loop_
  _space_group_symop_operation_xyz
  'x, y, z'

loop_
  _atom_site_type_symbol
  _atom_site_label
  _atom_site_symmetry_multiplicity
  _atom_site_fract_x
  _atom_site_fract_y
  _atom_site_fract_z
  _atom_site_occupancy
  Cd  Cd1       1.0  0.28001  0.35822  0.35212  1.0000
  Cd  Cd2       1.0  0.92179  0.28001  0.85212  1.0000
  Cd  Cd3       1.0  0.64178  0.92179  0.35212  1.0000
  Cd  Cd4       1.0  0.71999  0.64178  0.85212  1.0000
  Cd  Cd5       1.0  0.07821  0.71999  0.35212  1.0000
  Cd  Cd6       1.0  0.35822  0.07821  0.85212  1.0000
  Cd  Cd7       1.0  0.00000  0.00000  0.40566  1.0000
  Cd  Cd8       1.0  0.00000  0.00000  0.90566  1.0000
  Cd  Cd9       1.0  0.17104  0.04469  0.42665  1.0000
  Cd  Cd10      1.0  0.12635  0.17104  0.92665  1.0000
  Cd  Cd11      1.0  0.95531  0.12635  0.42665  1.0000
  Cd  Cd12      1.0  0.82896  0.95531  0.92665  1.0000
  Cd  Cd13      1.0  0.87365  0.82896  0.42665  1.0000
  Cd  Cd14      1.0  0.04469  0.87365  0.92665  1.0000
  Cd  Cd15      1.0  0.62165  0.59183  0.20286  1.0000
  Cd  Cd16      1.0  0.02982  0.62165  0.70286  1.0000
  Cd  Cd17      1.0  0.40817  0.02982  0.20286  1.0000
  Cd  Cd18      1.0  0.37835  0.40817  0.70286  1.0000
  Cd  Cd19      1.0  0.97018  0.37835  0.20286  1.0000
  Cd  Cd20      1.0  0.59183  0.97018  0.70286  1.0000
  Cd  Cd21      1.0  0.33333  0.66667  0.15635  1.0000
  Cd  Cd22      1.0  0.66666  0.33333  0.65635  1.0000
  Cd  Cd23      1.0  0.50354  0.79459  0.13431  1.0000
  Cd  Cd24      1.0  0.70895  0.50354  0.63431  1.0000
  Cd  Cd25      1.0  0.20541  0.70895  0.13431  1.0000
  Cd  Cd26      1.0  0.49646  0.20541  0.63431  1.0000
  Cd  Cd27      1.0  0.29105  0.49646  0.13431  1.0000
  Cd  Cd28      1.0  0.79459  0.29105  0.63431  1.0000
  Sb  Sb1       1.0  0.98962  0.09356  0.31379  1.0000
  Sb  Sb2       1.0  0.89606  0.98962  0.81379  1.0000
  Sb  Sb3       1.0  0.90644  0.89606  0.31379  1.0000
  Sb  Sb4       1.0  0.01038  0.90644  0.81379  1.0000
  Sb  Sb5       1.0  0.10394  0.01038  0.31379  1.0000
  Sb  Sb6       1.0  0.09356  0.10394  0.81379  1.0000
  Sb  Sb7       1.0  0.11169  0.14746  0.39029  1.0000
  Sb  Sb8       1.0  0.96423  0.11169  0.89029  1.0000
  Sb  Sb9       1.0  0.85254  0.96423  0.39029  1.0000
  Sb  Sb10      1.0  0.88831  0.85254  0.89029  1.0000
  Sb  Sb11      1.0  0.03577  0.88831  0.39029  1.0000
  Sb  Sb12      1.0  0.14746  0.03577  0.89029  1.0000
  Sb  Sb13      1.0  0.11252  0.11299  0.49366  1.0000
  Sb  Sb14      1.0  0.99953  0.11252  0.99366  1.0000
  Sb  Sb15      1.0  0.88701  0.99953  0.49366  1.0000
  Sb  Sb16      1.0  0.88748  0.88701  0.99366  1.0000
  Sb  Sb17      1.0  0.00047  0.88748  0.49366  1.0000
  Sb  Sb18      1.0  0.11299  0.00047  0.99366  1.0000
  Sb  Sb19      1.0  0.16163  0.90724  0.44883  1.0000
  Sb  Sb20      1.0  0.25439  0.16163  0.94883  1.0000
  Sb  Sb21      1.0  0.09276  0.25439  0.44883  1.0000
  Sb  Sb22      1.0  0.83837  0.09276  0.94883  1.0000
  Sb  Sb23      1.0  0.74561  0.83837  0.44883  1.0000
  Sb  Sb24      1.0  0.90724  0.74561  0.94883  1.0000
  Sb  Sb25      1.0  0.30845  0.03177  0.47081  1.0000
  Sb  Sb26      1.0  0.27668  0.30845  0.97081  1.0000
  Sb  Sb27      1.0  0.96823  0.27668  0.47081  1.0000
  Sb  Sb28      1.0  0.69155  0.96823  0.97081  1.0000
  Sb  Sb29      1.0  0.72332  0.69155  0.47081  1.0000
  Sb  Sb30      1.0  0.03177  0.72332  0.97081  1.0000
  Sb  Sb31      1.0  0.24115  0.10806  0.53138  1.0000
  Sb  Sb32      1.0  0.13309  0.24115  0.03138  1.0000
  Sb  Sb33      1.0  0.89194  0.13309  0.53138  1.0000
  Sb  Sb34      1.0  0.75885  0.89194  0.03138  1.0000
  Sb  Sb35      1.0  0.86691  0.75885  0.53138  1.0000
  Sb  Sb36      1.0  0.10806  0.86691  0.03138  1.0000
  Sb  Sb37      1.0  0.25664  0.12540  0.34340  1.0000
  Sb  Sb38      1.0  0.13124  0.25664  0.84340  1.0000
  Sb  Sb39      1.0  0.87460  0.13124  0.34340  1.0000
  Sb  Sb40      1.0  0.74336  0.87460  0.84340  1.0000
  Sb  Sb41      1.0  0.86876  0.74336  0.34340  1.0000
  Sb  Sb42      1.0  0.12540  0.86876  0.84340  1.0000
  Sb  Sb43      1.0  0.33264  0.18398  0.43888  1.0000
  Sb  Sb44      1.0  0.14866  0.33264  0.93888  1.0000
  Sb  Sb45      1.0  0.81602  0.14866  0.43888  1.0000
  Sb  Sb46      1.0  0.66736  0.81602  0.93888  1.0000
  Sb  Sb47      1.0  0.85134  0.66736  0.43888  1.0000
  Sb  Sb48      1.0  0.18398  0.85134  0.93888  1.0000
  Sb  Sb49      1.0  0.32750  0.56154  0.24715  1.0000
  Sb  Sb50      1.0  0.76596  0.32750  0.74715  1.0000
  Sb  Sb51      1.0  0.43846  0.76596  0.24715  1.0000
  Sb  Sb52      1.0  0.67250  0.43846  0.74715  1.0000
  Sb  Sb53      1.0  0.23404  0.67250  0.24715  1.0000
  Sb  Sb54      1.0  0.56154  0.23404  0.74715  1.0000
  Sb  Sb55      1.0  0.44689  0.63308  0.17025  1.0000
  Sb  Sb56      1.0  0.81381  0.44689  0.67025  1.0000
  Sb  Sb57      1.0  0.36692  0.81381  0.17025  1.0000
  Sb  Sb58      1.0  0.55311  0.36692  0.67025  1.0000
  Sb  Sb59      1.0  0.18619  0.55311  0.17025  1.0000
  Sb  Sb60      1.0  0.63308  0.18619  0.67025  1.0000
  Sb  Sb61      1.0  0.44523  0.66794  0.06733  1.0000
  Sb  Sb62      1.0  0.77729  0.44523  0.56733  1.0000
  Sb  Sb63      1.0  0.33206  0.77729  0.06733  1.0000
  Sb  Sb64      1.0  0.55477  0.33206  0.56733  1.0000
  Sb  Sb65      1.0  0.22271  0.55477  0.06733  1.0000
  Sb  Sb66      1.0  0.66794  0.22271  0.56733  1.0000
  Sb  Sb67      1.0  0.57274  0.80107  0.02901  1.0000
  Sb  Sb68      1.0  0.77167  0.57274  0.52901  1.0000
  Sb  Sb69      1.0  0.19893  0.77167  0.02901  1.0000
  Sb  Sb70      1.0  0.42726  0.19893  0.52901  1.0000
  Sb  Sb71      1.0  0.22833  0.42726  0.02901  1.0000
  Sb  Sb72      1.0  0.80107  0.22833  0.52901  1.0000
  Sb  Sb73      1.0  0.66441  0.81790  0.12147  1.0000
  Sb  Sb74      1.0  0.84651  0.66441  0.62147  1.0000
  Sb  Sb75      1.0  0.18210  0.84651  0.12147  1.0000
  Sb  Sb76      1.0  0.33559  0.18210  0.62147  1.0000
  Sb  Sb77      1.0  0.15349  0.33559  0.12147  1.0000
  Sb  Sb78      1.0  0.81790  0.15349  0.62147  1.0000
  Sb  Sb79      1.0  0.59281  0.80344  0.21832  1.0000
  Sb  Sb80      1.0  0.78937  0.59281  0.71832  1.0000
  Sb  Sb81      1.0  0.19656  0.78937  0.21832  1.0000
  Sb  Sb82      1.0  0.40719  0.19656  0.71832  1.0000
  Sb  Sb83      1.0  0.21063  0.40719  0.21832  1.0000
  Sb  Sb84      1.0  0.80344  0.21063  0.71832  1.0000
  Sb  Sb85      1.0  0.49231  0.92149  0.11095  1.0000
  Sb  Sb86      1.0  0.57082  0.49231  0.61095  1.0000
  Sb  Sb87      1.0  0.07851  0.57082  0.11095  1.0000
  Sb  Sb88      1.0  0.50769  0.07851  0.61095  1.0000
  Sb  Sb89      1.0  0.42918  0.50769  0.11095  1.0000
  Sb  Sb90      1.0  0.92149  0.42918  0.61095  1.0000
  Sb  Sb91      1.0  0.63943  0.94490  0.08841  1.0000
  Sb  Sb92      1.0  0.69453  0.63943  0.58841  1.0000
  Sb  Sb93      1.0  0.05510  0.69453  0.08841  1.0000
  Sb  Sb94      1.0  0.36057  0.05510  0.58841  1.0000
  Sb  Sb95      1.0  0.30547  0.36057  0.08841  1.0000
  Sb  Sb96      1.0  0.94490  0.30547  0.58841  1.0000
  O   O1        1.0  0.17690  0.32220  0.36650  1.0000
  O   O2        1.0  0.85470  0.17690  0.86650  1.0000
  O   O3        1.0  0.67780  0.85470  0.36650  1.0000
  O   O4        1.0  0.82310  0.67780  0.86650  1.0000
  O   O5        1.0  0.14530  0.82310  0.36650  1.0000
  O   O6        1.0  0.32220  0.14530  0.86650  1.0000
  O   O7        1.0  0.19390  0.32940  0.30420  1.0000
  O   O8        1.0  0.86450  0.19390  0.80420  1.0000
  O   O9        1.0  0.67060  0.86450  0.30420  1.0000
  O   O10       1.0  0.80610  0.67060  0.80420  1.0000
  O   O11       1.0  0.13550  0.80610  0.30420  1.0000
  O   O12       1.0  0.32940  0.13550  0.80420  1.0000
  O   O13       1.0  0.06020  0.26370  0.36190  1.0000
  O   O14       1.0  0.79650  0.06020  0.86190  1.0000
  O   O15       1.0  0.73630  0.79650  0.36190  1.0000
  O   O16       1.0  0.93980  0.73630  0.86190  1.0000
  O   O17       1.0  0.20350  0.93980  0.36190  1.0000
  O   O18       1.0  0.26370  0.20350  0.86190  1.0000
  H   H1        1.0  0.02176  0.24986  0.35945  1.0000
  H   H2        1.0  0.77190  0.02176  0.85945  1.0000
  H   H3        1.0  0.75014  0.77190  0.35945  1.0000
  H   H4        1.0  0.97824  0.75014  0.85945  1.0000
  H   H5        1.0  0.22810  0.97824  0.35945  1.0000
  H   H6        1.0  0.24986  0.22810  0.85945  1.0000
  O   O19       1.0  0.06760  0.17600  0.31170  1.0000
  O   O20       1.0  0.89160  0.06760  0.81170  1.0000
  O   O21       1.0  0.82400  0.89160  0.31170  1.0000
  O   O22       1.0  0.93240  0.82400  0.81170  1.0000
  O   O23       1.0  0.10840  0.93240  0.31170  1.0000
  O   O24       1.0  0.17600  0.10840  0.81170  1.0000
  O   O25       1.0  0.96520  0.15540  0.27520  1.0000
  O   O26       1.0  0.80980  0.96520  0.77520  1.0000
  O   O27       1.0  0.84460  0.80980  0.27520  1.0000
  O   O28       1.0  0.03480  0.84460  0.77520  1.0000
  O   O29       1.0  0.19020  0.03480  0.27520  1.0000
  O   O30       1.0  0.15540  0.19020  0.77520  1.0000
  O   O31       1.0  0.99750  0.25320  0.25920  1.0000
  O   O32       1.0  0.74430  0.99750  0.75920  1.0000
  O   O33       1.0  0.74680  0.74430  0.25920  1.0000
  O   O34       1.0  0.00250  0.74680  0.75920  1.0000
  O   O35       1.0  0.25570  0.00250  0.25920  1.0000
  O   O36       1.0  0.25320  0.25570  0.75920  1.0000
  O   O37       1.0  0.17430  0.17690  0.54370  1.0000
  O   O38       1.0  0.99740  0.17430  0.04370  1.0000
  O   O39       1.0  0.82310  0.99740  0.54370  1.0000
  O   O40       1.0  0.82570  0.82310  0.04370  1.0000
  O   O41       1.0  0.00260  0.82570  0.54370  1.0000
  O   O42       1.0  0.17690  0.00260  0.04370  1.0000
  O   O43       1.0  0.23800  0.27890  0.55440  1.0000
  O   O44       1.0  0.95910  0.23800  0.05440  1.0000
  O   O45       1.0  0.72110  0.95910  0.55440  1.0000
  O   O46       1.0  0.76200  0.72110  0.05440  1.0000
  O   O47       1.0  0.04090  0.76200  0.55440  1.0000
  O   O48       1.0  0.27890  0.04090  0.05440  1.0000
  O   O49       1.0  0.17040  0.19050  0.46390  1.0000
  O   O50       1.0  0.97990  0.17040  0.96390  1.0000
  O   O51       1.0  0.80950  0.97990  0.46390  1.0000
  O   O52       1.0  0.82960  0.80950  0.96390  1.0000
  O   O53       1.0  0.02010  0.82960  0.46390  1.0000
  O   O54       1.0  0.19050  0.02010  0.96390  1.0000
  O   O55       1.0  0.29150  0.21210  0.48040  1.0000
  O   O56       1.0  0.07940  0.29150  0.98040  1.0000
  O   O57       1.0  0.78790  0.07940  0.48040  1.0000
  O   O58       1.0  0.70850  0.78790  0.98040  1.0000
  O   O59       1.0  0.92060  0.70850  0.48040  1.0000
  O   O60       1.0  0.21210  0.92060  0.98040  1.0000
  O   O61       1.0  0.32520  0.26250  0.40680  1.0000
  O   O62       1.0  0.06270  0.32520  0.90680  1.0000
  O   O63       1.0  0.73750  0.06270  0.40680  1.0000
  O   O64       1.0  0.67480  0.73750  0.90680  1.0000
  O   O65       1.0  0.93730  0.67480  0.40680  1.0000
  O   O66       1.0  0.26250  0.93730  0.90680  1.0000
  O   O67       1.0  0.28140  0.32190  0.41770  1.0000
  O   O68       1.0  0.95950  0.28140  0.91770  1.0000
  O   O69       1.0  0.67810  0.95950  0.41770  1.0000
  O   O70       1.0  0.71860  0.67810  0.91770  1.0000
  O   O71       1.0  0.04050  0.71860  0.41770  1.0000
  O   O72       1.0  0.32190  0.04050  0.91770  1.0000
  O   O73       1.0  0.15990  0.05530  0.57230  1.0000
  O   O74       1.0  0.10460  0.15990  0.07230  1.0000
  O   O75       1.0  0.94470  0.10460  0.57230  1.0000
  O   O76       1.0  0.84010  0.94470  0.07230  1.0000
  O   O77       1.0  0.89540  0.84010  0.57230  1.0000
  O   O78       1.0  0.05530  0.89540  0.07230  1.0000
  O   O79       1.0  0.10280  0.95500  0.60190  1.0000
  O   O80       1.0  0.14780  0.10280  0.10190  1.0000
  O   O81       1.0  0.04500  0.14780  0.60190  1.0000
  O   O82       1.0  0.89720  0.04500  0.10190  1.0000
  O   O83       1.0  0.85220  0.89720  0.60190  1.0000
  O   O84       1.0  0.95500  0.85220  0.10190  1.0000
  O   O85       1.0  0.23420  0.02490  0.53960  1.0000
  O   O86       1.0  0.20930  0.23420  0.03960  1.0000
  O   O87       1.0  0.97510  0.20930  0.53960  1.0000
  O   O88       1.0  0.76580  0.97510  0.03960  1.0000
  O   O89       1.0  0.79070  0.76580  0.53960  1.0000
  O   O90       1.0  0.02490  0.79070  0.03960  1.0000
  O   O91       1.0  0.13500  0.91700  0.50430  1.0000
  O   O92       1.0  0.21800  0.13500  0.00430  1.0000
  O   O93       1.0  0.08300  0.21800  0.50430  1.0000
  O   O94       1.0  0.86500  0.08300  0.00430  1.0000
  O   O95       1.0  0.78200  0.86500  0.50430  1.0000
  O   O96       1.0  0.91700  0.78200  0.00430  1.0000
  O   O97       1.0  0.22740  0.90170  0.50120  1.0000
  O   O98       1.0  0.32570  0.22740  0.00120  1.0000
  O   O99       1.0  0.09830  0.32570  0.50120  1.0000
  O   O100      1.0  0.77260  0.09830  0.00120  1.0000
  O   O101      1.0  0.67430  0.77260  0.50120  1.0000
  O   O102      1.0  0.90170  0.67430  0.00120  1.0000
  O   O103      1.0  0.23250  0.89240  0.56880  1.0000
  O   O104      1.0  0.34010  0.23250  0.06880  1.0000
  O   O105      1.0  0.10760  0.34010  0.56880  1.0000
  O   O106      1.0  0.76750  0.10760  0.06880  1.0000
  O   O107      1.0  0.65990  0.76750  0.56880  1.0000
  O   O108      1.0  0.89240  0.65990  0.06880  1.0000
  O   O109      1.0  0.31920  0.96890  0.42330  1.0000
  O   O110      1.0  0.35030  0.31920  0.92330  1.0000
  O   O111      1.0  0.03110  0.35030  0.42330  1.0000
  O   O112      1.0  0.68080  0.03110  0.92330  1.0000
  O   O113      1.0  0.64970  0.68080  0.42330  1.0000
  O   O114      1.0  0.96890  0.64970  0.92330  1.0000
  O   O115      1.0  0.34990  0.96790  0.35840  1.0000
  O   O116      1.0  0.38200  0.34990  0.85840  1.0000
  O   O117      1.0  0.03210  0.38200  0.35840  1.0000
  O   O118      1.0  0.65010  0.03210  0.85840  1.0000
  O   O119      1.0  0.61800  0.65010  0.35840  1.0000
  O   O120      1.0  0.96790  0.61800  0.85840  1.0000
  O   O121      1.0  0.35170  0.08540  0.42140  1.0000
  O   O122      1.0  0.26630  0.35170  0.92140  1.0000
  O   O123      1.0  0.91460  0.26630  0.42140  1.0000
  O   O124      1.0  0.64830  0.91460  0.92140  1.0000
  O   O125      1.0  0.73370  0.64830  0.42140  1.0000
  O   O126      1.0  0.08540  0.73370  0.92140  1.0000
  O   O127      1.0  0.28580  0.06590  0.34820  1.0000
  O   O128      1.0  0.21990  0.28580  0.84820  1.0000
  O   O129      1.0  0.93410  0.21990  0.34820  1.0000
  O   O130      1.0  0.71420  0.93410  0.84820  1.0000
  O   O131      1.0  0.78010  0.71420  0.34820  1.0000
  O   O132      1.0  0.06590  0.78010  0.84820  1.0000
  O   O133      1.0  0.36460  0.18680  0.35220  1.0000
  O   O134      1.0  0.17780  0.36460  0.85220  1.0000
  O   O135      1.0  0.81320  0.17780  0.35220  1.0000
  O   O136      1.0  0.63540  0.81320  0.85220  1.0000
  O   O137      1.0  0.82220  0.63540  0.35220  1.0000
  O   O138      1.0  0.18680  0.82220  0.85220  1.0000
  O   O139      1.0  0.44520  0.17760  0.33990  1.0000
  O   O140      1.0  0.26760  0.44520  0.83990  1.0000
  O   O141      1.0  0.82240  0.26760  0.33990  1.0000
  O   O142      1.0  0.55480  0.82240  0.83990  1.0000
  O   O143      1.0  0.73240  0.55480  0.33990  1.0000
  O   O144      1.0  0.17760  0.73240  0.83990  1.0000
  O   O145      1.0  0.30270  0.44850  0.39110  1.0000
  O   O146      1.0  0.85420  0.30270  0.89110  1.0000
  O   O147      1.0  0.55150  0.85420  0.39110  1.0000
  O   O148      1.0  0.69730  0.55150  0.89110  1.0000
  O   O149      1.0  0.14580  0.69730  0.39110  1.0000
  O   O150      1.0  0.44850  0.14580  0.89110  1.0000
  H   H7        1.0  0.33272  0.48849  0.38103  1.0000
  H   H8        1.0  0.84423  0.33272  0.88103  1.0000
  H   H9        1.0  0.51151  0.84423  0.38103  1.0000
  H   H10       1.0  0.66728  0.51151  0.88103  1.0000
  H   H11       1.0  0.15577  0.66728  0.38103  1.0000
  H   H12       1.0  0.48849  0.15577  0.88103  1.0000
  H   H13       1.0  0.28173  0.44470  0.41670  1.0000
  H   H14       1.0  0.83703  0.28173  0.91670  1.0000
  H   H15       1.0  0.55530  0.83703  0.41670  1.0000
  H   H16       1.0  0.71827  0.55530  0.91670  1.0000
  H   H17       1.0  0.16297  0.71827  0.41670  1.0000
  H   H18       1.0  0.44470  0.16297  0.91670  1.0000
  O   O151      1.0  0.28370  0.27700  0.32460  1.0000
  O   O152      1.0  0.00670  0.28370  0.82460  1.0000
  O   O153      1.0  0.72300  0.00670  0.32460  1.0000
  O   O154      1.0  0.71630  0.72300  0.82460  1.0000
  O   O155      1.0  0.99330  0.71630  0.32460  1.0000
  O   O156      1.0  0.27700  0.99330  0.82460  1.0000
  H   H19       1.0  0.31035  0.28313  0.30154  1.0000
  H   H20       1.0  0.02722  0.31035  0.80154  1.0000
  H   H21       1.0  0.71687  0.02722  0.30154  1.0000
  H   H22       1.0  0.68965  0.71687  0.80154  1.0000
  H   H23       1.0  0.97278  0.68965  0.30154  1.0000
  H   H24       1.0  0.28313  0.97278  0.80154  1.0000
  H   H25       1.0  0.25867  0.23656  0.33594  1.0000
  H   H26       1.0  0.02211  0.25867  0.83594  1.0000
  H   H27       1.0  0.76344  0.02211  0.33594  1.0000
  H   H28       1.0  0.74133  0.76344  0.83594  1.0000
  H   H29       1.0  0.97789  0.74133  0.33594  1.0000
  H   H30       1.0  0.23656  0.97789  0.83594  1.0000
  O   O157      1.0  0.94480  0.11530  0.35640  1.0000
  O   O158      1.0  0.82950  0.94480  0.85640  1.0000
  O   O159      1.0  0.88470  0.82950  0.35640  1.0000
  O   O160      1.0  0.05520  0.88470  0.85640  1.0000
  O   O161      1.0  0.17050  0.05520  0.35640  1.0000
  O   O162      1.0  0.11530  0.17050  0.85640  1.0000
  O   O163      1.0  0.03900  0.08070  0.35890  1.0000
  O   O164      1.0  0.95830  0.03900  0.85890  1.0000
  O   O165      1.0  0.91930  0.95830  0.35890  1.0000
  O   O166      1.0  0.96100  0.91930  0.85890  1.0000
  O   O167      1.0  0.04170  0.96100  0.35890  1.0000
  O   O168      1.0  0.08070  0.04170  0.85890  1.0000
  O   O169      1.0  0.09560  0.07920  0.43010  1.0000
  O   O170      1.0  0.01640  0.09560  0.93010  1.0000
  O   O171      1.0  0.92080  0.01640  0.43010  1.0000
  O   O172      1.0  0.90440  0.92080  0.93010  1.0000
  O   O173      1.0  0.98360  0.90440  0.43010  1.0000
  O   O174      1.0  0.07920  0.98360  0.93010  1.0000
  O   O175      1.0  0.17360  0.08300  0.49250  1.0000
  O   O176      1.0  0.09060  0.17360  0.99250  1.0000
  O   O177      1.0  0.91700  0.09060  0.49250  1.0000
  O   O178      1.0  0.82640  0.91700  0.99250  1.0000
  O   O179      1.0  0.90940  0.82640  0.49250  1.0000
  O   O180      1.0  0.08300  0.90940  0.99250  1.0000
  O   O181      1.0  0.29970  0.10990  0.48040  1.0000
  O   O182      1.0  0.18980  0.29970  0.98040  1.0000
  O   O183      1.0  0.89010  0.18980  0.48040  1.0000
  O   O184      1.0  0.70030  0.89010  0.98040  1.0000
  O   O185      1.0  0.81020  0.70030  0.48040  1.0000
  O   O186      1.0  0.10990  0.81020  0.98040  1.0000
  O   O187      1.0  0.25780  0.13030  0.40480  1.0000
  O   O188      1.0  0.12750  0.25780  0.90480  1.0000
  O   O189      1.0  0.86970  0.12750  0.40480  1.0000
  O   O190      1.0  0.74220  0.86970  0.90480  1.0000
  O   O191      1.0  0.87250  0.74220  0.40480  1.0000
  O   O192      1.0  0.13030  0.87250  0.90480  1.0000
  O   O193      1.0  0.22580  0.99580  0.44520  1.0000
  O   O194      1.0  0.23000  0.22580  0.94520  1.0000
  O   O195      1.0  0.00420  0.23000  0.44520  1.0000
  O   O196      1.0  0.77420  0.00420  0.94520  1.0000
  O   O197      1.0  0.77000  0.77420  0.44520  1.0000
  O   O198      1.0  0.99580  0.77000  0.94520  1.0000
  O   O199      1.0  0.10600  0.93990  0.42670  1.0000
  O   O200      1.0  0.16610  0.10600  0.92670  1.0000
  O   O201      1.0  0.06010  0.16610  0.42670  1.0000
  O   O202      1.0  0.89400  0.06010  0.92670  1.0000
  O   O203      1.0  0.83390  0.89400  0.42670  1.0000
  O   O204      1.0  0.93990  0.83390  0.92670  1.0000
  O   O205      1.0  0.34890  0.42050  0.30630  1.0000
  O   O206      1.0  0.92840  0.34890  0.80630  1.0000
  O   O207      1.0  0.57950  0.92840  0.30630  1.0000
  O   O208      1.0  0.65110  0.57950  0.80630  1.0000
  O   O209      1.0  0.07160  0.65110  0.30630  1.0000
  O   O210      1.0  0.42050  0.07160  0.80630  1.0000
  O   O211      1.0  0.30910  0.47870  0.28650  1.0000
  O   O212      1.0  0.83040  0.30910  0.78650  1.0000
  O   O213      1.0  0.52130  0.83040  0.28650  1.0000
  O   O214      1.0  0.69090  0.52130  0.78650  1.0000
  O   O215      1.0  0.16960  0.69090  0.28650  1.0000
  O   O216      1.0  0.47870  0.16960  0.78650  1.0000
  O   O217      1.0  0.40690  0.56050  0.25010  1.0000
  O   O218      1.0  0.84640  0.40690  0.75010  1.0000
  O   O219      1.0  0.43950  0.84640  0.25010  1.0000
  O   O220      1.0  0.59310  0.43950  0.75010  1.0000
  O   O221      1.0  0.15360  0.59310  0.25010  1.0000
  O   O222      1.0  0.56050  0.15360  0.75010  1.0000
  O   O223      1.0  0.39950  0.47180  0.19400  1.0000
  O   O224      1.0  0.92770  0.39950  0.69400  1.0000
  O   O225      1.0  0.52820  0.92770  0.19400  1.0000
  O   O226      1.0  0.60050  0.52820  0.69400  1.0000
  O   O227      1.0  0.07230  0.60050  0.19400  1.0000
  O   O228      1.0  0.47180  0.07230  0.69400  1.0000
  H   H31       1.0  0.36141  0.44551  0.19594  1.0000
  H   H32       1.0  0.91590  0.36141  0.69594  1.0000
  H   H33       1.0  0.55449  0.91590  0.19594  1.0000
  H   H34       1.0  0.63859  0.55449  0.69594  1.0000
  H   H35       1.0  0.08410  0.63859  0.19594  1.0000
  H   H36       1.0  0.44551  0.08410  0.69594  1.0000
  O   O229      1.0  0.52920  0.50900  0.24430  1.0000
  O   O230      1.0  0.02020  0.52920  0.74430  1.0000
  O   O231      1.0  0.49100  0.02020  0.24430  1.0000
  O   O232      1.0  0.47080  0.49100  0.74430  1.0000
  O   O233      1.0  0.97980  0.47080  0.24430  1.0000
  O   O234      1.0  0.50900  0.97980  0.74430  1.0000
  O   O235      1.0  0.51230  0.55810  0.19300  1.0000
  O   O236      1.0  0.95420  0.51230  0.69300  1.0000
  O   O237      1.0  0.44190  0.95420  0.19300  1.0000
  O   O238      1.0  0.48770  0.44190  0.69300  1.0000
  O   O239      1.0  0.04580  0.48770  0.19300  1.0000
  O   O240      1.0  0.55810  0.04580  0.69300  1.0000
  O   O241      1.0  0.61950  0.62890  0.13760  1.0000
  O   O242      1.0  0.99060  0.61950  0.63760  1.0000
  O   O243      1.0  0.37110  0.99060  0.13760  1.0000
  O   O244      1.0  0.38050  0.37110  0.63760  1.0000
  O   O245      1.0  0.00940  0.38050  0.13760  1.0000
  O   O246      1.0  0.62890  0.00940  0.63760  1.0000
  O   O247      1.0  0.65390  0.72820  0.15320  1.0000
  O   O248      1.0  0.92570  0.65390  0.65320  1.0000
  O   O249      1.0  0.27180  0.92570  0.15320  1.0000
  O   O250      1.0  0.34610  0.27180  0.65320  1.0000
  O   O251      1.0  0.07430  0.34610  0.15320  1.0000
  O   O252      1.0  0.72820  0.07430  0.65320  1.0000
  O   O253      1.0  0.62360  0.75300  0.07810  1.0000
  O   O254      1.0  0.87060  0.62360  0.57810  1.0000
  O   O255      1.0  0.24700  0.87060  0.07810  1.0000
  O   O256      1.0  0.37640  0.24700  0.57810  1.0000
  O   O257      1.0  0.12940  0.37640  0.07810  1.0000
  O   O258      1.0  0.75300  0.12940  0.57810  1.0000
  O   O259      1.0  0.50790  0.65180  0.09470  1.0000
  O   O260      1.0  0.85610  0.50790  0.59470  1.0000
  O   O261      1.0  0.34820  0.85610  0.09470  1.0000
  O   O262      1.0  0.49210  0.34820  0.59470  1.0000
  O   O263      1.0  0.14390  0.49210  0.09470  1.0000
  O   O264      1.0  0.65180  0.14390  0.59470  1.0000
  O   O265      1.0  0.50470  0.66710  0.01480  1.0000
  O   O266      1.0  0.83760  0.50470  0.51480  1.0000
  O   O267      1.0  0.33290  0.83760  0.01480  1.0000
  O   O268      1.0  0.49530  0.33290  0.51480  1.0000
  O   O269      1.0  0.16240  0.49530  0.01480  1.0000
  O   O270      1.0  0.66710  0.16240  0.51480  1.0000
  O   O271      1.0  0.56870  0.63480  0.99710  1.0000
  O   O272      1.0  0.93390  0.56870  0.49710  1.0000
  O   O273      1.0  0.36520  0.93390  0.99710  1.0000
  O   O274      1.0  0.43130  0.36520  0.49710  1.0000
  O   O275      1.0  0.06610  0.43130  0.99710  1.0000
  O   O276      1.0  0.63480  0.06610  0.49710  1.0000
  O   O277      1.0  0.69970  0.85260  0.20850  1.0000
  O   O278      1.0  0.84710  0.69970  0.70850  1.0000
  O   O279      1.0  0.14740  0.84710  0.20850  1.0000
  O   O280      1.0  0.30030  0.14740  0.70850  1.0000
  O   O281      1.0  0.15290  0.30030  0.20850  1.0000
  O   O282      1.0  0.85260  0.15290  0.70850  1.0000
  O   O283      1.0  0.78230  0.94050  0.21170  1.0000
  O   O284      1.0  0.84180  0.78230  0.71170  1.0000
  O   O285      1.0  0.05950  0.84180  0.21170  1.0000
  O   O286      1.0  0.21770  0.05950  0.71170  1.0000
  O   O287      1.0  0.15820  0.21770  0.21170  1.0000
  O   O288      1.0  0.94050  0.15820  0.71170  1.0000
  O   O289      1.0  0.61720  0.89510  0.21540  1.0000
  O   O290      1.0  0.72210  0.61720  0.71540  1.0000
  O   O291      1.0  0.10490  0.72210  0.21540  1.0000
  O   O292      1.0  0.38280  0.10490  0.71540  1.0000
  O   O293      1.0  0.27790  0.38280  0.21540  1.0000
  O   O294      1.0  0.89510  0.27790  0.71540  1.0000
  O   O295      1.0  0.68900  0.94090  0.13720  1.0000
  O   O296      1.0  0.74810  0.68900  0.63720  1.0000
  O   O297      1.0  0.05910  0.74810  0.13720  1.0000
  O   O298      1.0  0.31100  0.05910  0.63720  1.0000
  O   O299      1.0  0.25190  0.31100  0.13720  1.0000
  O   O300      1.0  0.94090  0.25190  0.63720  1.0000
  O   O301      1.0  0.64500  0.01980  0.13410  1.0000
  O   O302      1.0  0.62520  0.64500  0.63410  1.0000
  O   O303      1.0  0.98020  0.62520  0.13410  1.0000
  O   O304      1.0  0.35500  0.98020  0.63410  1.0000
  O   O305      1.0  0.37480  0.35500  0.13410  1.0000
  O   O306      1.0  0.01980  0.37480  0.63410  1.0000
  O   O307      1.0  0.66860  0.04780  0.20080  1.0000
  O   O308      1.0  0.62080  0.66860  0.70080  1.0000
  O   O309      1.0  0.95220  0.62080  0.20080  1.0000
  O   O310      1.0  0.33140  0.95220  0.70080  1.0000
  O   O311      1.0  0.37920  0.33140  0.20080  1.0000
  O   O312      1.0  0.04780  0.37920  0.70080  1.0000
  O   O313      1.0  0.56020  0.99590  0.06120  1.0000
  O   O314      1.0  0.56430  0.56020  0.56120  1.0000
  O   O315      1.0  0.00410  0.56430  0.06120  1.0000
  O   O316      1.0  0.43980  0.00410  0.56120  1.0000
  O   O317      1.0  0.43570  0.43980  0.06120  1.0000
  O   O318      1.0  0.99590  0.43570  0.56120  1.0000
  O   O319      1.0  0.56990  0.01490  0.99320  1.0000
  O   O320      1.0  0.55500  0.56990  0.49320  1.0000
  O   O321      1.0  0.98510  0.55500  0.99320  1.0000
  O   O322      1.0  0.43010  0.98510  0.49320  1.0000
  O   O323      1.0  0.44500  0.43010  0.99320  1.0000
  O   O324      1.0  0.01490  0.44500  0.49320  1.0000
  O   O325      1.0  0.46370  0.88300  0.05240  1.0000
  O   O326      1.0  0.58070  0.46370  0.55240  1.0000
  O   O327      1.0  0.11700  0.58070  0.05240  1.0000
  O   O328      1.0  0.53630  0.11700  0.55240  1.0000
  O   O329      1.0  0.41930  0.53630  0.05240  1.0000
  O   O330      1.0  0.88300  0.41930  0.55240  1.0000
  O   O331      1.0  0.56580  0.88040  0.02160  1.0000
  O   O332      1.0  0.68540  0.56580  0.52160  1.0000
  O   O333      1.0  0.11960  0.68540  0.02160  1.0000
  O   O334      1.0  0.43420  0.11960  0.52160  1.0000
  O   O335      1.0  0.31460  0.43420  0.02160  1.0000
  O   O336      1.0  0.88040  0.31460  0.52160  1.0000
  O   O337      1.0  0.48640  0.77290  0.98440  1.0000
  O   O338      1.0  0.71350  0.48640  0.48440  1.0000
  O   O339      1.0  0.22710  0.71350  0.98440  1.0000
  O   O340      1.0  0.51360  0.22710  0.48440  1.0000
  O   O341      1.0  0.28650  0.51360  0.98440  1.0000
  O   O342      1.0  0.77290  0.28650  0.48440  1.0000
  O   O343      1.0  0.42330  0.79750  0.96550  1.0000
  O   O344      1.0  0.62580  0.42330  0.46550  1.0000
  O   O345      1.0  0.20250  0.62580  0.96550  1.0000
  O   O346      1.0  0.57670  0.20250  0.46550  1.0000
  O   O347      1.0  0.37420  0.57670  0.96550  1.0000
  O   O348      1.0  0.79750  0.37420  0.46550  1.0000
  O   O349      1.0  0.65200  0.54090  0.26220  1.0000
  O   O350      1.0  0.11110  0.65200  0.76220  1.0000
  O   O351      1.0  0.45910  0.11110  0.26220  1.0000
  O   O352      1.0  0.34800  0.45910  0.76220  1.0000
  O   O353      1.0  0.88890  0.34800  0.26220  1.0000
  O   O354      1.0  0.54090  0.88890  0.76220  1.0000
  H   H37       1.0  0.66925  0.55977  0.28767  1.0000
  H   H38       1.0  0.10948  0.66925  0.78767  1.0000
  H   H39       1.0  0.44023  0.10948  0.28767  1.0000
  H   H40       1.0  0.33075  0.44023  0.78767  1.0000
  H   H41       1.0  0.89052  0.33075  0.28767  1.0000
  H   H42       1.0  0.55977  0.89052  0.78767  1.0000
  H   H43       1.0  0.64419  0.50074  0.25681  1.0000
  H   H44       1.0  0.14345  0.64419  0.75681  1.0000
  H   H45       1.0  0.49926  0.14345  0.25681  1.0000
  H   H46       1.0  0.35581  0.49926  0.75681  1.0000
  H   H47       1.0  0.85655  0.35581  0.25681  1.0000
  H   H48       1.0  0.50074  0.85655  0.75681  1.0000
  O   O355      1.0  0.64050  0.68240  0.22980  1.0000
  O   O356      1.0  0.95810  0.64050  0.72980  1.0000
  O   O357      1.0  0.31760  0.95810  0.22980  1.0000
  O   O358      1.0  0.35950  0.31760  0.72980  1.0000
  O   O359      1.0  0.04190  0.35950  0.22980  1.0000
  O   O360      1.0  0.68240  0.04190  0.72980  1.0000
  H   H49       1.0  0.64369  0.71450  0.21191  1.0000
  H   H50       1.0  0.92919  0.64369  0.71191  1.0000
  H   H51       1.0  0.28550  0.92919  0.21191  1.0000
  H   H52       1.0  0.35631  0.28550  0.71191  1.0000
  H   H53       1.0  0.07081  0.35631  0.21191  1.0000
  H   H54       1.0  0.71450  0.07081  0.71191  1.0000
  H   H55       1.0  0.64544  0.68903  0.25910  1.0000
  H   H56       1.0  0.95641  0.64544  0.75910  1.0000
  H   H57       1.0  0.31097  0.95641  0.25910  1.0000
  H   H58       1.0  0.35456  0.31097  0.75910  1.0000
  H   H59       1.0  0.04359  0.35456  0.25910  1.0000
  H   H60       1.0  0.68903  0.04359  0.75910  1.0000
  O   O361      1.0  0.28480  0.49780  0.20660  1.0000
  O   O362      1.0  0.78700  0.28480  0.70660  1.0000
  O   O363      1.0  0.50220  0.78700  0.20660  1.0000
  O   O364      1.0  0.71520  0.50220  0.70660  1.0000
  O   O365      1.0  0.21300  0.71520  0.20660  1.0000
  O   O366      1.0  0.49780  0.21300  0.70660  1.0000
  O   O367      1.0  0.37450  0.62470  0.20000  1.0000
  O   O368      1.0  0.74980  0.37450  0.70000  1.0000
  O   O369      1.0  0.37530  0.74980  0.20000  1.0000
  O   O370      1.0  0.62550  0.37530  0.70000  1.0000
  O   O371      1.0  0.25020  0.62550  0.20000  1.0000
  O   O372      1.0  0.62470  0.25020  0.70000  1.0000
  O   O373      1.0  0.42950  0.68490  0.13020  1.0000
  O   O374      1.0  0.74460  0.42950  0.63020  1.0000
  O   O375      1.0  0.31510  0.74460  0.13020  1.0000
  O   O376      1.0  0.57050  0.31510  0.63020  1.0000
  O   O377      1.0  0.25540  0.57050  0.13020  1.0000
  O   O378      1.0  0.68490  0.25540  0.63020  1.0000
  O   O379      1.0  0.50240  0.76000  0.06870  1.0000
  O   O380      1.0  0.74240  0.50240  0.56870  1.0000
  O   O381      1.0  0.24000  0.74240  0.06870  1.0000
  O   O382      1.0  0.49760  0.24000  0.56870  1.0000
  O   O383      1.0  0.25760  0.49760  0.06870  1.0000
  O   O384      1.0  0.76000  0.25760  0.56870  1.0000
  O   O385      1.0  0.62900  0.85790  0.07840  1.0000
  O   O386      1.0  0.77110  0.62900  0.57840  1.0000
  O   O387      1.0  0.14210  0.77110  0.07840  1.0000
  O   O388      1.0  0.37100  0.14210  0.57840  1.0000
  O   O389      1.0  0.22890  0.37100  0.07840  1.0000
  O   O390      1.0  0.85790  0.22890  0.57840  1.0000
  O   O391      1.0  0.43910  0.83180  0.13400  1.0000
  O   O392      1.0  0.60730  0.43910  0.63400  1.0000
  O   O393      1.0  0.16820  0.60730  0.13400  1.0000
  O   O394      1.0  0.56090  0.16820  0.63400  1.0000
  O   O395      1.0  0.39270  0.56090  0.13400  1.0000
  O   O396      1.0  0.83180  0.39270  0.63400  1.0000
  O   O397      1.0  0.55730  0.89820  0.11420  1.0000
  O   O398      1.0  0.65910  0.55730  0.61420  1.0000
  O   O399      1.0  0.10180  0.65910  0.11420  1.0000
  O   O400      1.0  0.44270  0.10180  0.61420  1.0000
  O   O401      1.0  0.34090  0.44270  0.11420  1.0000
  O   O402      1.0  0.89820  0.34090  0.61420  1.0000
  O   O403      1.0  0.58900  0.79380  0.15830  1.0000
  O   O404      1.0  0.79520  0.58900  0.65830  1.0000
  O   O405      1.0  0.20620  0.79520  0.15830  1.0000
  O   O406      1.0  0.41100  0.20620  0.65830  1.0000
  O   O407      1.0  0.20480  0.41100  0.15830  1.0000
  O   O408      1.0  0.79380  0.20480  0.65830  1.0000
  C   C1        1.0  0.15530  0.30190  0.33200  1.0000
  C   C2        1.0  0.85340  0.15530  0.83200  1.0000
  C   C3        1.0  0.69810  0.85340  0.33200  1.0000
  C   C4        1.0  0.84470  0.69810  0.83200  1.0000
  C   C5        1.0  0.14660  0.84470  0.33200  1.0000
  C   C6        1.0  0.30190  0.14660  0.83200  1.0000
  C   C7        1.0  0.08830  0.27880  0.32190  1.0000
  C   C8        1.0  0.80950  0.08830  0.82190  1.0000
  C   C9        1.0  0.72120  0.80950  0.32190  1.0000
  C   C10       1.0  0.91170  0.72120  0.82190  1.0000
  C   C11       1.0  0.19050  0.91170  0.32190  1.0000
  C   C12       1.0  0.27880  0.19050  0.82190  1.0000
  H   H61       1.0  0.08441  0.31404  0.31015  1.0000
  H   H62       1.0  0.77037  0.08441  0.81015  1.0000
  H   H63       1.0  0.68596  0.77037  0.31015  1.0000
  H   H64       1.0  0.91559  0.68596  0.81015  1.0000
  H   H65       1.0  0.22963  0.91559  0.31015  1.0000
  H   H66       1.0  0.31404  0.22963  0.81015  1.0000
  C   C13       1.0  0.06960  0.22880  0.28800  1.0000
  C   C14       1.0  0.84080  0.06960  0.78800  1.0000
  C   C15       1.0  0.77120  0.84080  0.28800  1.0000
  C   C16       1.0  0.93040  0.77120  0.78800  1.0000
  C   C17       1.0  0.15920  0.93040  0.28800  1.0000
  C   C18       1.0  0.22880  0.15920  0.78800  1.0000
  H   H67       1.0  0.09962  0.24286  0.26413  1.0000
  H   H68       1.0  0.85676  0.09962  0.76413  1.0000
  H   H69       1.0  0.75714  0.85676  0.26413  1.0000
  H   H70       1.0  0.90038  0.75714  0.76413  1.0000
  H   H71       1.0  0.14324  0.90038  0.26413  1.0000
  H   H72       1.0  0.24286  0.14324  0.76413  1.0000
  C   C19       1.0  0.00530  0.21140  0.27470  1.0000
  C   C20       1.0  0.79390  0.00530  0.77470  1.0000
  C   C21       1.0  0.78860  0.79390  0.27470  1.0000
  C   C22       1.0  0.99470  0.78860  0.77470  1.0000
  C   C23       1.0  0.20610  0.99470  0.27470  1.0000
  C   C24       1.0  0.21140  0.20610  0.77470  1.0000
  C   C25       1.0  0.20920  0.23190  0.53220  1.0000
  C   C26       1.0  0.97730  0.20920  0.03220  1.0000
  C   C27       1.0  0.76810  0.97730  0.53220  1.0000
  C   C28       1.0  0.79080  0.76810  0.03220  1.0000
  C   C29       1.0  0.02270  0.79080  0.53220  1.0000
  C   C30       1.0  0.23190  0.02270  0.03220  1.0000
  C   C31       1.0  0.21850  0.24350  0.48750  1.0000
  C   C32       1.0  0.97500  0.21850  0.98750  1.0000
  C   C33       1.0  0.75650  0.97500  0.48750  1.0000
  C   C34       1.0  0.78150  0.75650  0.98750  1.0000
  C   C35       1.0  0.02500  0.78150  0.48750  1.0000
  C   C36       1.0  0.24350  0.02500  0.98750  1.0000
  H   H73       1.0  0.21339  0.28014  0.48128  1.0000
  H   H74       1.0  0.93325  0.21339  0.98128  1.0000
  H   H75       1.0  0.71986  0.93325  0.48128  1.0000
  H   H76       1.0  0.78661  0.71986  0.98128  1.0000
  H   H77       1.0  0.06675  0.78661  0.48128  1.0000
  H   H78       1.0  0.28014  0.06675  0.98128  1.0000
  C   C37       1.0  0.28070  0.25940  0.47420  1.0000
  C   C38       1.0  0.02130  0.28070  0.97420  1.0000
  C   C39       1.0  0.74060  0.02130  0.47420  1.0000
  C   C40       1.0  0.71930  0.74060  0.97420  1.0000
  C   C41       1.0  0.97870  0.71930  0.47420  1.0000
  C   C42       1.0  0.25940  0.97870  0.97420  1.0000
  H   H79       1.0  0.31065  0.29472  0.49221  1.0000
  H   H80       1.0  0.01593  0.31065  0.99221  1.0000
  H   H81       1.0  0.70528  0.01593  0.49221  1.0000
  H   H82       1.0  0.68935  0.70528  0.99221  1.0000
  H   H83       1.0  0.98407  0.68935  0.49221  1.0000
  H   H84       1.0  0.29472  0.98407  0.99221  1.0000
  C   C43       1.0  0.29510  0.28160  0.42860  1.0000
  C   C44       1.0  0.01350  0.29510  0.92860  1.0000
  C   C45       1.0  0.71840  0.01350  0.42860  1.0000
  C   C46       1.0  0.70490  0.71840  0.92860  1.0000
  C   C47       1.0  0.98650  0.70490  0.42860  1.0000
  C   C48       1.0  0.28160  0.98650  0.92860  1.0000
  C   C49       1.0  0.14280  0.99930  0.58050  1.0000
  C   C50       1.0  0.14350  0.14280  0.08050  1.0000
  C   C51       1.0  0.00070  0.14350  0.58050  1.0000
  C   C52       1.0  0.85720  0.00070  0.08050  1.0000
  C   C53       1.0  0.85650  0.85720  0.58050  1.0000
  C   C54       1.0  0.99930  0.85650  0.08050  1.0000
  C   C55       1.0  0.19190  0.98330  0.56680  1.0000
  C   C56       1.0  0.20860  0.19190  0.06680  1.0000
  C   C57       1.0  0.01670  0.20860  0.56680  1.0000
  C   C58       1.0  0.80810  0.01670  0.06680  1.0000
  C   C59       1.0  0.79140  0.80810  0.56680  1.0000
  C   C60       1.0  0.98330  0.79140  0.06680  1.0000
  H   H85       1.0  0.21445  0.98117  0.59214  1.0000
  H   H86       1.0  0.23328  0.21445  0.09214  1.0000
  H   H87       1.0  0.01883  0.23328  0.59214  1.0000
  H   H88       1.0  0.78555  0.01883  0.09214  1.0000
  H   H89       1.0  0.76672  0.78555  0.59214  1.0000
  H   H90       1.0  0.98117  0.76672  0.09214  1.0000
  C   C61       1.0  0.16030  0.91940  0.54520  1.0000
  C   C62       1.0  0.24090  0.16030  0.04520  1.0000
  C   C63       1.0  0.08060  0.24090  0.54520  1.0000
  C   C64       1.0  0.83970  0.08060  0.04520  1.0000
  C   C65       1.0  0.75910  0.83970  0.54520  1.0000
  C   C66       1.0  0.91940  0.75910  0.04520  1.0000
  H   H91       1.0  0.12627  0.88860  0.56368  1.0000
  H   H92       1.0  0.23767  0.12627  0.06368  1.0000
  H   H93       1.0  0.11140  0.23767  0.56368  1.0000
  H   H94       1.0  0.87373  0.11140  0.06368  1.0000
  H   H95       1.0  0.76233  0.87373  0.56368  1.0000
  H   H96       1.0  0.88860  0.76233  0.06368  1.0000
  C   C67       1.0  0.20670  0.89730  0.53740  1.0000
  C   C68       1.0  0.30940  0.20670  0.03740  1.0000
  C   C69       1.0  0.10270  0.30940  0.53740  1.0000
  C   C70       1.0  0.79330  0.10270  0.03740  1.0000
  C   C71       1.0  0.69060  0.79330  0.53740  1.0000
  C   C72       1.0  0.89730  0.69060  0.03740  1.0000
  C   C73       1.0  0.33460  0.99200  0.38750  1.0000
  C   C74       1.0  0.34260  0.33460  0.88750  1.0000
  C   C75       1.0  0.00800  0.34260  0.38750  1.0000
  C   C76       1.0  0.66540  0.00800  0.88750  1.0000
  C   C77       1.0  0.65740  0.66540  0.38750  1.0000
  C   C78       1.0  0.99200  0.65740  0.88750  1.0000
  C   C79       1.0  0.36300  0.06220  0.38720  1.0000
  C   C80       1.0  0.30080  0.36300  0.88720  1.0000
  C   C81       1.0  0.93780  0.30080  0.38720  1.0000
  C   C82       1.0  0.63700  0.93780  0.88720  1.0000
  C   C83       1.0  0.69920  0.63700  0.38720  1.0000
  C   C84       1.0  0.06220  0.69920  0.88720  1.0000
  H   H97       1.0  0.40933  0.07943  0.38689  1.0000
  H   H98       1.0  0.32990  0.40933  0.88689  1.0000
  H   H99       1.0  0.92057  0.32990  0.38689  1.0000
  H   H100      1.0  0.59067  0.92057  0.88689  1.0000
  H   H101      1.0  0.67010  0.59067  0.38689  1.0000
  H   H102      1.0  0.07943  0.67010  0.88689  1.0000
  C   C85       1.0  0.34800  0.08350  0.34630  1.0000
  C   C86       1.0  0.26450  0.34800  0.84630  1.0000
  C   C87       1.0  0.91650  0.26450  0.34630  1.0000
  C   C88       1.0  0.65200  0.91650  0.84630  1.0000
  C   C89       1.0  0.73550  0.65200  0.34630  1.0000
  C   C90       1.0  0.08350  0.73550  0.84630  1.0000
  H   H103      1.0  0.35523  0.06216  0.32224  1.0000
  H   H104      1.0  0.29307  0.35523  0.82224  1.0000
  H   H105      1.0  0.93784  0.29307  0.32224  1.0000
  H   H106      1.0  0.64477  0.93784  0.82224  1.0000
  H   H107      1.0  0.70693  0.64477  0.32224  1.0000
  H   H108      1.0  0.06216  0.70693  0.82224  1.0000
  C   C91       1.0  0.38760  0.15360  0.34110  1.0000
  C   C92       1.0  0.23400  0.38760  0.84110  1.0000
  C   C93       1.0  0.84640  0.23400  0.34110  1.0000
  C   C94       1.0  0.61240  0.84640  0.84110  1.0000
  C   C95       1.0  0.76600  0.61240  0.34110  1.0000
  C   C96       1.0  0.15360  0.76600  0.84110  1.0000
  C   C97       1.0  0.35030  0.46880  0.28730  1.0000
  C   C98       1.0  0.88150  0.35030  0.78730  1.0000
  C   C99       1.0  0.53120  0.88150  0.28730  1.0000
  C   C100      1.0  0.64970  0.53120  0.78730  1.0000
  C   C101      1.0  0.11850  0.64970  0.28730  1.0000
  C   C102      1.0  0.46880  0.11850  0.78730  1.0000
  C   C103      1.0  0.40990  0.51040  0.26460  1.0000
  C   C104      1.0  0.89950  0.40990  0.76460  1.0000
  C   C105      1.0  0.48960  0.89950  0.26460  1.0000
  C   C106      1.0  0.59010  0.48960  0.76460  1.0000
  C   C107      1.0  0.10050  0.59010  0.26460  1.0000
  C   C108      1.0  0.51040  0.10050  0.76460  1.0000
  H   H109      1.0  0.44364  0.52678  0.28617  1.0000
  H   H110      1.0  0.91686  0.44364  0.78617  1.0000
  H   H111      1.0  0.47322  0.91686  0.28617  1.0000
  H   H112      1.0  0.55636  0.47322  0.78617  1.0000
  H   H113      1.0  0.08314  0.55636  0.28617  1.0000
  H   H114      1.0  0.52678  0.08314  0.78617  1.0000
  C   C109      1.0  0.42790  0.47770  0.23200  1.0000
  C   C110      1.0  0.95020  0.42790  0.73200  1.0000
  C   C111      1.0  0.52230  0.95020  0.23200  1.0000
  C   C112      1.0  0.57210  0.52230  0.73200  1.0000
  C   C113      1.0  0.04980  0.57210  0.23200  1.0000
  C   C114      1.0  0.47770  0.04980  0.73200  1.0000
  H   H115      1.0  0.41805  0.43576  0.24247  1.0000
  H   H116      1.0  0.98229  0.41805  0.74247  1.0000
  H   H117      1.0  0.56424  0.98229  0.24247  1.0000
  H   H118      1.0  0.58195  0.56424  0.74247  1.0000
  H   H119      1.0  0.01771  0.58195  0.24247  1.0000
  H   H120      1.0  0.43576  0.01771  0.74247  1.0000
  C   C115      1.0  0.49580  0.51460  0.21860  1.0000
  C   C116      1.0  0.98120  0.49580  0.71860  1.0000
  C   C117      1.0  0.48540  0.98120  0.21860  1.0000
  C   C118      1.0  0.50420  0.48540  0.71860  1.0000
  C   C119      1.0  0.01880  0.50420  0.21860  1.0000
  C   C120      1.0  0.51460  0.01880  0.71860  1.0000
  C   C121      1.0  0.63150  0.68200  0.12830  1.0000
  C   C122      1.0  0.94950  0.63150  0.62830  1.0000
  C   C123      1.0  0.31800  0.94950  0.12830  1.0000
  C   C124      1.0  0.36850  0.31800  0.62830  1.0000
  C   C125      1.0  0.05050  0.36850  0.12830  1.0000
  C   C126      1.0  0.68200  0.05050  0.62830  1.0000
  C   C127      1.0  0.61690  0.69150  0.08310  1.0000
  C   C128      1.0  0.92540  0.61690  0.58310  1.0000
  C   C129      1.0  0.30850  0.92540  0.08310  1.0000
  C   C130      1.0  0.38310  0.30850  0.58310  1.0000
  C   C131      1.0  0.07460  0.38310  0.08310  1.0000
  C   C132      1.0  0.69150  0.07460  0.58310  1.0000
  H   H121      1.0  0.64682  0.68800  0.06386  1.0000
  H   H122      1.0  0.95882  0.64682  0.56386  1.0000
  H   H123      1.0  0.31200  0.95882  0.06386  1.0000
  H   H124      1.0  0.35318  0.31200  0.56386  1.0000
  H   H125      1.0  0.04118  0.35318  0.06386  1.0000
  H   H126      1.0  0.68800  0.04118  0.56386  1.0000
  C   C133      1.0  0.55140  0.64200  0.07170  1.0000
  C   C134      1.0  0.90940  0.55140  0.57170  1.0000
  C   C135      1.0  0.35800  0.90940  0.07170  1.0000
  C   C136      1.0  0.44860  0.35800  0.57170  1.0000
  C   C137      1.0  0.09060  0.44860  0.07170  1.0000
  C   C138      1.0  0.64200  0.09060  0.57170  1.0000
  H   H127      1.0  0.54512  0.59957  0.07759  1.0000
  H   H128      1.0  0.94555  0.54512  0.57759  1.0000
  H   H129      1.0  0.40043  0.94555  0.07759  1.0000
  H   H130      1.0  0.45488  0.40043  0.57759  1.0000
  H   H131      1.0  0.05445  0.45488  0.07759  1.0000
  H   H132      1.0  0.59957  0.05445  0.57759  1.0000
  C   C139      1.0  0.54220  0.64910  0.02520  1.0000
  C   C140      1.0  0.89310  0.54220  0.52520  1.0000
  C   C141      1.0  0.35090  0.89310  0.02520  1.0000
  C   C142      1.0  0.45780  0.35090  0.52520  1.0000
  C   C143      1.0  0.10690  0.45780  0.02520  1.0000
  C   C144      1.0  0.64910  0.10690  0.52520  1.0000
  C   C145      1.0  0.72390  0.90460  0.21140  1.0000
  C   C146      1.0  0.81930  0.72390  0.71140  1.0000
  C   C147      1.0  0.09540  0.81930  0.21140  1.0000
  C   C148      1.0  0.27610  0.09540  0.71140  1.0000
  C   C149      1.0  0.18070  0.27610  0.21140  1.0000
  C   C150      1.0  0.90460  0.18070  0.71140  1.0000
  C   C151      1.0  0.68470  0.93600  0.21320  1.0000
  C   C152      1.0  0.74870  0.68470  0.71320  1.0000
  C   C153      1.0  0.06400  0.74870  0.21320  1.0000
  C   C154      1.0  0.31530  0.06400  0.71320  1.0000
  C   C155      1.0  0.25130  0.31530  0.21320  1.0000
  C   C156      1.0  0.93600  0.25130  0.71320  1.0000
  H   H133      1.0  0.69776  0.96312  0.23855  1.0000
  H   H134      1.0  0.73464  0.69776  0.73855  1.0000
  H   H135      1.0  0.03688  0.73464  0.23855  1.0000
  H   H136      1.0  0.30224  0.03688  0.73855  1.0000
  H   H137      1.0  0.26536  0.30224  0.23855  1.0000
  H   H138      1.0  0.96312  0.26536  0.73855  1.0000
  C   C157      1.0  0.70100  0.97940  0.17410  1.0000
  C   C158      1.0  0.72160  0.70100  0.67410  1.0000
  C   C159      1.0  0.02060  0.72160  0.17410  1.0000
  C   C160      1.0  0.29900  0.02060  0.67410  1.0000
  C   C161      1.0  0.27840  0.29900  0.17410  1.0000
  C   C162      1.0  0.97940  0.27840  0.67410  1.0000
  H   H139      1.0  0.74677  0.00947  0.17497  1.0000
  H   H140      1.0  0.73730  0.74677  0.67497  1.0000
  H   H141      1.0  0.99053  0.73730  0.17497  1.0000
  H   H142      1.0  0.25323  0.99053  0.67497  1.0000
  H   H143      1.0  0.26270  0.25323  0.17497  1.0000
  H   H144      1.0  0.00947  0.26270  0.67497  1.0000
  C   C163      1.0  0.66850  0.01770  0.16850  1.0000
  C   C164      1.0  0.65080  0.66850  0.66850  1.0000
  C   C165      1.0  0.98230  0.65080  0.16850  1.0000
  C   C166      1.0  0.33150  0.98230  0.66850  1.0000
  C   C167      1.0  0.34920  0.33150  0.16850  1.0000
  C   C168      1.0  0.01770  0.34920  0.66850  1.0000
  C   C169      1.0  0.54650  0.97930  0.02340  1.0000
  C   C170      1.0  0.56720  0.54650  0.52340  1.0000
  C   C171      1.0  0.02070  0.56720  0.02340  1.0000
  C   C172      1.0  0.45350  0.02070  0.52340  1.0000
  C   C173      1.0  0.43280  0.45350  0.02340  1.0000
  C   C174      1.0  0.97930  0.43280  0.52340  1.0000
  C   C175      1.0  0.48990  0.91290  0.01970  1.0000
  C   C176      1.0  0.57700  0.48990  0.51970  1.0000
  C   C177      1.0  0.08710  0.57700  0.01970  1.0000
  C   C178      1.0  0.51010  0.08710  0.51970  1.0000
  C   C179      1.0  0.42300  0.51010  0.01970  1.0000
  C   C180      1.0  0.91290  0.42300  0.51970  1.0000
  H   H145      1.0  0.45807  0.91371  0.00090  1.0000
  H   H146      1.0  0.54436  0.45807  0.50090  1.0000
  H   H147      1.0  0.08629  0.54436  0.00090  1.0000
  H   H148      1.0  0.54193  0.08629  0.50090  1.0000
  H   H149      1.0  0.45564  0.54193  0.00090  1.0000
  H   H150      1.0  0.91371  0.45564  0.50090  1.0000
  C   C181      1.0  0.52190  0.88200  0.99670  1.0000
  C   C182      1.0  0.63990  0.52190  0.49670  1.0000
  C   C183      1.0  0.11800  0.63990  0.99670  1.0000
  C   C184      1.0  0.47810  0.11800  0.49670  1.0000
  C   C185      1.0  0.36010  0.47810  0.99670  1.0000
  C   C186      1.0  0.88200  0.36010  0.49670  1.0000
  H   H151      1.0  0.54485  0.90975  0.97263  1.0000
  H   H152      1.0  0.63510  0.54485  0.47263  1.0000
  H   H153      1.0  0.09025  0.63510  0.97263  1.0000
  H   H154      1.0  0.45515  0.09025  0.47263  1.0000
  H   H155      1.0  0.36490  0.45515  0.97263  1.0000
  H   H156      1.0  0.90975  0.36490  0.47263  1.0000
  C   C187      1.0  0.47760  0.81830  0.97820  1.0000
  C   C188      1.0  0.65930  0.47760  0.47820  1.0000
  C   C189      1.0  0.18170  0.65930  0.97820  1.0000
  C   C190      1.0  0.52240  0.18170  0.47820  1.0000
  C   C191      1.0  0.34070  0.52240  0.97820  1.0000
  C   C192      1.0  0.81830  0.34070  0.47820  1.0000
