data_image0
_chemical_formula_structural       U6P8O36C2H2C4H2C2H2C4H2C2H2C4H2C2H2C4H2
_chemical_formula_sum              "U6 P8 O36 C24 H16"
_cell_length_a       9.7932
_cell_length_b       10.6592
_cell_length_c       17.5643
_cell_angle_alpha    83.846
_cell_angle_beta     86.318
_cell_angle_gamma    65.184

_space_group_name_H-M_alt    "P 1"
_space_group_IT_number       1

loop_
  _space_group_symop_operation_xyz
  'x, y, z'

loop_
  _atom_site_type_symbol
  _atom_site_label
  _atom_site_symmetry_multiplicity
  _atom_site_fract_x
  _atom_site_fract_y
  _atom_site_fract_z
  _atom_site_occupancy
  U   U1        1.0  0.94280  0.18545  0.75110  1.0000
  U   U2        1.0  0.05720  0.81455  0.24890  1.0000
  U   U3        1.0  0.31303  0.28899  0.74961  1.0000
  U   U4        1.0  0.68697  0.71101  0.25039  1.0000
  U   U5        1.0  0.62490  0.73917  0.75104  1.0000
  U   U6        1.0  0.37510  0.26083  0.24896  1.0000
  P   P1        1.0  0.68630  0.02060  0.81288  1.0000
  P   P2        1.0  0.31370  0.97940  0.18712  1.0000
  P   P3        1.0  0.00650  0.50380  0.68074  1.0000
  P   P4        1.0  0.99350  0.49620  0.31926  1.0000
  P   P5        1.0  0.75470  0.02660  0.17183  1.0000
  P   P6        1.0  0.24530  0.97340  0.82817  1.0000
  P   P7        1.0  0.57550  0.45170  0.67835  1.0000
  P   P8        1.0  0.42450  0.54830  0.32165  1.0000
  O   O1        1.0  0.79390  0.06760  0.76570  1.0000
  O   O2        1.0  0.20610  0.93240  0.23430  1.0000
  O   O3        1.0  0.72210  0.86910  0.80430  1.0000
  O   O4        1.0  0.27790  0.13090  0.19570  1.0000
  O   O5        1.0  0.52350  0.11230  0.79330  1.0000
  O   O6        1.0  0.47650  0.88770  0.20670  1.0000
  O   O7        1.0  0.03530  0.35890  0.72030  1.0000
  O   O8        1.0  0.96470  0.64110  0.27970  1.0000
  O   O9        1.0  0.14540  0.52390  0.69940  1.0000
  O   O10       1.0  0.85460  0.47610  0.30060  1.0000
  O   O11       1.0  0.86210  0.61730  0.70500  1.0000
  O   O12       1.0  0.13790  0.38270  0.29500  1.0000
  O   O13       1.0  0.78740  0.87790  0.20920  1.0000
  O   O14       1.0  0.21260  0.12210  0.79080  1.0000
  O   O15       1.0  0.89830  0.04270  0.18640  1.0000
  O   O16       1.0  0.10170  0.95730  0.81360  1.0000
  O   O17       1.0  0.61270  0.13830  0.20240  1.0000
  O   O18       1.0  0.38730  0.86170  0.79760  1.0000
  O   O19       1.0  0.74050  0.35190  0.68840  1.0000
  O   O20       1.0  0.25950  0.64810  0.31160  1.0000
  O   O21       1.0  0.47180  0.39900  0.72490  1.0000
  O   O22       1.0  0.52820  0.60100  0.27510  1.0000
  O   O23       1.0  0.54670  0.59810  0.69880  1.0000
  O   O24       1.0  0.45330  0.40190  0.30120  1.0000
  O   O25       1.0  0.01780  0.11790  0.66200  1.0000
  O   O26       1.0  0.98220  0.88210  0.33800  1.0000
  O   O27       1.0  0.87170  0.25500  0.84120  1.0000
  O   O28       1.0  0.12830  0.74500  0.15880  1.0000
  O   O29       1.0  0.27420  0.34960  0.84250  1.0000
  O   O30       1.0  0.72580  0.65040  0.15750  1.0000
  O   O31       1.0  0.35090  0.23110  0.65640  1.0000
  O   O32       1.0  0.64910  0.76890  0.34360  1.0000
  O   O33       1.0  0.66980  0.62620  0.83750  1.0000
  O   O34       1.0  0.33020  0.37380  0.16250  1.0000
  O   O35       1.0  0.58340  0.84960  0.66460  1.0000
  O   O36       1.0  0.41660  0.15040  0.33540  1.0000
  C   C1        1.0  0.58790  0.10920  0.95750  1.0000
  C   C2        1.0  0.41210  0.89080  0.04250  1.0000
  H   H1        1.0  0.49300  0.16380  0.93490  1.0000
  H   H2        1.0  0.50700  0.83620  0.06510  1.0000
  C   C3        1.0  0.70540  0.03190  0.91240  1.0000
  C   C4        1.0  0.29460  0.96810  0.08760  1.0000
  C   C5        1.0  0.83970  0.95500  0.94850  1.0000
  C   C6        1.0  0.16030  0.04500  0.05150  1.0000
  H   H3        1.0  0.92650  0.90450  0.91900  1.0000
  H   H4        1.0  0.07350  0.09550  0.08100  1.0000
  C   C7        1.0  0.92890  0.62240  0.53320  1.0000
  C   C8        1.0  0.07110  0.37760  0.46680  1.0000
  H   H5        1.0  0.88000  0.70750  0.55600  1.0000
  H   H6        1.0  0.12000  0.29250  0.44400  1.0000
  C   C9        1.0  0.99930  0.49970  0.58110  1.0000
  C   C10       1.0  0.00070  0.50030  0.41890  1.0000
  C   C11       1.0  0.07270  0.37520  0.54540  1.0000
  C   C12       1.0  0.92730  0.62480  0.45460  1.0000
  H   H7        1.0  0.12300  0.28990  0.57540  1.0000
  H   H8        1.0  0.87700  0.71010  0.42460  1.0000
  C   C13       1.0  0.85060  0.95100  0.02600  1.0000
  C   C14       1.0  0.14940  0.04900  0.97400  1.0000
  H   H9        1.0  0.94340  0.89130  0.04910  1.0000
  H   H10       1.0  0.05660  0.10870  0.95090  1.0000
  C   C15       1.0  0.73600  0.02820  0.07140  1.0000
  C   C16       1.0  0.26400  0.97180  0.92860  1.0000
  C   C17       1.0  0.60280  0.11030  0.03430  1.0000
  C   C18       1.0  0.39720  0.88970  0.96570  1.0000
  H   H11       1.0  0.51930  0.16920  0.06310  1.0000
  H   H12       1.0  0.48070  0.83080  0.93690  1.0000
  C   C19       1.0  0.38800  0.51010  0.55410  1.0000
  C   C20       1.0  0.61200  0.48990  0.44590  1.0000
  H   H13       1.0  0.31040  0.51780  0.59110  1.0000
  H   H14       1.0  0.68960  0.48220  0.40890  1.0000
  C   C21       1.0  0.53490  0.47120  0.57910  1.0000
  C   C22       1.0  0.46510  0.52880  0.42090  1.0000
  C   C23       1.0  0.64720  0.46260  0.52280  1.0000
  C   C24       1.0  0.35280  0.53740  0.47720  1.0000
  H   H15       1.0  0.74740  0.43790  0.53770  1.0000
  H   H16       1.0  0.25260  0.56210  0.46230  1.0000
