data_image0
_chemical_formula_structural       C576F288Mn112N192O384
_chemical_formula_sum              "C576 F288 Mn112 N192 O384"
_cell_length_a       32.9672
_cell_length_b       32.9672
_cell_length_c       32.9672
_cell_angle_alpha    90
_cell_angle_beta     90
_cell_angle_gamma    90

_space_group_name_H-M_alt    "P 1"
_space_group_IT_number       1

loop_
  _space_group_symop_operation_xyz
  'x, y, z'

loop_
  _atom_site_type_symbol
  _atom_site_label
  _atom_site_symmetry_multiplicity
  _atom_site_fract_x
  _atom_site_fract_y
  _atom_site_fract_z
  _atom_site_occupancy
  C   C1        1.0  0.11840  0.64970  0.07570  1.0000
  C   C2        1.0  0.38160  0.35030  0.57570  1.0000
  C   C3        1.0  0.88160  0.14970  0.42430  1.0000
  C   C4        1.0  0.61840  0.85030  0.92430  1.0000
  C   C5        1.0  0.07570  0.11840  0.64970  1.0000
  C   C6        1.0  0.57570  0.38160  0.35030  1.0000
  C   C7        1.0  0.42430  0.88160  0.14970  1.0000
  C   C8        1.0  0.92430  0.61840  0.85030  1.0000
  C   C9        1.0  0.64970  0.07570  0.11840  1.0000
  C   C10       1.0  0.35030  0.57570  0.38160  1.0000
  C   C11       1.0  0.14970  0.42430  0.88160  1.0000
  C   C12       1.0  0.85030  0.92430  0.61840  1.0000
  C   C13       1.0  0.89970  0.36840  0.32570  1.0000
  C   C14       1.0  0.60030  0.63160  0.82570  1.0000
  C   C15       1.0  0.39970  0.13160  0.67430  1.0000
  C   C16       1.0  0.10030  0.86840  0.17430  1.0000
  C   C17       1.0  0.36840  0.32570  0.89970  1.0000
  C   C18       1.0  0.63160  0.82570  0.60030  1.0000
  C   C19       1.0  0.13160  0.67430  0.39970  1.0000
  C   C20       1.0  0.86840  0.17430  0.10030  1.0000
  C   C21       1.0  0.32570  0.89970  0.36840  1.0000
  C   C22       1.0  0.82570  0.60030  0.63160  1.0000
  C   C23       1.0  0.67430  0.39970  0.13160  1.0000
  C   C24       1.0  0.17430  0.10030  0.86840  1.0000
  C   C25       1.0  0.61840  0.14970  0.57570  1.0000
  C   C26       1.0  0.88160  0.85030  0.07570  1.0000
  C   C27       1.0  0.38160  0.64970  0.92430  1.0000
  C   C28       1.0  0.11840  0.35030  0.42430  1.0000
  C   C29       1.0  0.57570  0.61840  0.14970  1.0000
  C   C30       1.0  0.07570  0.88160  0.85030  1.0000
  C   C31       1.0  0.92430  0.38160  0.64970  1.0000
  C   C32       1.0  0.42430  0.11840  0.35030  1.0000
  C   C33       1.0  0.14970  0.57570  0.61840  1.0000
  C   C34       1.0  0.85030  0.07570  0.88160  1.0000
  C   C35       1.0  0.64970  0.92430  0.38160  1.0000
  C   C36       1.0  0.35030  0.42430  0.11840  1.0000
  C   C37       1.0  0.39970  0.86840  0.82570  1.0000
  C   C38       1.0  0.10030  0.13160  0.32570  1.0000
  C   C39       1.0  0.89970  0.63160  0.17430  1.0000
  C   C40       1.0  0.60030  0.36840  0.67430  1.0000
  C   C41       1.0  0.86840  0.82570  0.39970  1.0000
  C   C42       1.0  0.13160  0.32570  0.10030  1.0000
  C   C43       1.0  0.63160  0.17430  0.89970  1.0000
  C   C44       1.0  0.36840  0.67430  0.60030  1.0000
  C   C45       1.0  0.82570  0.39970  0.86840  1.0000
  C   C46       1.0  0.32570  0.10030  0.13160  1.0000
  C   C47       1.0  0.17430  0.89970  0.63160  1.0000
  C   C48       1.0  0.67430  0.60030  0.36840  1.0000
  C   C49       1.0  0.10100  0.61850  0.04710  1.0000
  C   C50       1.0  0.39900  0.38150  0.54710  1.0000
  C   C51       1.0  0.89900  0.11850  0.45290  1.0000
  C   C52       1.0  0.60100  0.88150  0.95290  1.0000
  C   C53       1.0  0.04710  0.10100  0.61850  1.0000
  C   C54       1.0  0.54710  0.39900  0.38150  1.0000
  C   C55       1.0  0.45290  0.89900  0.11850  1.0000
  C   C56       1.0  0.95290  0.60100  0.88150  1.0000
  C   C57       1.0  0.61850  0.04710  0.10100  1.0000
  C   C58       1.0  0.38150  0.54710  0.39900  1.0000
  C   C59       1.0  0.11850  0.45290  0.89900  1.0000
  C   C60       1.0  0.88150  0.95290  0.60100  1.0000
  C   C61       1.0  0.86850  0.35100  0.29710  1.0000
  C   C62       1.0  0.63150  0.64900  0.79710  1.0000
  C   C63       1.0  0.36850  0.14900  0.70290  1.0000
  C   C64       1.0  0.13150  0.85100  0.20290  1.0000
  C   C65       1.0  0.35100  0.29710  0.86850  1.0000
  C   C66       1.0  0.64900  0.79710  0.63150  1.0000
  C   C67       1.0  0.14900  0.70290  0.36850  1.0000
  C   C68       1.0  0.85100  0.20290  0.13150  1.0000
  C   C69       1.0  0.29710  0.86850  0.35100  1.0000
  C   C70       1.0  0.79710  0.63150  0.64900  1.0000
  C   C71       1.0  0.70290  0.36850  0.14900  1.0000
  C   C72       1.0  0.20290  0.13150  0.85100  1.0000
  C   C73       1.0  0.60100  0.11850  0.54710  1.0000
  C   C74       1.0  0.89900  0.88150  0.04710  1.0000
  C   C75       1.0  0.39900  0.61850  0.95290  1.0000
  C   C76       1.0  0.10100  0.38150  0.45290  1.0000
  C   C77       1.0  0.54710  0.60100  0.11850  1.0000
  C   C78       1.0  0.04710  0.89900  0.88150  1.0000
  C   C79       1.0  0.95290  0.39900  0.61850  1.0000
  C   C80       1.0  0.45290  0.10100  0.38150  1.0000
  C   C81       1.0  0.11850  0.54710  0.60100  1.0000
  C   C82       1.0  0.88150  0.04710  0.89900  1.0000
  C   C83       1.0  0.61850  0.95290  0.39900  1.0000
  C   C84       1.0  0.38150  0.45290  0.10100  1.0000
  C   C85       1.0  0.36850  0.85100  0.79710  1.0000
  C   C86       1.0  0.13150  0.14900  0.29710  1.0000
  C   C87       1.0  0.86850  0.64900  0.20290  1.0000
  C   C88       1.0  0.63150  0.35100  0.70290  1.0000
  C   C89       1.0  0.85100  0.79710  0.36850  1.0000
  C   C90       1.0  0.14900  0.29710  0.13150  1.0000
  C   C91       1.0  0.64900  0.20290  0.86850  1.0000
  C   C92       1.0  0.35100  0.70290  0.63150  1.0000
  C   C93       1.0  0.79710  0.36850  0.85100  1.0000
  C   C94       1.0  0.29710  0.13150  0.14900  1.0000
  C   C95       1.0  0.20290  0.86850  0.64900  1.0000
  C   C96       1.0  0.70290  0.63150  0.35100  1.0000
  C   C97       1.0  0.08970  0.61690  0.00700  1.0000
  C   C98       1.0  0.41030  0.38310  0.50700  1.0000
  C   C99       1.0  0.91030  0.11690  0.49300  1.0000
  C   C100      1.0  0.58970  0.88310  0.99300  1.0000
  C   C101      1.0  0.00700  0.08970  0.61690  1.0000
  C   C102      1.0  0.50700  0.41030  0.38310  1.0000
  C   C103      1.0  0.49300  0.91030  0.11690  1.0000
  C   C104      1.0  0.99300  0.58970  0.88310  1.0000
  C   C105      1.0  0.61690  0.00700  0.08970  1.0000
  C   C106      1.0  0.38310  0.50700  0.41030  1.0000
  C   C107      1.0  0.11690  0.49300  0.91030  1.0000
  C   C108      1.0  0.88310  0.99300  0.58970  1.0000
  C   C109      1.0  0.86690  0.33970  0.25700  1.0000
  C   C110      1.0  0.63310  0.66030  0.75700  1.0000
  C   C111      1.0  0.36690  0.16030  0.74300  1.0000
  C   C112      1.0  0.13310  0.83970  0.24300  1.0000
  C   C113      1.0  0.33970  0.25700  0.86690  1.0000
  C   C114      1.0  0.66030  0.75700  0.63310  1.0000
  C   C115      1.0  0.16030  0.74300  0.36690  1.0000
  C   C116      1.0  0.83970  0.24300  0.13310  1.0000
  C   C117      1.0  0.25700  0.86690  0.33970  1.0000
  C   C118      1.0  0.75700  0.63310  0.66030  1.0000
  C   C119      1.0  0.74300  0.36690  0.16030  1.0000
  C   C120      1.0  0.24300  0.13310  0.83970  1.0000
  C   C121      1.0  0.58970  0.11690  0.50700  1.0000
  C   C122      1.0  0.91030  0.88310  0.00700  1.0000
  C   C123      1.0  0.41030  0.61690  0.99300  1.0000
  C   C124      1.0  0.08970  0.38310  0.49300  1.0000
  C   C125      1.0  0.50700  0.58970  0.11690  1.0000
  C   C126      1.0  0.00700  0.91030  0.88310  1.0000
  C   C127      1.0  0.99300  0.41030  0.61690  1.0000
  C   C128      1.0  0.49300  0.08970  0.38310  1.0000
  C   C129      1.0  0.11690  0.50700  0.58970  1.0000
  C   C130      1.0  0.88310  0.00700  0.91030  1.0000
  C   C131      1.0  0.61690  0.99300  0.41030  1.0000
  C   C132      1.0  0.38310  0.49300  0.08970  1.0000
  C   C133      1.0  0.36690  0.83970  0.75700  1.0000
  C   C134      1.0  0.13310  0.16030  0.25700  1.0000
  C   C135      1.0  0.86690  0.66030  0.24300  1.0000
  C   C136      1.0  0.63310  0.33970  0.74300  1.0000
  C   C137      1.0  0.83970  0.75700  0.36690  1.0000
  C   C138      1.0  0.16030  0.25700  0.13310  1.0000
  C   C139      1.0  0.66030  0.24300  0.86690  1.0000
  C   C140      1.0  0.33970  0.74300  0.63310  1.0000
  C   C141      1.0  0.75700  0.36690  0.83970  1.0000
  C   C142      1.0  0.25700  0.13310  0.16030  1.0000
  C   C143      1.0  0.24300  0.86690  0.66030  1.0000
  C   C144      1.0  0.74300  0.63310  0.33970  1.0000
  C   C145      1.0  0.08940  0.64800  0.97260  1.0000
  C   C146      1.0  0.41060  0.35200  0.47260  1.0000
  C   C147      1.0  0.91060  0.14800  0.52740  1.0000
  C   C148      1.0  0.58940  0.85200  0.02740  1.0000
  C   C149      1.0  0.97260  0.08940  0.64800  1.0000
  C   C150      1.0  0.47260  0.41060  0.35200  1.0000
  C   C151      1.0  0.52740  0.91060  0.14800  1.0000
  C   C152      1.0  0.02740  0.58940  0.85200  1.0000
  C   C153      1.0  0.64800  0.97260  0.08940  1.0000
  C   C154      1.0  0.35200  0.47260  0.41060  1.0000
  C   C155      1.0  0.14800  0.52740  0.91060  1.0000
  C   C156      1.0  0.85200  0.02740  0.58940  1.0000
  C   C157      1.0  0.89800  0.33940  0.22260  1.0000
  C   C158      1.0  0.60200  0.66060  0.72260  1.0000
  C   C159      1.0  0.39800  0.16060  0.77740  1.0000
  C   C160      1.0  0.10200  0.83940  0.27740  1.0000
  C   C161      1.0  0.33940  0.22260  0.89800  1.0000
  C   C162      1.0  0.66060  0.72260  0.60200  1.0000
  C   C163      1.0  0.16060  0.77740  0.39800  1.0000
  C   C164      1.0  0.83940  0.27740  0.10200  1.0000
  C   C165      1.0  0.22260  0.89800  0.33940  1.0000
  C   C166      1.0  0.72260  0.60200  0.66060  1.0000
  C   C167      1.0  0.77740  0.39800  0.16060  1.0000
  C   C168      1.0  0.27740  0.10200  0.83940  1.0000
  C   C169      1.0  0.58940  0.14800  0.47260  1.0000
  C   C170      1.0  0.91060  0.85200  0.97260  1.0000
  C   C171      1.0  0.41060  0.64800  0.02740  1.0000
  C   C172      1.0  0.08940  0.35200  0.52740  1.0000
  C   C173      1.0  0.47260  0.58940  0.14800  1.0000
  C   C174      1.0  0.97260  0.91060  0.85200  1.0000
  C   C175      1.0  0.02740  0.41060  0.64800  1.0000
  C   C176      1.0  0.52740  0.08940  0.35200  1.0000
  C   C177      1.0  0.14800  0.47260  0.58940  1.0000
  C   C178      1.0  0.85200  0.97260  0.91060  1.0000
  C   C179      1.0  0.64800  0.02740  0.41060  1.0000
  C   C180      1.0  0.35200  0.52740  0.08940  1.0000
  C   C181      1.0  0.39800  0.83940  0.72260  1.0000
  C   C182      1.0  0.10200  0.16060  0.22260  1.0000
  C   C183      1.0  0.89800  0.66060  0.27740  1.0000
  C   C184      1.0  0.60200  0.33940  0.77740  1.0000
  C   C185      1.0  0.83940  0.72260  0.39800  1.0000
  C   C186      1.0  0.16060  0.22260  0.10200  1.0000
  C   C187      1.0  0.66060  0.27740  0.89800  1.0000
  C   C188      1.0  0.33940  0.77740  0.60200  1.0000
  C   C189      1.0  0.72260  0.39800  0.83940  1.0000
  C   C190      1.0  0.22260  0.10200  0.16060  1.0000
  C   C191      1.0  0.27740  0.89800  0.66060  1.0000
  C   C192      1.0  0.77740  0.60200  0.33940  1.0000
  C   C193      1.0  0.08470  0.55960  0.03290  1.0000
  C   C194      1.0  0.41530  0.44040  0.53290  1.0000
  C   C195      1.0  0.91530  0.05960  0.46710  1.0000
  C   C196      1.0  0.58470  0.94040  0.96710  1.0000
  C   C197      1.0  0.03290  0.08470  0.55960  1.0000
  C   C198      1.0  0.53290  0.41530  0.44040  1.0000
  C   C199      1.0  0.46710  0.91530  0.05960  1.0000
  C   C200      1.0  0.96710  0.58470  0.94040  1.0000
  C   C201      1.0  0.55960  0.03290  0.08470  1.0000
  C   C202      1.0  0.44040  0.53290  0.41530  1.0000
  C   C203      1.0  0.05960  0.46710  0.91530  1.0000
  C   C204      1.0  0.94040  0.96710  0.58470  1.0000
  C   C205      1.0  0.80960  0.33470  0.28290  1.0000
  C   C206      1.0  0.69040  0.66530  0.78290  1.0000
  C   C207      1.0  0.30960  0.16530  0.71710  1.0000
  C   C208      1.0  0.19040  0.83470  0.21710  1.0000
  C   C209      1.0  0.33470  0.28290  0.80960  1.0000
  C   C210      1.0  0.66530  0.78290  0.69040  1.0000
  C   C211      1.0  0.16530  0.71710  0.30960  1.0000
  C   C212      1.0  0.83470  0.21710  0.19040  1.0000
  C   C213      1.0  0.28290  0.80960  0.33470  1.0000
  C   C214      1.0  0.78290  0.69040  0.66530  1.0000
  C   C215      1.0  0.71710  0.30960  0.16530  1.0000
  C   C216      1.0  0.21710  0.19040  0.83470  1.0000
  C   C217      1.0  0.58470  0.05960  0.53290  1.0000
  C   C218      1.0  0.91530  0.94040  0.03290  1.0000
  C   C219      1.0  0.41530  0.55960  0.96710  1.0000
  C   C220      1.0  0.08470  0.44040  0.46710  1.0000
  C   C221      1.0  0.53290  0.58470  0.05960  1.0000
  C   C222      1.0  0.03290  0.91530  0.94040  1.0000
  C   C223      1.0  0.96710  0.41530  0.55960  1.0000
  C   C224      1.0  0.46710  0.08470  0.44040  1.0000
  C   C225      1.0  0.05960  0.53290  0.58470  1.0000
  C   C226      1.0  0.94040  0.03290  0.91530  1.0000
  C   C227      1.0  0.55960  0.96710  0.41530  1.0000
  C   C228      1.0  0.44040  0.46710  0.08470  1.0000
  C   C229      1.0  0.30960  0.83470  0.78290  1.0000
  C   C230      1.0  0.19040  0.16530  0.28290  1.0000
  C   C231      1.0  0.80960  0.66530  0.21710  1.0000
  C   C232      1.0  0.69040  0.33470  0.71710  1.0000
  C   C233      1.0  0.83470  0.78290  0.30960  1.0000
  C   C234      1.0  0.16530  0.28290  0.19040  1.0000
  C   C235      1.0  0.66530  0.21710  0.80960  1.0000
  C   C236      1.0  0.33470  0.71710  0.69040  1.0000
  C   C237      1.0  0.78290  0.30960  0.83470  1.0000
  C   C238      1.0  0.28290  0.19040  0.16530  1.0000
  C   C239      1.0  0.21710  0.80960  0.66530  1.0000
  C   C240      1.0  0.71710  0.69040  0.33470  1.0000
  C   C241      1.0  0.07600  0.51570  0.03830  1.0000
  C   C242      1.0  0.42400  0.48430  0.53830  1.0000
  C   C243      1.0  0.92400  0.01570  0.46170  1.0000
  C   C244      1.0  0.57600  0.98430  0.96170  1.0000
  C   C245      1.0  0.03830  0.07600  0.51570  1.0000
  C   C246      1.0  0.53830  0.42400  0.48430  1.0000
  C   C247      1.0  0.46170  0.92400  0.01570  1.0000
  C   C248      1.0  0.96170  0.57600  0.98430  1.0000
  C   C249      1.0  0.51570  0.03830  0.07600  1.0000
  C   C250      1.0  0.48430  0.53830  0.42400  1.0000
  C   C251      1.0  0.01570  0.46170  0.92400  1.0000
  C   C252      1.0  0.98430  0.96170  0.57600  1.0000
  C   C253      1.0  0.76570  0.32600  0.28830  1.0000
  C   C254      1.0  0.73430  0.67400  0.78830  1.0000
  C   C255      1.0  0.26570  0.17400  0.71170  1.0000
  C   C256      1.0  0.23430  0.82600  0.21170  1.0000
  C   C257      1.0  0.32600  0.28830  0.76570  1.0000
  C   C258      1.0  0.67400  0.78830  0.73430  1.0000
  C   C259      1.0  0.17400  0.71170  0.26570  1.0000
  C   C260      1.0  0.82600  0.21170  0.23430  1.0000
  C   C261      1.0  0.28830  0.76570  0.32600  1.0000
  C   C262      1.0  0.78830  0.73430  0.67400  1.0000
  C   C263      1.0  0.71170  0.26570  0.17400  1.0000
  C   C264      1.0  0.21170  0.23430  0.82600  1.0000
  C   C265      1.0  0.57600  0.01570  0.53830  1.0000
  C   C266      1.0  0.92400  0.98430  0.03830  1.0000
  C   C267      1.0  0.42400  0.51570  0.96170  1.0000
  C   C268      1.0  0.07600  0.48430  0.46170  1.0000
  C   C269      1.0  0.53830  0.57600  0.01570  1.0000
  C   C270      1.0  0.03830  0.92400  0.98430  1.0000
  C   C271      1.0  0.96170  0.42400  0.51570  1.0000
  C   C272      1.0  0.46170  0.07600  0.48430  1.0000
  C   C273      1.0  0.01570  0.53830  0.57600  1.0000
  C   C274      1.0  0.98430  0.03830  0.92400  1.0000
  C   C275      1.0  0.51570  0.96170  0.42400  1.0000
  C   C276      1.0  0.48430  0.46170  0.07600  1.0000
  C   C277      1.0  0.26570  0.82600  0.78830  1.0000
  C   C278      1.0  0.23430  0.17400  0.28830  1.0000
  C   C279      1.0  0.76570  0.67400  0.21170  1.0000
  C   C280      1.0  0.73430  0.32600  0.71170  1.0000
  C   C281      1.0  0.82600  0.78830  0.26570  1.0000
  C   C282      1.0  0.17400  0.28830  0.23430  1.0000
  C   C283      1.0  0.67400  0.21170  0.76570  1.0000
  C   C284      1.0  0.32600  0.71170  0.73430  1.0000
  C   C285      1.0  0.78830  0.26570  0.82600  1.0000
  C   C286      1.0  0.28830  0.23430  0.17400  1.0000
  C   C287      1.0  0.21170  0.76570  0.67400  1.0000
  C   C288      1.0  0.71170  0.73430  0.32600  1.0000
  C   C289      1.0  0.19310  0.53390  0.11600  1.0000
  C   C290      1.0  0.30690  0.46610  0.61600  1.0000
  C   C291      1.0  0.80690  0.03390  0.38400  1.0000
  C   C292      1.0  0.69310  0.96610  0.88400  1.0000
  C   C293      1.0  0.11600  0.19310  0.53390  1.0000
  C   C294      1.0  0.61600  0.30690  0.46610  1.0000
  C   C295      1.0  0.38400  0.80690  0.03390  1.0000
  C   C296      1.0  0.88400  0.69310  0.96610  1.0000
  C   C297      1.0  0.53390  0.11600  0.19310  1.0000
  C   C298      1.0  0.46610  0.61600  0.30690  1.0000
  C   C299      1.0  0.03390  0.38400  0.80690  1.0000
  C   C300      1.0  0.96610  0.88400  0.69310  1.0000
  C   C301      1.0  0.78390  0.44310  0.36600  1.0000
  C   C302      1.0  0.71610  0.55690  0.86600  1.0000
  C   C303      1.0  0.28390  0.05690  0.63400  1.0000
  C   C304      1.0  0.21610  0.94310  0.13400  1.0000
  C   C305      1.0  0.44310  0.36600  0.78390  1.0000
  C   C306      1.0  0.55690  0.86600  0.71610  1.0000
  C   C307      1.0  0.05690  0.63400  0.28390  1.0000
  C   C308      1.0  0.94310  0.13400  0.21610  1.0000
  C   C309      1.0  0.36600  0.78390  0.44310  1.0000
  C   C310      1.0  0.86600  0.71610  0.55690  1.0000
  C   C311      1.0  0.63400  0.28390  0.05690  1.0000
  C   C312      1.0  0.13400  0.21610  0.94310  1.0000
  C   C313      1.0  0.69310  0.03390  0.61600  1.0000
  C   C314      1.0  0.80690  0.96610  0.11600  1.0000
  C   C315      1.0  0.30690  0.53390  0.88400  1.0000
  C   C316      1.0  0.19310  0.46610  0.38400  1.0000
  C   C317      1.0  0.61600  0.69310  0.03390  1.0000
  C   C318      1.0  0.11600  0.80690  0.96610  1.0000
  C   C319      1.0  0.88400  0.30690  0.53390  1.0000
  C   C320      1.0  0.38400  0.19310  0.46610  1.0000
  C   C321      1.0  0.03390  0.61600  0.69310  1.0000
  C   C322      1.0  0.96610  0.11600  0.80690  1.0000
  C   C323      1.0  0.53390  0.88400  0.30690  1.0000
  C   C324      1.0  0.46610  0.38400  0.19310  1.0000
  C   C325      1.0  0.28390  0.94310  0.86600  1.0000
  C   C326      1.0  0.21610  0.05690  0.36600  1.0000
  C   C327      1.0  0.78390  0.55690  0.13400  1.0000
  C   C328      1.0  0.71610  0.44310  0.63400  1.0000
  C   C329      1.0  0.94310  0.86600  0.28390  1.0000
  C   C330      1.0  0.05690  0.36600  0.21610  1.0000
  C   C331      1.0  0.55690  0.13400  0.78390  1.0000
  C   C332      1.0  0.44310  0.63400  0.71610  1.0000
  C   C333      1.0  0.86600  0.28390  0.94310  1.0000
  C   C334      1.0  0.36600  0.21610  0.05690  1.0000
  C   C335      1.0  0.13400  0.78390  0.55690  1.0000
  C   C336      1.0  0.63400  0.71610  0.44310  1.0000
  C   C337      1.0  0.16400  0.50110  0.13100  1.0000
  C   C338      1.0  0.33600  0.49890  0.63100  1.0000
  C   C339      1.0  0.83600  0.00110  0.36900  1.0000
  C   C340      1.0  0.66400  0.99890  0.86900  1.0000
  C   C341      1.0  0.13100  0.16400  0.50110  1.0000
  C   C342      1.0  0.63100  0.33600  0.49890  1.0000
  C   C343      1.0  0.36900  0.83600  0.00110  1.0000
  C   C344      1.0  0.86900  0.66400  0.99890  1.0000
  C   C345      1.0  0.50110  0.13100  0.16400  1.0000
  C   C346      1.0  0.49890  0.63100  0.33600  1.0000
  C   C347      1.0  0.00110  0.36900  0.83600  1.0000
  C   C348      1.0  0.99890  0.86900  0.66400  1.0000
  C   C349      1.0  0.75110  0.41400  0.38100  1.0000
  C   C350      1.0  0.74890  0.58600  0.88100  1.0000
  C   C351      1.0  0.25110  0.08600  0.61900  1.0000
  C   C352      1.0  0.24890  0.91400  0.11900  1.0000
  C   C353      1.0  0.41400  0.38100  0.75110  1.0000
  C   C354      1.0  0.58600  0.88100  0.74890  1.0000
  C   C355      1.0  0.08600  0.61900  0.25110  1.0000
  C   C356      1.0  0.91400  0.11900  0.24890  1.0000
  C   C357      1.0  0.38100  0.75110  0.41400  1.0000
  C   C358      1.0  0.88100  0.74890  0.58600  1.0000
  C   C359      1.0  0.61900  0.25110  0.08600  1.0000
  C   C360      1.0  0.11900  0.24890  0.91400  1.0000
  C   C361      1.0  0.66400  0.00110  0.63100  1.0000
  C   C362      1.0  0.83600  0.99890  0.13100  1.0000
  C   C363      1.0  0.33600  0.50110  0.86900  1.0000
  C   C364      1.0  0.16400  0.49890  0.36900  1.0000
  C   C365      1.0  0.63100  0.66400  0.00110  1.0000
  C   C366      1.0  0.13100  0.83600  0.99890  1.0000
  C   C367      1.0  0.86900  0.33600  0.50110  1.0000
  C   C368      1.0  0.36900  0.16400  0.49890  1.0000
  C   C369      1.0  0.00110  0.63100  0.66400  1.0000
  C   C370      1.0  0.99890  0.13100  0.83600  1.0000
  C   C371      1.0  0.50110  0.86900  0.33600  1.0000
  C   C372      1.0  0.49890  0.36900  0.16400  1.0000
  C   C373      1.0  0.25110  0.91400  0.88100  1.0000
  C   C374      1.0  0.24890  0.08600  0.38100  1.0000
  C   C375      1.0  0.75110  0.58600  0.11900  1.0000
  C   C376      1.0  0.74890  0.41400  0.61900  1.0000
  C   C377      1.0  0.91400  0.88100  0.25110  1.0000
  C   C378      1.0  0.08600  0.38100  0.24890  1.0000
  C   C379      1.0  0.58600  0.11900  0.75110  1.0000
  C   C380      1.0  0.41400  0.61900  0.74890  1.0000
  C   C381      1.0  0.88100  0.25110  0.91400  1.0000
  C   C382      1.0  0.38100  0.24890  0.08600  1.0000
  C   C383      1.0  0.11900  0.75110  0.58600  1.0000
  C   C384      1.0  0.61900  0.74890  0.41400  1.0000
  C   C385      1.0  0.16690  0.46020  0.13930  1.0000
  C   C386      1.0  0.33310  0.53980  0.63930  1.0000
  C   C387      1.0  0.83310  0.96020  0.36070  1.0000
  C   C388      1.0  0.66690  0.03980  0.86070  1.0000
  C   C389      1.0  0.13930  0.16690  0.46020  1.0000
  C   C390      1.0  0.63930  0.33310  0.53980  1.0000
  C   C391      1.0  0.36070  0.83310  0.96020  1.0000
  C   C392      1.0  0.86070  0.66690  0.03980  1.0000
  C   C393      1.0  0.46020  0.13930  0.16690  1.0000
  C   C394      1.0  0.53980  0.63930  0.33310  1.0000
  C   C395      1.0  0.96020  0.36070  0.83310  1.0000
  C   C396      1.0  0.03980  0.86070  0.66690  1.0000
  C   C397      1.0  0.71020  0.41690  0.38930  1.0000
  C   C398      1.0  0.78980  0.58310  0.88930  1.0000
  C   C399      1.0  0.21020  0.08310  0.61070  1.0000
  C   C400      1.0  0.28980  0.91690  0.11070  1.0000
  C   C401      1.0  0.41690  0.38930  0.71020  1.0000
  C   C402      1.0  0.58310  0.88930  0.78980  1.0000
  C   C403      1.0  0.08310  0.61070  0.21020  1.0000
  C   C404      1.0  0.91690  0.11070  0.28980  1.0000
  C   C405      1.0  0.38930  0.71020  0.41690  1.0000
  C   C406      1.0  0.88930  0.78980  0.58310  1.0000
  C   C407      1.0  0.61070  0.21020  0.08310  1.0000
  C   C408      1.0  0.11070  0.28980  0.91690  1.0000
  C   C409      1.0  0.66690  0.96020  0.63930  1.0000
  C   C410      1.0  0.83310  0.03980  0.13930  1.0000
  C   C411      1.0  0.33310  0.46020  0.86070  1.0000
  C   C412      1.0  0.16690  0.53980  0.36070  1.0000
  C   C413      1.0  0.63930  0.66690  0.96020  1.0000
  C   C414      1.0  0.13930  0.83310  0.03980  1.0000
  C   C415      1.0  0.86070  0.33310  0.46020  1.0000
  C   C416      1.0  0.36070  0.16690  0.53980  1.0000
  C   C417      1.0  0.96020  0.63930  0.66690  1.0000
  C   C418      1.0  0.03980  0.13930  0.83310  1.0000
  C   C419      1.0  0.46020  0.86070  0.33310  1.0000
  C   C420      1.0  0.53980  0.36070  0.16690  1.0000
  C   C421      1.0  0.21020  0.91690  0.88930  1.0000
  C   C422      1.0  0.28980  0.08310  0.38930  1.0000
  C   C423      1.0  0.71020  0.58310  0.11070  1.0000
  C   C424      1.0  0.78980  0.41690  0.61070  1.0000
  C   C425      1.0  0.91690  0.88930  0.21020  1.0000
  C   C426      1.0  0.08310  0.38930  0.28980  1.0000
  C   C427      1.0  0.58310  0.11070  0.71020  1.0000
  C   C428      1.0  0.41690  0.61070  0.78980  1.0000
  C   C429      1.0  0.88930  0.21020  0.91690  1.0000
  C   C430      1.0  0.38930  0.28980  0.08310  1.0000
  C   C431      1.0  0.11070  0.71020  0.58310  1.0000
  C   C432      1.0  0.61070  0.78980  0.41690  1.0000
  C   C433      1.0  0.19800  0.42790  0.13190  1.0000
  C   C434      1.0  0.30200  0.57210  0.63190  1.0000
  C   C435      1.0  0.80200  0.92790  0.36810  1.0000
  C   C436      1.0  0.69800  0.07210  0.86810  1.0000
  C   C437      1.0  0.13190  0.19800  0.42790  1.0000
  C   C438      1.0  0.63190  0.30200  0.57210  1.0000
  C   C439      1.0  0.36810  0.80200  0.92790  1.0000
  C   C440      1.0  0.86810  0.69800  0.07210  1.0000
  C   C441      1.0  0.42790  0.13190  0.19800  1.0000
  C   C442      1.0  0.57210  0.63190  0.30200  1.0000
  C   C443      1.0  0.92790  0.36810  0.80200  1.0000
  C   C444      1.0  0.07210  0.86810  0.69800  1.0000
  C   C445      1.0  0.67790  0.44800  0.38190  1.0000
  C   C446      1.0  0.82210  0.55200  0.88190  1.0000
  C   C447      1.0  0.17790  0.05200  0.61810  1.0000
  C   C448      1.0  0.32210  0.94800  0.11810  1.0000
  C   C449      1.0  0.44800  0.38190  0.67790  1.0000
  C   C450      1.0  0.55200  0.88190  0.82210  1.0000
  C   C451      1.0  0.05200  0.61810  0.17790  1.0000
  C   C452      1.0  0.94800  0.11810  0.32210  1.0000
  C   C453      1.0  0.38190  0.67790  0.44800  1.0000
  C   C454      1.0  0.88190  0.82210  0.55200  1.0000
  C   C455      1.0  0.61810  0.17790  0.05200  1.0000
  C   C456      1.0  0.11810  0.32210  0.94800  1.0000
  C   C457      1.0  0.69800  0.92790  0.63190  1.0000
  C   C458      1.0  0.80200  0.07210  0.13190  1.0000
  C   C459      1.0  0.30200  0.42790  0.86810  1.0000
  C   C460      1.0  0.19800  0.57210  0.36810  1.0000
  C   C461      1.0  0.63190  0.69800  0.92790  1.0000
  C   C462      1.0  0.13190  0.80200  0.07210  1.0000
  C   C463      1.0  0.86810  0.30200  0.42790  1.0000
  C   C464      1.0  0.36810  0.19800  0.57210  1.0000
  C   C465      1.0  0.92790  0.63190  0.69800  1.0000
  C   C466      1.0  0.07210  0.13190  0.80200  1.0000
  C   C467      1.0  0.42790  0.86810  0.30200  1.0000
  C   C468      1.0  0.57210  0.36810  0.19800  1.0000
  C   C469      1.0  0.17790  0.94800  0.88190  1.0000
  C   C470      1.0  0.32210  0.05200  0.38190  1.0000
  C   C471      1.0  0.67790  0.55200  0.11810  1.0000
  C   C472      1.0  0.82210  0.44800  0.61810  1.0000
  C   C473      1.0  0.94800  0.88190  0.17790  1.0000
  C   C474      1.0  0.05200  0.38190  0.32210  1.0000
  C   C475      1.0  0.55200  0.11810  0.67790  1.0000
  C   C476      1.0  0.44800  0.61810  0.82210  1.0000
  C   C477      1.0  0.88190  0.17790  0.94800  1.0000
  C   C478      1.0  0.38190  0.32210  0.05200  1.0000
  C   C479      1.0  0.11810  0.67790  0.55200  1.0000
  C   C480      1.0  0.61810  0.82210  0.44800  1.0000
  C   C481      1.0  0.10900  0.48110  0.15430  1.0000
  C   C482      1.0  0.39100  0.51890  0.65430  1.0000
  C   C483      1.0  0.89100  0.98110  0.34570  1.0000
  C   C484      1.0  0.60900  0.01890  0.84570  1.0000
  C   C485      1.0  0.15430  0.10900  0.48110  1.0000
  C   C486      1.0  0.65430  0.39100  0.51890  1.0000
  C   C487      1.0  0.34570  0.89100  0.98110  1.0000
  C   C488      1.0  0.84570  0.60900  0.01890  1.0000
  C   C489      1.0  0.48110  0.15430  0.10900  1.0000
  C   C490      1.0  0.51890  0.65430  0.39100  1.0000
  C   C491      1.0  0.98110  0.34570  0.89100  1.0000
  C   C492      1.0  0.01890  0.84570  0.60900  1.0000
  C   C493      1.0  0.73110  0.35900  0.40430  1.0000
  C   C494      1.0  0.76890  0.64100  0.90430  1.0000
  C   C495      1.0  0.23110  0.14100  0.59570  1.0000
  C   C496      1.0  0.26890  0.85900  0.09570  1.0000
  C   C497      1.0  0.35900  0.40430  0.73110  1.0000
  C   C498      1.0  0.64100  0.90430  0.76890  1.0000
  C   C499      1.0  0.14100  0.59570  0.23110  1.0000
  C   C500      1.0  0.85900  0.09570  0.26890  1.0000
  C   C501      1.0  0.40430  0.73110  0.35900  1.0000
  C   C502      1.0  0.90430  0.76890  0.64100  1.0000
  C   C503      1.0  0.59570  0.23110  0.14100  1.0000
  C   C504      1.0  0.09570  0.26890  0.85900  1.0000
  C   C505      1.0  0.60900  0.98110  0.65430  1.0000
  C   C506      1.0  0.89100  0.01890  0.15430  1.0000
  C   C507      1.0  0.39100  0.48110  0.84570  1.0000
  C   C508      1.0  0.10900  0.51890  0.34570  1.0000
  C   C509      1.0  0.65430  0.60900  0.98110  1.0000
  C   C510      1.0  0.15430  0.89100  0.01890  1.0000
  C   C511      1.0  0.84570  0.39100  0.48110  1.0000
  C   C512      1.0  0.34570  0.10900  0.51890  1.0000
  C   C513      1.0  0.98110  0.65430  0.60900  1.0000
  C   C514      1.0  0.01890  0.15430  0.89100  1.0000
  C   C515      1.0  0.48110  0.84570  0.39100  1.0000
  C   C516      1.0  0.51890  0.34570  0.10900  1.0000
  C   C517      1.0  0.23110  0.85900  0.90430  1.0000
  C   C518      1.0  0.26890  0.14100  0.40430  1.0000
  C   C519      1.0  0.73110  0.64100  0.09570  1.0000
  C   C520      1.0  0.76890  0.35900  0.59570  1.0000
  C   C521      1.0  0.85900  0.90430  0.23110  1.0000
  C   C522      1.0  0.14100  0.40430  0.26890  1.0000
  C   C523      1.0  0.64100  0.09570  0.73110  1.0000
  C   C524      1.0  0.35900  0.59570  0.76890  1.0000
  C   C525      1.0  0.90430  0.23110  0.85900  1.0000
  C   C526      1.0  0.40430  0.26890  0.14100  1.0000
  C   C527      1.0  0.09570  0.73110  0.64100  1.0000
  C   C528      1.0  0.59570  0.76890  0.35900  1.0000
  C   C529      1.0  0.06550  0.47960  0.16800  1.0000
  C   C530      1.0  0.43450  0.52040  0.66800  1.0000
  C   C531      1.0  0.93450  0.97960  0.33200  1.0000
  C   C532      1.0  0.56550  0.02040  0.83200  1.0000
  C   C533      1.0  0.16800  0.06550  0.47960  1.0000
  C   C534      1.0  0.66800  0.43450  0.52040  1.0000
  C   C535      1.0  0.33200  0.93450  0.97960  1.0000
  C   C536      1.0  0.83200  0.56550  0.02040  1.0000
  C   C537      1.0  0.47960  0.16800  0.06550  1.0000
  C   C538      1.0  0.52040  0.66800  0.43450  1.0000
  C   C539      1.0  0.97960  0.33200  0.93450  1.0000
  C   C540      1.0  0.02040  0.83200  0.56550  1.0000
  C   C541      1.0  0.72960  0.31550  0.41800  1.0000
  C   C542      1.0  0.77040  0.68450  0.91800  1.0000
  C   C543      1.0  0.22960  0.18450  0.58200  1.0000
  C   C544      1.0  0.27040  0.81550  0.08200  1.0000
  C   C545      1.0  0.31550  0.41800  0.72960  1.0000
  C   C546      1.0  0.68450  0.91800  0.77040  1.0000
  C   C547      1.0  0.18450  0.58200  0.22960  1.0000
  C   C548      1.0  0.81550  0.08200  0.27040  1.0000
  C   C549      1.0  0.41800  0.72960  0.31550  1.0000
  C   C550      1.0  0.91800  0.77040  0.68450  1.0000
  C   C551      1.0  0.58200  0.22960  0.18450  1.0000
  C   C552      1.0  0.08200  0.27040  0.81550  1.0000
  C   C553      1.0  0.56550  0.97960  0.66800  1.0000
  C   C554      1.0  0.93450  0.02040  0.16800  1.0000
  C   C555      1.0  0.43450  0.47960  0.83200  1.0000
  C   C556      1.0  0.06550  0.52040  0.33200  1.0000
  C   C557      1.0  0.66800  0.56550  0.97960  1.0000
  C   C558      1.0  0.16800  0.93450  0.02040  1.0000
  C   C559      1.0  0.83200  0.43450  0.47960  1.0000
  C   C560      1.0  0.33200  0.06550  0.52040  1.0000
  C   C561      1.0  0.97960  0.66800  0.56550  1.0000
  C   C562      1.0  0.02040  0.16800  0.93450  1.0000
  C   C563      1.0  0.47960  0.83200  0.43450  1.0000
  C   C564      1.0  0.52040  0.33200  0.06550  1.0000
  C   C565      1.0  0.22960  0.81550  0.91800  1.0000
  C   C566      1.0  0.27040  0.18450  0.41800  1.0000
  C   C567      1.0  0.72960  0.68450  0.08200  1.0000
  C   C568      1.0  0.77040  0.31550  0.58200  1.0000
  C   C569      1.0  0.81550  0.91800  0.22960  1.0000
  C   C570      1.0  0.18450  0.41800  0.27040  1.0000
  C   C571      1.0  0.68450  0.08200  0.72960  1.0000
  C   C572      1.0  0.31550  0.58200  0.77040  1.0000
  C   C573      1.0  0.91800  0.22960  0.81550  1.0000
  C   C574      1.0  0.41800  0.27040  0.18450  1.0000
  C   C575      1.0  0.08200  0.72960  0.68450  1.0000
  C   C576      1.0  0.58200  0.77040  0.31550  1.0000
  F   F1        1.0  0.05810  0.49834  0.00800  1.0000
  F   F2        1.0  0.44190  0.50166  0.50800  1.0000
  F   F3        1.0  0.94190  0.99834  0.49200  1.0000
  F   F4        1.0  0.55810  0.00166  0.99200  1.0000
  F   F5        1.0  0.00800  0.05810  0.49834  1.0000
  F   F6        1.0  0.50800  0.44190  0.50166  1.0000
  F   F7        1.0  0.49200  0.94190  0.99834  1.0000
  F   F8        1.0  0.99200  0.55810  0.00166  1.0000
  F   F9        1.0  0.49834  0.00800  0.05810  1.0000
  F   F10       1.0  0.50166  0.50800  0.44190  1.0000
  F   F11       1.0  0.99834  0.49200  0.94190  1.0000
  F   F12       1.0  0.00166  0.99200  0.55810  1.0000
  F   F13       1.0  0.74834  0.30810  0.25800  1.0000
  F   F14       1.0  0.75166  0.69190  0.75800  1.0000
  F   F15       1.0  0.24834  0.19190  0.74200  1.0000
  F   F16       1.0  0.25166  0.80810  0.24200  1.0000
  F   F17       1.0  0.30810  0.25800  0.74834  1.0000
  F   F18       1.0  0.69190  0.75800  0.75166  1.0000
  F   F19       1.0  0.19190  0.74200  0.24834  1.0000
  F   F20       1.0  0.80810  0.24200  0.25166  1.0000
  F   F21       1.0  0.25800  0.74834  0.30810  1.0000
  F   F22       1.0  0.75800  0.75166  0.69190  1.0000
  F   F23       1.0  0.74200  0.24834  0.19190  1.0000
  F   F24       1.0  0.24200  0.25166  0.80810  1.0000
  F   F25       1.0  0.55810  0.99834  0.50800  1.0000
  F   F26       1.0  0.94190  0.00166  0.00800  1.0000
  F   F27       1.0  0.44190  0.49834  0.99200  1.0000
  F   F28       1.0  0.05810  0.50166  0.49200  1.0000
  F   F29       1.0  0.50800  0.55810  0.99834  1.0000
  F   F30       1.0  0.00800  0.94190  0.00166  1.0000
  F   F31       1.0  0.99200  0.44190  0.49834  1.0000
  F   F32       1.0  0.49200  0.05810  0.50166  1.0000
  F   F33       1.0  0.99834  0.50800  0.55810  1.0000
  F   F34       1.0  0.00166  0.00800  0.94190  1.0000
  F   F35       1.0  0.49834  0.99200  0.44190  1.0000
  F   F36       1.0  0.50166  0.49200  0.05810  1.0000
  F   F37       1.0  0.24834  0.80810  0.75800  1.0000
  F   F38       1.0  0.25166  0.19190  0.25800  1.0000
  F   F39       1.0  0.74834  0.69190  0.24200  1.0000
  F   F40       1.0  0.75166  0.30810  0.74200  1.0000
  F   F41       1.0  0.80810  0.75800  0.24834  1.0000
  F   F42       1.0  0.19190  0.25800  0.25166  1.0000
  F   F43       1.0  0.69190  0.24200  0.74834  1.0000
  F   F44       1.0  0.30810  0.74200  0.75166  1.0000
  F   F45       1.0  0.75800  0.24834  0.80810  1.0000
  F   F46       1.0  0.25800  0.25166  0.19190  1.0000
  F   F47       1.0  0.24200  0.74834  0.69190  1.0000
  F   F48       1.0  0.74200  0.75166  0.30810  1.0000
  F   F49       1.0  0.10760  0.49571  0.04920  1.0000
  F   F50       1.0  0.39240  0.50429  0.54920  1.0000
  F   F51       1.0  0.89240  0.99571  0.45080  1.0000
  F   F52       1.0  0.60760  0.00429  0.95080  1.0000
  F   F53       1.0  0.04920  0.10760  0.49571  1.0000
  F   F54       1.0  0.54920  0.39240  0.50429  1.0000
  F   F55       1.0  0.45080  0.89240  0.99571  1.0000
  F   F56       1.0  0.95080  0.60760  0.00429  1.0000
  F   F57       1.0  0.49571  0.04920  0.10760  1.0000
  F   F58       1.0  0.50429  0.54920  0.39240  1.0000
  F   F59       1.0  0.99571  0.45080  0.89240  1.0000
  F   F60       1.0  0.00429  0.95080  0.60760  1.0000
  F   F61       1.0  0.74571  0.35760  0.29920  1.0000
  F   F62       1.0  0.75429  0.64240  0.79920  1.0000
  F   F63       1.0  0.24571  0.14240  0.70080  1.0000
  F   F64       1.0  0.25429  0.85760  0.20080  1.0000
  F   F65       1.0  0.35760  0.29920  0.74571  1.0000
  F   F66       1.0  0.64240  0.79920  0.75429  1.0000
  F   F67       1.0  0.14240  0.70080  0.24571  1.0000
  F   F68       1.0  0.85760  0.20080  0.25429  1.0000
  F   F69       1.0  0.29920  0.74571  0.35760  1.0000
  F   F70       1.0  0.79920  0.75429  0.64240  1.0000
  F   F71       1.0  0.70080  0.24571  0.14240  1.0000
  F   F72       1.0  0.20080  0.25429  0.85760  1.0000
  F   F73       1.0  0.60760  0.99571  0.54920  1.0000
  F   F74       1.0  0.89240  0.00429  0.04920  1.0000
  F   F75       1.0  0.39240  0.49571  0.95080  1.0000
  F   F76       1.0  0.10760  0.50429  0.45080  1.0000
  F   F77       1.0  0.54920  0.60760  0.99571  1.0000
  F   F78       1.0  0.04920  0.89240  0.00429  1.0000
  F   F79       1.0  0.95080  0.39240  0.49571  1.0000
  F   F80       1.0  0.45080  0.10760  0.50429  1.0000
  F   F81       1.0  0.99571  0.54920  0.60760  1.0000
  F   F82       1.0  0.00429  0.04920  0.89240  1.0000
  F   F83       1.0  0.49571  0.95080  0.39240  1.0000
  F   F84       1.0  0.50429  0.45080  0.10760  1.0000
  F   F85       1.0  0.24571  0.85760  0.79920  1.0000
  F   F86       1.0  0.25429  0.14240  0.29920  1.0000
  F   F87       1.0  0.74571  0.64240  0.20080  1.0000
  F   F88       1.0  0.75429  0.35760  0.70080  1.0000
  F   F89       1.0  0.85760  0.79920  0.24571  1.0000
  F   F90       1.0  0.14240  0.29920  0.25429  1.0000
  F   F91       1.0  0.64240  0.20080  0.74571  1.0000
  F   F92       1.0  0.35760  0.70080  0.75429  1.0000
  F   F93       1.0  0.79920  0.24571  0.85760  1.0000
  F   F94       1.0  0.29920  0.25429  0.14240  1.0000
  F   F95       1.0  0.20080  0.74571  0.64240  1.0000
  F   F96       1.0  0.70080  0.75429  0.35760  1.0000
  F   F97       1.0  0.05370  0.50657  0.06940  1.0000
  F   F98       1.0  0.44630  0.49343  0.56940  1.0000
  F   F99       1.0  0.94630  0.00657  0.43060  1.0000
  F   F100      1.0  0.55370  0.99343  0.93060  1.0000
  F   F101      1.0  0.06940  0.05370  0.50657  1.0000
  F   F102      1.0  0.56940  0.44630  0.49343  1.0000
  F   F103      1.0  0.43060  0.94630  0.00657  1.0000
  F   F104      1.0  0.93060  0.55370  0.99343  1.0000
  F   F105      1.0  0.50657  0.06940  0.05370  1.0000
  F   F106      1.0  0.49343  0.56940  0.44630  1.0000
  F   F107      1.0  0.00657  0.43060  0.94630  1.0000
  F   F108      1.0  0.99343  0.93060  0.55370  1.0000
  F   F109      1.0  0.75657  0.30370  0.31940  1.0000
  F   F110      1.0  0.74343  0.69630  0.81940  1.0000
  F   F111      1.0  0.25657  0.19630  0.68060  1.0000
  F   F112      1.0  0.24343  0.80370  0.18060  1.0000
  F   F113      1.0  0.30370  0.31940  0.75657  1.0000
  F   F114      1.0  0.69630  0.81940  0.74343  1.0000
  F   F115      1.0  0.19630  0.68060  0.25657  1.0000
  F   F116      1.0  0.80370  0.18060  0.24343  1.0000
  F   F117      1.0  0.31940  0.75657  0.30370  1.0000
  F   F118      1.0  0.81940  0.74343  0.69630  1.0000
  F   F119      1.0  0.68060  0.25657  0.19630  1.0000
  F   F120      1.0  0.18060  0.24343  0.80370  1.0000
  F   F121      1.0  0.55370  0.00657  0.56940  1.0000
  F   F122      1.0  0.94630  0.99343  0.06940  1.0000
  F   F123      1.0  0.44630  0.50657  0.93060  1.0000
  F   F124      1.0  0.05370  0.49343  0.43060  1.0000
  F   F125      1.0  0.56940  0.55370  0.00657  1.0000
  F   F126      1.0  0.06940  0.94630  0.99343  1.0000
  F   F127      1.0  0.93060  0.44630  0.50657  1.0000
  F   F128      1.0  0.43060  0.05370  0.49343  1.0000
  F   F129      1.0  0.00657  0.56940  0.55370  1.0000
  F   F130      1.0  0.99343  0.06940  0.94630  1.0000
  F   F131      1.0  0.50657  0.93060  0.44630  1.0000
  F   F132      1.0  0.49343  0.43060  0.05370  1.0000
  F   F133      1.0  0.25657  0.80370  0.81940  1.0000
  F   F134      1.0  0.24343  0.19630  0.31940  1.0000
  F   F135      1.0  0.75657  0.69630  0.18060  1.0000
  F   F136      1.0  0.74343  0.30370  0.68060  1.0000
  F   F137      1.0  0.80370  0.81940  0.25657  1.0000
  F   F138      1.0  0.19630  0.31940  0.24343  1.0000
  F   F139      1.0  0.69630  0.18060  0.75657  1.0000
  F   F140      1.0  0.30370  0.68060  0.74343  1.0000
  F   F141      1.0  0.81940  0.25657  0.80370  1.0000
  F   F142      1.0  0.31940  0.24343  0.19630  1.0000
  F   F143      1.0  0.18060  0.75657  0.69630  1.0000
  F   F144      1.0  0.68060  0.74343  0.30370  1.0000
  F   F145      1.0  0.06150  0.46670  0.20310  1.0000
  F   F146      1.0  0.43850  0.53330  0.70310  1.0000
  F   F147      1.0  0.93850  0.96670  0.29690  1.0000
  F   F148      1.0  0.56150  0.03330  0.79690  1.0000
  F   F149      1.0  0.20310  0.06150  0.46670  1.0000
  F   F150      1.0  0.70310  0.43850  0.53330  1.0000
  F   F151      1.0  0.29690  0.93850  0.96670  1.0000
  F   F152      1.0  0.79690  0.56150  0.03330  1.0000
  F   F153      1.0  0.46670  0.20310  0.06150  1.0000
  F   F154      1.0  0.53330  0.70310  0.43850  1.0000
  F   F155      1.0  0.96670  0.29690  0.93850  1.0000
  F   F156      1.0  0.03330  0.79690  0.56150  1.0000
  F   F157      1.0  0.71670  0.31150  0.45310  1.0000
  F   F158      1.0  0.78330  0.68850  0.95310  1.0000
  F   F159      1.0  0.21670  0.18850  0.54690  1.0000
  F   F160      1.0  0.28330  0.81150  0.04690  1.0000
  F   F161      1.0  0.31150  0.45310  0.71670  1.0000
  F   F162      1.0  0.68850  0.95310  0.78330  1.0000
  F   F163      1.0  0.18850  0.54690  0.21670  1.0000
  F   F164      1.0  0.81150  0.04690  0.28330  1.0000
  F   F165      1.0  0.45310  0.71670  0.31150  1.0000
  F   F166      1.0  0.95310  0.78330  0.68850  1.0000
  F   F167      1.0  0.54690  0.21670  0.18850  1.0000
  F   F168      1.0  0.04690  0.28330  0.81150  1.0000
  F   F169      1.0  0.56150  0.96670  0.70310  1.0000
  F   F170      1.0  0.93850  0.03330  0.20310  1.0000
  F   F171      1.0  0.43850  0.46670  0.79690  1.0000
  F   F172      1.0  0.06150  0.53330  0.29690  1.0000
  F   F173      1.0  0.70310  0.56150  0.96670  1.0000
  F   F174      1.0  0.20310  0.93850  0.03330  1.0000
  F   F175      1.0  0.79690  0.43850  0.46670  1.0000
  F   F176      1.0  0.29690  0.06150  0.53330  1.0000
  F   F177      1.0  0.96670  0.70310  0.56150  1.0000
  F   F178      1.0  0.03330  0.20310  0.93850  1.0000
  F   F179      1.0  0.46670  0.79690  0.43850  1.0000
  F   F180      1.0  0.53330  0.29690  0.06150  1.0000
  F   F181      1.0  0.21670  0.81150  0.95310  1.0000
  F   F182      1.0  0.28330  0.18850  0.45310  1.0000
  F   F183      1.0  0.71670  0.68850  0.04690  1.0000
  F   F184      1.0  0.78330  0.31150  0.54690  1.0000
  F   F185      1.0  0.81150  0.95310  0.21670  1.0000
  F   F186      1.0  0.18850  0.45310  0.28330  1.0000
  F   F187      1.0  0.68850  0.04690  0.71670  1.0000
  F   F188      1.0  0.31150  0.54690  0.78330  1.0000
  F   F189      1.0  0.95310  0.21670  0.81150  1.0000
  F   F190      1.0  0.45310  0.28330  0.18850  1.0000
  F   F191      1.0  0.04690  0.71670  0.68850  1.0000
  F   F192      1.0  0.54690  0.78330  0.31150  1.0000
  F   F193      1.0  0.04440  0.45480  0.14650  1.0000
  F   F194      1.0  0.45560  0.54520  0.64650  1.0000
  F   F195      1.0  0.95560  0.95480  0.35350  1.0000
  F   F196      1.0  0.54440  0.04520  0.85350  1.0000
  F   F197      1.0  0.14650  0.04440  0.45480  1.0000
  F   F198      1.0  0.64650  0.45560  0.54520  1.0000
  F   F199      1.0  0.35350  0.95560  0.95480  1.0000
  F   F200      1.0  0.85350  0.54440  0.04520  1.0000
  F   F201      1.0  0.45480  0.14650  0.04440  1.0000
  F   F202      1.0  0.54520  0.64650  0.45560  1.0000
  F   F203      1.0  0.95480  0.35350  0.95560  1.0000
  F   F204      1.0  0.04520  0.85350  0.54440  1.0000
  F   F205      1.0  0.70480  0.29440  0.39650  1.0000
  F   F206      1.0  0.79520  0.70560  0.89650  1.0000
  F   F207      1.0  0.20480  0.20560  0.60350  1.0000
  F   F208      1.0  0.29520  0.79440  0.10350  1.0000
  F   F209      1.0  0.29440  0.39650  0.70480  1.0000
  F   F210      1.0  0.70560  0.89650  0.79520  1.0000
  F   F211      1.0  0.20560  0.60350  0.20480  1.0000
  F   F212      1.0  0.79440  0.10350  0.29520  1.0000
  F   F213      1.0  0.39650  0.70480  0.29440  1.0000
  F   F214      1.0  0.89650  0.79520  0.70560  1.0000
  F   F215      1.0  0.60350  0.20480  0.20560  1.0000
  F   F216      1.0  0.10350  0.29520  0.79440  1.0000
  F   F217      1.0  0.54440  0.95480  0.64650  1.0000
  F   F218      1.0  0.95560  0.04520  0.14650  1.0000
  F   F219      1.0  0.45560  0.45480  0.85350  1.0000
  F   F220      1.0  0.04440  0.54520  0.35350  1.0000
  F   F221      1.0  0.64650  0.54440  0.95480  1.0000
  F   F222      1.0  0.14650  0.95560  0.04520  1.0000
  F   F223      1.0  0.85350  0.45560  0.45480  1.0000
  F   F224      1.0  0.35350  0.04440  0.54520  1.0000
  F   F225      1.0  0.95480  0.64650  0.54440  1.0000
  F   F226      1.0  0.04520  0.14650  0.95560  1.0000
  F   F227      1.0  0.45480  0.85350  0.45560  1.0000
  F   F228      1.0  0.54520  0.35350  0.04440  1.0000
  F   F229      1.0  0.20480  0.79440  0.89650  1.0000
  F   F230      1.0  0.29520  0.20560  0.39650  1.0000
  F   F231      1.0  0.70480  0.70560  0.10350  1.0000
  F   F232      1.0  0.79520  0.29440  0.60350  1.0000
  F   F233      1.0  0.79440  0.89650  0.20480  1.0000
  F   F234      1.0  0.20560  0.39650  0.29520  1.0000
  F   F235      1.0  0.70560  0.10350  0.70480  1.0000
  F   F236      1.0  0.29440  0.60350  0.79520  1.0000
  F   F237      1.0  0.89650  0.20480  0.79440  1.0000
  F   F238      1.0  0.39650  0.29520  0.20560  1.0000
  F   F239      1.0  0.10350  0.70480  0.70560  1.0000
  F   F240      1.0  0.60350  0.79520  0.29440  1.0000
  F   F241      1.0  0.04700  0.51360  0.16060  1.0000
  F   F242      1.0  0.45300  0.48640  0.66060  1.0000
  F   F243      1.0  0.95300  0.01360  0.33940  1.0000
  F   F244      1.0  0.54700  0.98640  0.83940  1.0000
  F   F245      1.0  0.16060  0.04700  0.51360  1.0000
  F   F246      1.0  0.66060  0.45300  0.48640  1.0000
  F   F247      1.0  0.33940  0.95300  0.01360  1.0000
  F   F248      1.0  0.83940  0.54700  0.98640  1.0000
  F   F249      1.0  0.51360  0.16060  0.04700  1.0000
  F   F250      1.0  0.48640  0.66060  0.45300  1.0000
  F   F251      1.0  0.01360  0.33940  0.95300  1.0000
  F   F252      1.0  0.98640  0.83940  0.54700  1.0000
  F   F253      1.0  0.76360  0.29700  0.41060  1.0000
  F   F254      1.0  0.73640  0.70300  0.91060  1.0000
  F   F255      1.0  0.26360  0.20300  0.58940  1.0000
  F   F256      1.0  0.23640  0.79700  0.08940  1.0000
  F   F257      1.0  0.29700  0.41060  0.76360  1.0000
  F   F258      1.0  0.70300  0.91060  0.73640  1.0000
  F   F259      1.0  0.20300  0.58940  0.26360  1.0000
  F   F260      1.0  0.79700  0.08940  0.23640  1.0000
  F   F261      1.0  0.41060  0.76360  0.29700  1.0000
  F   F262      1.0  0.91060  0.73640  0.70300  1.0000
  F   F263      1.0  0.58940  0.26360  0.20300  1.0000
  F   F264      1.0  0.08940  0.23640  0.79700  1.0000
  F   F265      1.0  0.54700  0.01360  0.66060  1.0000
  F   F266      1.0  0.95300  0.98640  0.16060  1.0000
  F   F267      1.0  0.45300  0.51360  0.83940  1.0000
  F   F268      1.0  0.04700  0.48640  0.33940  1.0000
  F   F269      1.0  0.66060  0.54700  0.01360  1.0000
  F   F270      1.0  0.16060  0.95300  0.98640  1.0000
  F   F271      1.0  0.83940  0.45300  0.51360  1.0000
  F   F272      1.0  0.33940  0.04700  0.48640  1.0000
  F   F273      1.0  0.01360  0.66060  0.54700  1.0000
  F   F274      1.0  0.98640  0.16060  0.95300  1.0000
  F   F275      1.0  0.51360  0.83940  0.45300  1.0000
  F   F276      1.0  0.48640  0.33940  0.04700  1.0000
  F   F277      1.0  0.26360  0.79700  0.91060  1.0000
  F   F278      1.0  0.23640  0.20300  0.41060  1.0000
  F   F279      1.0  0.76360  0.70300  0.08940  1.0000
  F   F280      1.0  0.73640  0.29700  0.58940  1.0000
  F   F281      1.0  0.79700  0.91060  0.26360  1.0000
  F   F282      1.0  0.20300  0.41060  0.23640  1.0000
  F   F283      1.0  0.70300  0.08940  0.76360  1.0000
  F   F284      1.0  0.29700  0.58940  0.73640  1.0000
  F   F285      1.0  0.91060  0.26360  0.79700  1.0000
  F   F286      1.0  0.41060  0.23640  0.20300  1.0000
  F   F287      1.0  0.08940  0.76360  0.70300  1.0000
  F   F288      1.0  0.58940  0.73640  0.29700  1.0000
  Mn  Mn1       1.0  0.11722  0.57911  0.12967  1.0000
  Mn  Mn2       1.0  0.38278  0.42089  0.62967  1.0000
  Mn  Mn3       1.0  0.88278  0.07911  0.37033  1.0000
  Mn  Mn4       1.0  0.61722  0.92089  0.87033  1.0000
  Mn  Mn5       1.0  0.12967  0.11722  0.57911  1.0000
  Mn  Mn6       1.0  0.62967  0.38278  0.42089  1.0000
  Mn  Mn7       1.0  0.37033  0.88278  0.07911  1.0000
  Mn  Mn8       1.0  0.87033  0.61722  0.92089  1.0000
  Mn  Mn9       1.0  0.57911  0.12967  0.11722  1.0000
  Mn  Mn10      1.0  0.42089  0.62967  0.38278  1.0000
  Mn  Mn11      1.0  0.07911  0.37033  0.88278  1.0000
  Mn  Mn12      1.0  0.92089  0.87033  0.61722  1.0000
  Mn  Mn13      1.0  0.82911  0.36722  0.37967  1.0000
  Mn  Mn14      1.0  0.67089  0.63278  0.87967  1.0000
  Mn  Mn15      1.0  0.32911  0.13278  0.62033  1.0000
  Mn  Mn16      1.0  0.17089  0.86722  0.12033  1.0000
  Mn  Mn17      1.0  0.36722  0.37967  0.82911  1.0000
  Mn  Mn18      1.0  0.63278  0.87967  0.67089  1.0000
  Mn  Mn19      1.0  0.13278  0.62033  0.32911  1.0000
  Mn  Mn20      1.0  0.86722  0.12033  0.17089  1.0000
  Mn  Mn21      1.0  0.37967  0.82911  0.36722  1.0000
  Mn  Mn22      1.0  0.87967  0.67089  0.63278  1.0000
  Mn  Mn23      1.0  0.62033  0.32911  0.13278  1.0000
  Mn  Mn24      1.0  0.12033  0.17089  0.86722  1.0000
  Mn  Mn25      1.0  0.61722  0.07911  0.62967  1.0000
  Mn  Mn26      1.0  0.88278  0.92089  0.12967  1.0000
  Mn  Mn27      1.0  0.38278  0.57911  0.87033  1.0000
  Mn  Mn28      1.0  0.11722  0.42089  0.37033  1.0000
  Mn  Mn29      1.0  0.62967  0.61722  0.07911  1.0000
  Mn  Mn30      1.0  0.12967  0.88278  0.92089  1.0000
  Mn  Mn31      1.0  0.87033  0.38278  0.57911  1.0000
  Mn  Mn32      1.0  0.37033  0.11722  0.42089  1.0000
  Mn  Mn33      1.0  0.07911  0.62967  0.61722  1.0000
  Mn  Mn34      1.0  0.92089  0.12967  0.88278  1.0000
  Mn  Mn35      1.0  0.57911  0.87033  0.38278  1.0000
  Mn  Mn36      1.0  0.42089  0.37033  0.11722  1.0000
  Mn  Mn37      1.0  0.32911  0.86722  0.87967  1.0000
  Mn  Mn38      1.0  0.17089  0.13278  0.37967  1.0000
  Mn  Mn39      1.0  0.82911  0.63278  0.12033  1.0000
  Mn  Mn40      1.0  0.67089  0.36722  0.62033  1.0000
  Mn  Mn41      1.0  0.86722  0.87967  0.32911  1.0000
  Mn  Mn42      1.0  0.13278  0.37967  0.17089  1.0000
  Mn  Mn43      1.0  0.63278  0.12033  0.82911  1.0000
  Mn  Mn44      1.0  0.36722  0.62033  0.67089  1.0000
  Mn  Mn45      1.0  0.87967  0.32911  0.86722  1.0000
  Mn  Mn46      1.0  0.37967  0.17089  0.13278  1.0000
  Mn  Mn47      1.0  0.12033  0.82911  0.63278  1.0000
  Mn  Mn48      1.0  0.62033  0.67089  0.36722  1.0000
  Mn  Mn49      1.0  0.06778  0.56778  0.93222  1.0000
  Mn  Mn50      1.0  0.43222  0.43222  0.43222  1.0000
  Mn  Mn51      1.0  0.93222  0.06778  0.56778  1.0000
  Mn  Mn52      1.0  0.56778  0.93222  0.06778  1.0000
  Mn  Mn53      1.0  0.81778  0.31778  0.18222  1.0000
  Mn  Mn54      1.0  0.68222  0.68222  0.68222  1.0000
  Mn  Mn55      1.0  0.31778  0.18222  0.81778  1.0000
  Mn  Mn56      1.0  0.18222  0.81778  0.31778  1.0000
  Mn  Mn57      1.0  0.56778  0.06778  0.43222  1.0000
  Mn  Mn58      1.0  0.93222  0.93222  0.93222  1.0000
  Mn  Mn59      1.0  0.43222  0.56778  0.06778  1.0000
  Mn  Mn60      1.0  0.06778  0.43222  0.56778  1.0000
  Mn  Mn61      1.0  0.31778  0.81778  0.68222  1.0000
  Mn  Mn62      1.0  0.18222  0.18222  0.18222  1.0000
  Mn  Mn63      1.0  0.81778  0.68222  0.31778  1.0000
  Mn  Mn64      1.0  0.68222  0.31778  0.81778  1.0000
  Mn  Mn65      1.0  0.10248  0.72850  0.01999  1.0000
  Mn  Mn66      1.0  0.39752  0.27150  0.51999  1.0000
  Mn  Mn67      1.0  0.89752  0.22850  0.48001  1.0000
  Mn  Mn68      1.0  0.60248  0.77150  0.98001  1.0000
  Mn  Mn69      1.0  0.01999  0.10248  0.72850  1.0000
  Mn  Mn70      1.0  0.51999  0.39752  0.27150  1.0000
  Mn  Mn71      1.0  0.48001  0.89752  0.22850  1.0000
  Mn  Mn72      1.0  0.98001  0.60248  0.77150  1.0000
  Mn  Mn73      1.0  0.72850  0.01999  0.10248  1.0000
  Mn  Mn74      1.0  0.27150  0.51999  0.39752  1.0000
  Mn  Mn75      1.0  0.22850  0.48001  0.89752  1.0000
  Mn  Mn76      1.0  0.77150  0.98001  0.60248  1.0000
  Mn  Mn77      1.0  0.97850  0.35248  0.26999  1.0000
  Mn  Mn78      1.0  0.52150  0.64752  0.76999  1.0000
  Mn  Mn79      1.0  0.47850  0.14752  0.73001  1.0000
  Mn  Mn80      1.0  0.02150  0.85248  0.23001  1.0000
  Mn  Mn81      1.0  0.35248  0.26999  0.97850  1.0000
  Mn  Mn82      1.0  0.64752  0.76999  0.52150  1.0000
  Mn  Mn83      1.0  0.14752  0.73001  0.47850  1.0000
  Mn  Mn84      1.0  0.85248  0.23001  0.02150  1.0000
  Mn  Mn85      1.0  0.26999  0.97850  0.35248  1.0000
  Mn  Mn86      1.0  0.76999  0.52150  0.64752  1.0000
  Mn  Mn87      1.0  0.73001  0.47850  0.14752  1.0000
  Mn  Mn88      1.0  0.23001  0.02150  0.85248  1.0000
  Mn  Mn89      1.0  0.60248  0.22850  0.51999  1.0000
  Mn  Mn90      1.0  0.89752  0.77150  0.01999  1.0000
  Mn  Mn91      1.0  0.39752  0.72850  0.98001  1.0000
  Mn  Mn92      1.0  0.10248  0.27150  0.48001  1.0000
  Mn  Mn93      1.0  0.51999  0.60248  0.22850  1.0000
  Mn  Mn94      1.0  0.01999  0.89752  0.77150  1.0000
  Mn  Mn95      1.0  0.98001  0.39752  0.72850  1.0000
  Mn  Mn96      1.0  0.48001  0.10248  0.27150  1.0000
  Mn  Mn97      1.0  0.22850  0.51999  0.60248  1.0000
  Mn  Mn98      1.0  0.77150  0.01999  0.89752  1.0000
  Mn  Mn99      1.0  0.72850  0.98001  0.39752  1.0000
  Mn  Mn100     1.0  0.27150  0.48001  0.10248  1.0000
  Mn  Mn101     1.0  0.47850  0.85248  0.76999  1.0000
  Mn  Mn102     1.0  0.02150  0.14752  0.26999  1.0000
  Mn  Mn103     1.0  0.97850  0.64752  0.23001  1.0000
  Mn  Mn104     1.0  0.52150  0.35248  0.73001  1.0000
  Mn  Mn105     1.0  0.85248  0.76999  0.47850  1.0000
  Mn  Mn106     1.0  0.14752  0.26999  0.02150  1.0000
  Mn  Mn107     1.0  0.64752  0.23001  0.97850  1.0000
  Mn  Mn108     1.0  0.35248  0.73001  0.52150  1.0000
  Mn  Mn109     1.0  0.76999  0.47850  0.85248  1.0000
  Mn  Mn110     1.0  0.26999  0.02150  0.14752  1.0000
  Mn  Mn111     1.0  0.23001  0.97850  0.64752  1.0000
  Mn  Mn112     1.0  0.73001  0.52150  0.35248  1.0000
  N   N1        1.0  0.09700  0.58080  0.06330  1.0000
  N   N2        1.0  0.40300  0.41920  0.56330  1.0000
  N   N3        1.0  0.90300  0.08080  0.43670  1.0000
  N   N4        1.0  0.59700  0.91920  0.93670  1.0000
  N   N5        1.0  0.06330  0.09700  0.58080  1.0000
  N   N6        1.0  0.56330  0.40300  0.41920  1.0000
  N   N7        1.0  0.43670  0.90300  0.08080  1.0000
  N   N8        1.0  0.93670  0.59700  0.91920  1.0000
  N   N9        1.0  0.58080  0.06330  0.09700  1.0000
  N   N10       1.0  0.41920  0.56330  0.40300  1.0000
  N   N11       1.0  0.08080  0.43670  0.90300  1.0000
  N   N12       1.0  0.91920  0.93670  0.59700  1.0000
  N   N13       1.0  0.83080  0.34700  0.31330  1.0000
  N   N14       1.0  0.66920  0.65300  0.81330  1.0000
  N   N15       1.0  0.33080  0.15300  0.68670  1.0000
  N   N16       1.0  0.16920  0.84700  0.18670  1.0000
  N   N17       1.0  0.34700  0.31330  0.83080  1.0000
  N   N18       1.0  0.65300  0.81330  0.66920  1.0000
  N   N19       1.0  0.15300  0.68670  0.33080  1.0000
  N   N20       1.0  0.84700  0.18670  0.16920  1.0000
  N   N21       1.0  0.31330  0.83080  0.34700  1.0000
  N   N22       1.0  0.81330  0.66920  0.65300  1.0000
  N   N23       1.0  0.68670  0.33080  0.15300  1.0000
  N   N24       1.0  0.18670  0.16920  0.84700  1.0000
  N   N25       1.0  0.59700  0.08080  0.56330  1.0000
  N   N26       1.0  0.90300  0.91920  0.06330  1.0000
  N   N27       1.0  0.40300  0.58080  0.93670  1.0000
  N   N28       1.0  0.09700  0.41920  0.43670  1.0000
  N   N29       1.0  0.56330  0.59700  0.08080  1.0000
  N   N30       1.0  0.06330  0.90300  0.91920  1.0000
  N   N31       1.0  0.93670  0.40300  0.58080  1.0000
  N   N32       1.0  0.43670  0.09700  0.41920  1.0000
  N   N33       1.0  0.08080  0.56330  0.59700  1.0000
  N   N34       1.0  0.91920  0.06330  0.90300  1.0000
  N   N35       1.0  0.58080  0.93670  0.40300  1.0000
  N   N36       1.0  0.41920  0.43670  0.09700  1.0000
  N   N37       1.0  0.33080  0.84700  0.81330  1.0000
  N   N38       1.0  0.16920  0.15300  0.31330  1.0000
  N   N39       1.0  0.83080  0.65300  0.18670  1.0000
  N   N40       1.0  0.66920  0.34700  0.68670  1.0000
  N   N41       1.0  0.84700  0.81330  0.33080  1.0000
  N   N42       1.0  0.15300  0.31330  0.16920  1.0000
  N   N43       1.0  0.65300  0.18670  0.83080  1.0000
  N   N44       1.0  0.34700  0.68670  0.66920  1.0000
  N   N45       1.0  0.81330  0.33080  0.84700  1.0000
  N   N46       1.0  0.31330  0.16920  0.15300  1.0000
  N   N47       1.0  0.18670  0.83080  0.65300  1.0000
  N   N48       1.0  0.68670  0.66920  0.34700  1.0000
  N   N49       1.0  0.08009  0.57749  0.99680  1.0000
  N   N50       1.0  0.41991  0.42251  0.49680  1.0000
  N   N51       1.0  0.91991  0.07749  0.50320  1.0000
  N   N52       1.0  0.58009  0.92251  0.00320  1.0000
  N   N53       1.0  0.99680  0.08009  0.57749  1.0000
  N   N54       1.0  0.49680  0.41991  0.42251  1.0000
  N   N55       1.0  0.50320  0.91991  0.07749  1.0000
  N   N56       1.0  0.00320  0.58009  0.92251  1.0000
  N   N57       1.0  0.57749  0.99680  0.08009  1.0000
  N   N58       1.0  0.42251  0.49680  0.41991  1.0000
  N   N59       1.0  0.07749  0.50320  0.91991  1.0000
  N   N60       1.0  0.92251  0.00320  0.58009  1.0000
  N   N61       1.0  0.82749  0.33009  0.24680  1.0000
  N   N62       1.0  0.67251  0.66991  0.74680  1.0000
  N   N63       1.0  0.32749  0.16991  0.75320  1.0000
  N   N64       1.0  0.17251  0.83009  0.25320  1.0000
  N   N65       1.0  0.33009  0.24680  0.82749  1.0000
  N   N66       1.0  0.66991  0.74680  0.67251  1.0000
  N   N67       1.0  0.16991  0.75320  0.32749  1.0000
  N   N68       1.0  0.83009  0.25320  0.17251  1.0000
  N   N69       1.0  0.24680  0.82749  0.33009  1.0000
  N   N70       1.0  0.74680  0.67251  0.66991  1.0000
  N   N71       1.0  0.75320  0.32749  0.16991  1.0000
  N   N72       1.0  0.25320  0.17251  0.83009  1.0000
  N   N73       1.0  0.58009  0.07749  0.49680  1.0000
  N   N74       1.0  0.91991  0.92251  0.99680  1.0000
  N   N75       1.0  0.41991  0.57749  0.00320  1.0000
  N   N76       1.0  0.08009  0.42251  0.50320  1.0000
  N   N77       1.0  0.49680  0.58009  0.07749  1.0000
  N   N78       1.0  0.99680  0.91991  0.92251  1.0000
  N   N79       1.0  0.00320  0.41991  0.57749  1.0000
  N   N80       1.0  0.50320  0.08009  0.42251  1.0000
  N   N81       1.0  0.07749  0.49680  0.58009  1.0000
  N   N82       1.0  0.92251  0.99680  0.91991  1.0000
  N   N83       1.0  0.57749  0.00320  0.41991  1.0000
  N   N84       1.0  0.42251  0.50320  0.08009  1.0000
  N   N85       1.0  0.32749  0.83009  0.74680  1.0000
  N   N86       1.0  0.17251  0.16991  0.24680  1.0000
  N   N87       1.0  0.82749  0.66991  0.25320  1.0000
  N   N88       1.0  0.67251  0.33009  0.75320  1.0000
  N   N89       1.0  0.83009  0.74680  0.32749  1.0000
  N   N90       1.0  0.16991  0.24680  0.17251  1.0000
  N   N91       1.0  0.66991  0.25320  0.82749  1.0000
  N   N92       1.0  0.33009  0.75320  0.67251  1.0000
  N   N93       1.0  0.74680  0.32749  0.83009  1.0000
  N   N94       1.0  0.24680  0.17251  0.16991  1.0000
  N   N95       1.0  0.25320  0.82749  0.66991  1.0000
  N   N96       1.0  0.75320  0.67251  0.33009  1.0000
  N   N97       1.0  0.12690  0.51410  0.14031  1.0000
  N   N98       1.0  0.37310  0.48590  0.64031  1.0000
  N   N99       1.0  0.87310  0.01410  0.35969  1.0000
  N   N100      1.0  0.62690  0.98590  0.85969  1.0000
  N   N101      1.0  0.14031  0.12690  0.51410  1.0000
  N   N102      1.0  0.64031  0.37310  0.48590  1.0000
  N   N103      1.0  0.35969  0.87310  0.01410  1.0000
  N   N104      1.0  0.85969  0.62690  0.98590  1.0000
  N   N105      1.0  0.51410  0.14031  0.12690  1.0000
  N   N106      1.0  0.48590  0.64031  0.37310  1.0000
  N   N107      1.0  0.01410  0.35969  0.87310  1.0000
  N   N108      1.0  0.98590  0.85969  0.62690  1.0000
  N   N109      1.0  0.76410  0.37690  0.39031  1.0000
  N   N110      1.0  0.73590  0.62310  0.89031  1.0000
  N   N111      1.0  0.26410  0.12310  0.60969  1.0000
  N   N112      1.0  0.23590  0.87690  0.10969  1.0000
  N   N113      1.0  0.37690  0.39031  0.76410  1.0000
  N   N114      1.0  0.62310  0.89031  0.73590  1.0000
  N   N115      1.0  0.12310  0.60969  0.26410  1.0000
  N   N116      1.0  0.87690  0.10969  0.23590  1.0000
  N   N117      1.0  0.39031  0.76410  0.37690  1.0000
  N   N118      1.0  0.89031  0.73590  0.62310  1.0000
  N   N119      1.0  0.60969  0.26410  0.12310  1.0000
  N   N120      1.0  0.10969  0.23590  0.87690  1.0000
  N   N121      1.0  0.62690  0.01410  0.64031  1.0000
  N   N122      1.0  0.87310  0.98590  0.14031  1.0000
  N   N123      1.0  0.37310  0.51410  0.85969  1.0000
  N   N124      1.0  0.12690  0.48590  0.35969  1.0000
  N   N125      1.0  0.64031  0.62690  0.01410  1.0000
  N   N126      1.0  0.14031  0.87310  0.98590  1.0000
  N   N127      1.0  0.85969  0.37310  0.51410  1.0000
  N   N128      1.0  0.35969  0.12690  0.48590  1.0000
  N   N129      1.0  0.01410  0.64031  0.62690  1.0000
  N   N130      1.0  0.98590  0.14031  0.87310  1.0000
  N   N131      1.0  0.51410  0.85969  0.37310  1.0000
  N   N132      1.0  0.48590  0.35969  0.12690  1.0000
  N   N133      1.0  0.26410  0.87690  0.89031  1.0000
  N   N134      1.0  0.23590  0.12310  0.39031  1.0000
  N   N135      1.0  0.76410  0.62310  0.10969  1.0000
  N   N136      1.0  0.73590  0.37690  0.60969  1.0000
  N   N137      1.0  0.87690  0.89031  0.26410  1.0000
  N   N138      1.0  0.12310  0.39031  0.23590  1.0000
  N   N139      1.0  0.62310  0.10969  0.76410  1.0000
  N   N140      1.0  0.37690  0.60969  0.73590  1.0000
  N   N141      1.0  0.89031  0.26410  0.87690  1.0000
  N   N142      1.0  0.39031  0.23590  0.12310  1.0000
  N   N143      1.0  0.10969  0.76410  0.62310  1.0000
  N   N144      1.0  0.60969  0.73590  0.37690  1.0000
  N   N145      1.0  0.13090  0.44560  0.15320  1.0000
  N   N146      1.0  0.36910  0.55440  0.65320  1.0000
  N   N147      1.0  0.86910  0.94560  0.34680  1.0000
  N   N148      1.0  0.63090  0.05440  0.84680  1.0000
  N   N149      1.0  0.15320  0.13090  0.44560  1.0000
  N   N150      1.0  0.65320  0.36910  0.55440  1.0000
  N   N151      1.0  0.34680  0.86910  0.94560  1.0000
  N   N152      1.0  0.84680  0.63090  0.05440  1.0000
  N   N153      1.0  0.44560  0.15320  0.13090  1.0000
  N   N154      1.0  0.55440  0.65320  0.36910  1.0000
  N   N155      1.0  0.94560  0.34680  0.86910  1.0000
  N   N156      1.0  0.05440  0.84680  0.63090  1.0000
  N   N157      1.0  0.69560  0.38090  0.40320  1.0000
  N   N158      1.0  0.80440  0.61910  0.90320  1.0000
  N   N159      1.0  0.19560  0.11910  0.59680  1.0000
  N   N160      1.0  0.30440  0.88090  0.09680  1.0000
  N   N161      1.0  0.38090  0.40320  0.69560  1.0000
  N   N162      1.0  0.61910  0.90320  0.80440  1.0000
  N   N163      1.0  0.11910  0.59680  0.19560  1.0000
  N   N164      1.0  0.88090  0.09680  0.30440  1.0000
  N   N165      1.0  0.40320  0.69560  0.38090  1.0000
  N   N166      1.0  0.90320  0.80440  0.61910  1.0000
  N   N167      1.0  0.59680  0.19560  0.11910  1.0000
  N   N168      1.0  0.09680  0.30440  0.88090  1.0000
  N   N169      1.0  0.63090  0.94560  0.65320  1.0000
  N   N170      1.0  0.86910  0.05440  0.15320  1.0000
  N   N171      1.0  0.36910  0.44560  0.84680  1.0000
  N   N172      1.0  0.13090  0.55440  0.34680  1.0000
  N   N173      1.0  0.65320  0.63090  0.94560  1.0000
  N   N174      1.0  0.15320  0.86910  0.05440  1.0000
  N   N175      1.0  0.84680  0.36910  0.44560  1.0000
  N   N176      1.0  0.34680  0.13090  0.55440  1.0000
  N   N177      1.0  0.94560  0.65320  0.63090  1.0000
  N   N178      1.0  0.05440  0.15320  0.86910  1.0000
  N   N179      1.0  0.44560  0.84680  0.36910  1.0000
  N   N180      1.0  0.55440  0.34680  0.13090  1.0000
  N   N181      1.0  0.19560  0.88090  0.90320  1.0000
  N   N182      1.0  0.30440  0.11910  0.40320  1.0000
  N   N183      1.0  0.69560  0.61910  0.09680  1.0000
  N   N184      1.0  0.80440  0.38090  0.59680  1.0000
  N   N185      1.0  0.88090  0.90320  0.19560  1.0000
  N   N186      1.0  0.11910  0.40320  0.30440  1.0000
  N   N187      1.0  0.61910  0.09680  0.69560  1.0000
  N   N188      1.0  0.38090  0.59680  0.80440  1.0000
  N   N189      1.0  0.90320  0.19560  0.88090  1.0000
  N   N190      1.0  0.40320  0.30440  0.11910  1.0000
  N   N191      1.0  0.09680  0.69560  0.61910  1.0000
  N   N192      1.0  0.59680  0.80440  0.38090  1.0000
  O   O1        1.0  0.12830  0.64100  0.10942  1.0000
  O   O2        1.0  0.37170  0.35900  0.60942  1.0000
  O   O3        1.0  0.87170  0.14100  0.39058  1.0000
  O   O4        1.0  0.62830  0.85900  0.89058  1.0000
  O   O5        1.0  0.10942  0.12830  0.64100  1.0000
  O   O6        1.0  0.60942  0.37170  0.35900  1.0000
  O   O7        1.0  0.39058  0.87170  0.14100  1.0000
  O   O8        1.0  0.89058  0.62830  0.85900  1.0000
  O   O9        1.0  0.64100  0.10942  0.12830  1.0000
  O   O10       1.0  0.35900  0.60942  0.37170  1.0000
  O   O11       1.0  0.14100  0.39058  0.87170  1.0000
  O   O12       1.0  0.85900  0.89058  0.62830  1.0000
  O   O13       1.0  0.89100  0.37830  0.35942  1.0000
  O   O14       1.0  0.60900  0.62170  0.85942  1.0000
  O   O15       1.0  0.39100  0.12170  0.64058  1.0000
  O   O16       1.0  0.10900  0.87830  0.14058  1.0000
  O   O17       1.0  0.37830  0.35942  0.89100  1.0000
  O   O18       1.0  0.62170  0.85942  0.60900  1.0000
  O   O19       1.0  0.12170  0.64058  0.39100  1.0000
  O   O20       1.0  0.87830  0.14058  0.10900  1.0000
  O   O21       1.0  0.35942  0.89100  0.37830  1.0000
  O   O22       1.0  0.85942  0.60900  0.62170  1.0000
  O   O23       1.0  0.64058  0.39100  0.12170  1.0000
  O   O24       1.0  0.14058  0.10900  0.87830  1.0000
  O   O25       1.0  0.62830  0.14100  0.60942  1.0000
  O   O26       1.0  0.87170  0.85900  0.10942  1.0000
  O   O27       1.0  0.37170  0.64100  0.89058  1.0000
  O   O28       1.0  0.12830  0.35900  0.39058  1.0000
  O   O29       1.0  0.60942  0.62830  0.14100  1.0000
  O   O30       1.0  0.10942  0.87170  0.85900  1.0000
  O   O31       1.0  0.89058  0.37170  0.64100  1.0000
  O   O32       1.0  0.39058  0.12830  0.35900  1.0000
  O   O33       1.0  0.14100  0.60942  0.62830  1.0000
  O   O34       1.0  0.85900  0.10942  0.87170  1.0000
  O   O35       1.0  0.64100  0.89058  0.37170  1.0000
  O   O36       1.0  0.35900  0.39058  0.12830  1.0000
  O   O37       1.0  0.39100  0.87830  0.85942  1.0000
  O   O38       1.0  0.10900  0.12170  0.35942  1.0000
  O   O39       1.0  0.89100  0.62170  0.14058  1.0000
  O   O40       1.0  0.60900  0.37830  0.64058  1.0000
  O   O41       1.0  0.87830  0.85942  0.39100  1.0000
  O   O42       1.0  0.12170  0.35942  0.10900  1.0000
  O   O43       1.0  0.62170  0.14058  0.89100  1.0000
  O   O44       1.0  0.37830  0.64058  0.60900  1.0000
  O   O45       1.0  0.85942  0.39100  0.87830  1.0000
  O   O46       1.0  0.35942  0.10900  0.12170  1.0000
  O   O47       1.0  0.14058  0.89100  0.62170  1.0000
  O   O48       1.0  0.64058  0.60900  0.37830  1.0000
  O   O49       1.0  0.11550  0.68850  0.06390  1.0000
  O   O50       1.0  0.38450  0.31150  0.56390  1.0000
  O   O51       1.0  0.88450  0.18850  0.43610  1.0000
  O   O52       1.0  0.61550  0.81150  0.93610  1.0000
  O   O53       1.0  0.06390  0.11550  0.68850  1.0000
  O   O54       1.0  0.56390  0.38450  0.31150  1.0000
  O   O55       1.0  0.43610  0.88450  0.18850  1.0000
  O   O56       1.0  0.93610  0.61550  0.81150  1.0000
  O   O57       1.0  0.68850  0.06390  0.11550  1.0000
  O   O58       1.0  0.31150  0.56390  0.38450  1.0000
  O   O59       1.0  0.18850  0.43610  0.88450  1.0000
  O   O60       1.0  0.81150  0.93610  0.61550  1.0000
  O   O61       1.0  0.93850  0.36550  0.31390  1.0000
  O   O62       1.0  0.56150  0.63450  0.81390  1.0000
  O   O63       1.0  0.43850  0.13450  0.68610  1.0000
  O   O64       1.0  0.06150  0.86550  0.18610  1.0000
  O   O65       1.0  0.36550  0.31390  0.93850  1.0000
  O   O66       1.0  0.63450  0.81390  0.56150  1.0000
  O   O67       1.0  0.13450  0.68610  0.43850  1.0000
  O   O68       1.0  0.86550  0.18610  0.06150  1.0000
  O   O69       1.0  0.31390  0.93850  0.36550  1.0000
  O   O70       1.0  0.81390  0.56150  0.63450  1.0000
  O   O71       1.0  0.68610  0.43850  0.13450  1.0000
  O   O72       1.0  0.18610  0.06150  0.86550  1.0000
  O   O73       1.0  0.61550  0.18850  0.56390  1.0000
  O   O74       1.0  0.88450  0.81150  0.06390  1.0000
  O   O75       1.0  0.38450  0.68850  0.93610  1.0000
  O   O76       1.0  0.11550  0.31150  0.43610  1.0000
  O   O77       1.0  0.56390  0.61550  0.18850  1.0000
  O   O78       1.0  0.06390  0.88450  0.81150  1.0000
  O   O79       1.0  0.93610  0.38450  0.68850  1.0000
  O   O80       1.0  0.43610  0.11550  0.31150  1.0000
  O   O81       1.0  0.18850  0.56390  0.61550  1.0000
  O   O82       1.0  0.81150  0.06390  0.88450  1.0000
  O   O83       1.0  0.68850  0.93610  0.38450  1.0000
  O   O84       1.0  0.31150  0.43610  0.11550  1.0000
  O   O85       1.0  0.43850  0.86550  0.81390  1.0000
  O   O86       1.0  0.06150  0.13450  0.31390  1.0000
  O   O87       1.0  0.93850  0.63450  0.18610  1.0000
  O   O88       1.0  0.56150  0.36550  0.68610  1.0000
  O   O89       1.0  0.86550  0.81390  0.43850  1.0000
  O   O90       1.0  0.13450  0.31390  0.06150  1.0000
  O   O91       1.0  0.63450  0.18610  0.93850  1.0000
  O   O92       1.0  0.36550  0.68610  0.56150  1.0000
  O   O93       1.0  0.81390  0.43850  0.86550  1.0000
  O   O94       1.0  0.31390  0.06150  0.13450  1.0000
  O   O95       1.0  0.18610  0.93850  0.63450  1.0000
  O   O96       1.0  0.68610  0.56150  0.36550  1.0000
  O   O97       1.0  0.09430  0.68320  0.97940  1.0000
  O   O98       1.0  0.40570  0.31680  0.47940  1.0000
  O   O99       1.0  0.90570  0.18320  0.52060  1.0000
  O   O100      1.0  0.59430  0.81680  0.02060  1.0000
  O   O101      1.0  0.97940  0.09430  0.68320  1.0000
  O   O102      1.0  0.47940  0.40570  0.31680  1.0000
  O   O103      1.0  0.52060  0.90570  0.18320  1.0000
  O   O104      1.0  0.02060  0.59430  0.81680  1.0000
  O   O105      1.0  0.68320  0.97940  0.09430  1.0000
  O   O106      1.0  0.31680  0.47940  0.40570  1.0000
  O   O107      1.0  0.18320  0.52060  0.90570  1.0000
  O   O108      1.0  0.81680  0.02060  0.59430  1.0000
  O   O109      1.0  0.93320  0.34430  0.22940  1.0000
  O   O110      1.0  0.56680  0.65570  0.72940  1.0000
  O   O111      1.0  0.43320  0.15570  0.77060  1.0000
  O   O112      1.0  0.06680  0.84430  0.27060  1.0000
  O   O113      1.0  0.34430  0.22940  0.93320  1.0000
  O   O114      1.0  0.65570  0.72940  0.56680  1.0000
  O   O115      1.0  0.15570  0.77060  0.43320  1.0000
  O   O116      1.0  0.84430  0.27060  0.06680  1.0000
  O   O117      1.0  0.22940  0.93320  0.34430  1.0000
  O   O118      1.0  0.72940  0.56680  0.65570  1.0000
  O   O119      1.0  0.77060  0.43320  0.15570  1.0000
  O   O120      1.0  0.27060  0.06680  0.84430  1.0000
  O   O121      1.0  0.59430  0.18320  0.47940  1.0000
  O   O122      1.0  0.90570  0.81680  0.97940  1.0000
  O   O123      1.0  0.40570  0.68320  0.02060  1.0000
  O   O124      1.0  0.09430  0.31680  0.52060  1.0000
  O   O125      1.0  0.47940  0.59430  0.18320  1.0000
  O   O126      1.0  0.97940  0.90570  0.81680  1.0000
  O   O127      1.0  0.02060  0.40570  0.68320  1.0000
  O   O128      1.0  0.52060  0.09430  0.31680  1.0000
  O   O129      1.0  0.18320  0.47940  0.59430  1.0000
  O   O130      1.0  0.81680  0.97940  0.90570  1.0000
  O   O131      1.0  0.68320  0.02060  0.40570  1.0000
  O   O132      1.0  0.31680  0.52060  0.09430  1.0000
  O   O133      1.0  0.43320  0.84430  0.72940  1.0000
  O   O134      1.0  0.06680  0.15570  0.22940  1.0000
  O   O135      1.0  0.93320  0.65570  0.27060  1.0000
  O   O136      1.0  0.56680  0.34430  0.77060  1.0000
  O   O137      1.0  0.84430  0.72940  0.43320  1.0000
  O   O138      1.0  0.15570  0.22940  0.06680  1.0000
  O   O139      1.0  0.65570  0.27060  0.93320  1.0000
  O   O140      1.0  0.34430  0.77060  0.56680  1.0000
  O   O141      1.0  0.72940  0.43320  0.84430  1.0000
  O   O142      1.0  0.22940  0.06680  0.15570  1.0000
  O   O143      1.0  0.27060  0.93320  0.65570  1.0000
  O   O144      1.0  0.77060  0.56680  0.34430  1.0000
  O   O145      1.0  0.07950  0.63293  0.93844  1.0000
  O   O146      1.0  0.42050  0.36707  0.43844  1.0000
  O   O147      1.0  0.92050  0.13293  0.56156  1.0000
  O   O148      1.0  0.57950  0.86707  0.06156  1.0000
  O   O149      1.0  0.93844  0.07950  0.63293  1.0000
  O   O150      1.0  0.43844  0.42050  0.36707  1.0000
  O   O151      1.0  0.56156  0.92050  0.13293  1.0000
  O   O152      1.0  0.06156  0.57950  0.86707  1.0000
  O   O153      1.0  0.63293  0.93844  0.07950  1.0000
  O   O154      1.0  0.36707  0.43844  0.42050  1.0000
  O   O155      1.0  0.13293  0.56156  0.92050  1.0000
  O   O156      1.0  0.86707  0.06156  0.57950  1.0000
  O   O157      1.0  0.88293  0.32950  0.18844  1.0000
  O   O158      1.0  0.61707  0.67050  0.68844  1.0000
  O   O159      1.0  0.38293  0.17050  0.81156  1.0000
  O   O160      1.0  0.11707  0.82950  0.31156  1.0000
  O   O161      1.0  0.32950  0.18844  0.88293  1.0000
  O   O162      1.0  0.67050  0.68844  0.61707  1.0000
  O   O163      1.0  0.17050  0.81156  0.38293  1.0000
  O   O164      1.0  0.82950  0.31156  0.11707  1.0000
  O   O165      1.0  0.18844  0.88293  0.32950  1.0000
  O   O166      1.0  0.68844  0.61707  0.67050  1.0000
  O   O167      1.0  0.81156  0.38293  0.17050  1.0000
  O   O168      1.0  0.31156  0.11707  0.82950  1.0000
  O   O169      1.0  0.57950  0.13293  0.43844  1.0000
  O   O170      1.0  0.92050  0.86707  0.93844  1.0000
  O   O171      1.0  0.42050  0.63293  0.06156  1.0000
  O   O172      1.0  0.07950  0.36707  0.56156  1.0000
  O   O173      1.0  0.43844  0.57950  0.13293  1.0000
  O   O174      1.0  0.93844  0.92050  0.86707  1.0000
  O   O175      1.0  0.06156  0.42050  0.63293  1.0000
  O   O176      1.0  0.56156  0.07950  0.36707  1.0000
  O   O177      1.0  0.13293  0.43844  0.57950  1.0000
  O   O178      1.0  0.86707  0.93844  0.92050  1.0000
  O   O179      1.0  0.63293  0.06156  0.42050  1.0000
  O   O180      1.0  0.36707  0.56156  0.07950  1.0000
  O   O181      1.0  0.38293  0.82950  0.68844  1.0000
  O   O182      1.0  0.11707  0.17050  0.18844  1.0000
  O   O183      1.0  0.88293  0.67050  0.31156  1.0000
  O   O184      1.0  0.61707  0.32950  0.81156  1.0000
  O   O185      1.0  0.82950  0.68844  0.38293  1.0000
  O   O186      1.0  0.17050  0.18844  0.11707  1.0000
  O   O187      1.0  0.67050  0.31156  0.88293  1.0000
  O   O188      1.0  0.32950  0.81156  0.61707  1.0000
  O   O189      1.0  0.68844  0.38293  0.82950  1.0000
  O   O190      1.0  0.18844  0.11707  0.17050  1.0000
  O   O191      1.0  0.31156  0.88293  0.67050  1.0000
  O   O192      1.0  0.81156  0.61707  0.32950  1.0000
  O   O193      1.0  0.17887  0.56796  0.11390  1.0000
  O   O194      1.0  0.32113  0.43204  0.61390  1.0000
  O   O195      1.0  0.82113  0.06796  0.38610  1.0000
  O   O196      1.0  0.67887  0.93204  0.88610  1.0000
  O   O197      1.0  0.11390  0.17887  0.56796  1.0000
  O   O198      1.0  0.61390  0.32113  0.43204  1.0000
  O   O199      1.0  0.38610  0.82113  0.06796  1.0000
  O   O200      1.0  0.88610  0.67887  0.93204  1.0000
  O   O201      1.0  0.56796  0.11390  0.17887  1.0000
  O   O202      1.0  0.43204  0.61390  0.32113  1.0000
  O   O203      1.0  0.06796  0.38610  0.82113  1.0000
  O   O204      1.0  0.93204  0.88610  0.67887  1.0000
  O   O205      1.0  0.81796  0.42887  0.36390  1.0000
  O   O206      1.0  0.68204  0.57113  0.86390  1.0000
  O   O207      1.0  0.31796  0.07113  0.63610  1.0000
  O   O208      1.0  0.18204  0.92887  0.13610  1.0000
  O   O209      1.0  0.42887  0.36390  0.81796  1.0000
  O   O210      1.0  0.57113  0.86390  0.68204  1.0000
  O   O211      1.0  0.07113  0.63610  0.31796  1.0000
  O   O212      1.0  0.92887  0.13610  0.18204  1.0000
  O   O213      1.0  0.36390  0.81796  0.42887  1.0000
  O   O214      1.0  0.86390  0.68204  0.57113  1.0000
  O   O215      1.0  0.63610  0.31796  0.07113  1.0000
  O   O216      1.0  0.13610  0.18204  0.92887  1.0000
  O   O217      1.0  0.67887  0.06796  0.61390  1.0000
  O   O218      1.0  0.82113  0.93204  0.11390  1.0000
  O   O219      1.0  0.32113  0.56796  0.88610  1.0000
  O   O220      1.0  0.17887  0.43204  0.38610  1.0000
  O   O221      1.0  0.61390  0.67887  0.06796  1.0000
  O   O222      1.0  0.11390  0.82113  0.93204  1.0000
  O   O223      1.0  0.88610  0.32113  0.56796  1.0000
  O   O224      1.0  0.38610  0.17887  0.43204  1.0000
  O   O225      1.0  0.06796  0.61390  0.67887  1.0000
  O   O226      1.0  0.93204  0.11390  0.82113  1.0000
  O   O227      1.0  0.56796  0.88610  0.32113  1.0000
  O   O228      1.0  0.43204  0.38610  0.17887  1.0000
  O   O229      1.0  0.31796  0.92887  0.86390  1.0000
  O   O230      1.0  0.18204  0.07113  0.36390  1.0000
  O   O231      1.0  0.81796  0.57113  0.13610  1.0000
  O   O232      1.0  0.68204  0.42887  0.63610  1.0000
  O   O233      1.0  0.92887  0.86390  0.31796  1.0000
  O   O234      1.0  0.07113  0.36390  0.18204  1.0000
  O   O235      1.0  0.57113  0.13610  0.81796  1.0000
  O   O236      1.0  0.42887  0.63610  0.68204  1.0000
  O   O237      1.0  0.86390  0.31796  0.92887  1.0000
  O   O238      1.0  0.36390  0.18204  0.07113  1.0000
  O   O239      1.0  0.13610  0.81796  0.57113  1.0000
  O   O240      1.0  0.63610  0.68204  0.42887  1.0000
  O   O241      1.0  0.22990  0.52470  0.10920  1.0000
  O   O242      1.0  0.27010  0.47530  0.60920  1.0000
  O   O243      1.0  0.77010  0.02470  0.39080  1.0000
  O   O244      1.0  0.72990  0.97530  0.89080  1.0000
  O   O245      1.0  0.10920  0.22990  0.52470  1.0000
  O   O246      1.0  0.60920  0.27010  0.47530  1.0000
  O   O247      1.0  0.39080  0.77010  0.02470  1.0000
  O   O248      1.0  0.89080  0.72990  0.97530  1.0000
  O   O249      1.0  0.52470  0.10920  0.22990  1.0000
  O   O250      1.0  0.47530  0.60920  0.27010  1.0000
  O   O251      1.0  0.02470  0.39080  0.77010  1.0000
  O   O252      1.0  0.97530  0.89080  0.72990  1.0000
  O   O253      1.0  0.77470  0.47990  0.35920  1.0000
  O   O254      1.0  0.72530  0.52010  0.85920  1.0000
  O   O255      1.0  0.27470  0.02010  0.64080  1.0000
  O   O256      1.0  0.22530  0.97990  0.14080  1.0000
  O   O257      1.0  0.47990  0.35920  0.77470  1.0000
  O   O258      1.0  0.52010  0.85920  0.72530  1.0000
  O   O259      1.0  0.02010  0.64080  0.27470  1.0000
  O   O260      1.0  0.97990  0.14080  0.22530  1.0000
  O   O261      1.0  0.35920  0.77470  0.47990  1.0000
  O   O262      1.0  0.85920  0.72530  0.52010  1.0000
  O   O263      1.0  0.64080  0.27470  0.02010  1.0000
  O   O264      1.0  0.14080  0.22530  0.97990  1.0000
  O   O265      1.0  0.72990  0.02470  0.60920  1.0000
  O   O266      1.0  0.77010  0.97530  0.10920  1.0000
  O   O267      1.0  0.27010  0.52470  0.89080  1.0000
  O   O268      1.0  0.22990  0.47530  0.39080  1.0000
  O   O269      1.0  0.60920  0.72990  0.02470  1.0000
  O   O270      1.0  0.10920  0.77010  0.97530  1.0000
  O   O271      1.0  0.89080  0.27010  0.52470  1.0000
  O   O272      1.0  0.39080  0.22990  0.47530  1.0000
  O   O273      1.0  0.02470  0.60920  0.72990  1.0000
  O   O274      1.0  0.97530  0.10920  0.77010  1.0000
  O   O275      1.0  0.52470  0.89080  0.27010  1.0000
  O   O276      1.0  0.47530  0.39080  0.22990  1.0000
  O   O277      1.0  0.27470  0.97990  0.85920  1.0000
  O   O278      1.0  0.22530  0.02010  0.35920  1.0000
  O   O279      1.0  0.77470  0.52010  0.14080  1.0000
  O   O280      1.0  0.72530  0.47990  0.64080  1.0000
  O   O281      1.0  0.97990  0.85920  0.27470  1.0000
  O   O282      1.0  0.02010  0.35920  0.22530  1.0000
  O   O283      1.0  0.52010  0.14080  0.77470  1.0000
  O   O284      1.0  0.47990  0.64080  0.72530  1.0000
  O   O285      1.0  0.85920  0.27470  0.97990  1.0000
  O   O286      1.0  0.35920  0.22530  0.02010  1.0000
  O   O287      1.0  0.14080  0.77470  0.52010  1.0000
  O   O288      1.0  0.64080  0.72530  0.47990  1.0000
  O   O289      1.0  0.22830  0.43530  0.11070  1.0000
  O   O290      1.0  0.27170  0.56470  0.61070  1.0000
  O   O291      1.0  0.77170  0.93530  0.38930  1.0000
  O   O292      1.0  0.72830  0.06470  0.88930  1.0000
  O   O293      1.0  0.11070  0.22830  0.43530  1.0000
  O   O294      1.0  0.61070  0.27170  0.56470  1.0000
  O   O295      1.0  0.38930  0.77170  0.93530  1.0000
  O   O296      1.0  0.88930  0.72830  0.06470  1.0000
  O   O297      1.0  0.43530  0.11070  0.22830  1.0000
  O   O298      1.0  0.56470  0.61070  0.27170  1.0000
  O   O299      1.0  0.93530  0.38930  0.77170  1.0000
  O   O300      1.0  0.06470  0.88930  0.72830  1.0000
  O   O301      1.0  0.68530  0.47830  0.36070  1.0000
  O   O302      1.0  0.81470  0.52170  0.86070  1.0000
  O   O303      1.0  0.18530  0.02170  0.63930  1.0000
  O   O304      1.0  0.31470  0.97830  0.13930  1.0000
  O   O305      1.0  0.47830  0.36070  0.68530  1.0000
  O   O306      1.0  0.52170  0.86070  0.81470  1.0000
  O   O307      1.0  0.02170  0.63930  0.18530  1.0000
  O   O308      1.0  0.97830  0.13930  0.31470  1.0000
  O   O309      1.0  0.36070  0.68530  0.47830  1.0000
  O   O310      1.0  0.86070  0.81470  0.52170  1.0000
  O   O311      1.0  0.63930  0.18530  0.02170  1.0000
  O   O312      1.0  0.13930  0.31470  0.97830  1.0000
  O   O313      1.0  0.72830  0.93530  0.61070  1.0000
  O   O314      1.0  0.77170  0.06470  0.11070  1.0000
  O   O315      1.0  0.27170  0.43530  0.88930  1.0000
  O   O316      1.0  0.22830  0.56470  0.38930  1.0000
  O   O317      1.0  0.61070  0.72830  0.93530  1.0000
  O   O318      1.0  0.11070  0.77170  0.06470  1.0000
  O   O319      1.0  0.88930  0.27170  0.43530  1.0000
  O   O320      1.0  0.38930  0.22830  0.56470  1.0000
  O   O321      1.0  0.93530  0.61070  0.72830  1.0000
  O   O322      1.0  0.06470  0.11070  0.77170  1.0000
  O   O323      1.0  0.43530  0.88930  0.27170  1.0000
  O   O324      1.0  0.56470  0.38930  0.22830  1.0000
  O   O325      1.0  0.18530  0.97830  0.86070  1.0000
  O   O326      1.0  0.31470  0.02170  0.36070  1.0000
  O   O327      1.0  0.68530  0.52170  0.13930  1.0000
  O   O328      1.0  0.81470  0.47830  0.63930  1.0000
  O   O329      1.0  0.97830  0.86070  0.18530  1.0000
  O   O330      1.0  0.02170  0.36070  0.31470  1.0000
  O   O331      1.0  0.52170  0.13930  0.68530  1.0000
  O   O332      1.0  0.47830  0.63930  0.81470  1.0000
  O   O333      1.0  0.86070  0.18530  0.97830  1.0000
  O   O334      1.0  0.36070  0.31470  0.02170  1.0000
  O   O335      1.0  0.13930  0.68530  0.52170  1.0000
  O   O336      1.0  0.63930  0.81470  0.47830  1.0000
  O   O337      1.0  0.19253  0.39578  0.15010  1.0000
  O   O338      1.0  0.30747  0.60422  0.65010  1.0000
  O   O339      1.0  0.80747  0.89578  0.34990  1.0000
  O   O340      1.0  0.69253  0.10422  0.84990  1.0000
  O   O341      1.0  0.15010  0.19253  0.39578  1.0000
  O   O342      1.0  0.65010  0.30747  0.60422  1.0000
  O   O343      1.0  0.34990  0.80747  0.89578  1.0000
  O   O344      1.0  0.84990  0.69253  0.10422  1.0000
  O   O345      1.0  0.39578  0.15010  0.19253  1.0000
  O   O346      1.0  0.60422  0.65010  0.30747  1.0000
  O   O347      1.0  0.89578  0.34990  0.80747  1.0000
  O   O348      1.0  0.10422  0.84990  0.69253  1.0000
  O   O349      1.0  0.64578  0.44253  0.40010  1.0000
  O   O350      1.0  0.85422  0.55747  0.90010  1.0000
  O   O351      1.0  0.14578  0.05747  0.59990  1.0000
  O   O352      1.0  0.35422  0.94253  0.09990  1.0000
  O   O353      1.0  0.44253  0.40010  0.64578  1.0000
  O   O354      1.0  0.55747  0.90010  0.85422  1.0000
  O   O355      1.0  0.05747  0.59990  0.14578  1.0000
  O   O356      1.0  0.94253  0.09990  0.35422  1.0000
  O   O357      1.0  0.40010  0.64578  0.44253  1.0000
  O   O358      1.0  0.90010  0.85422  0.55747  1.0000
  O   O359      1.0  0.59990  0.14578  0.05747  1.0000
  O   O360      1.0  0.09990  0.35422  0.94253  1.0000
  O   O361      1.0  0.69253  0.89578  0.65010  1.0000
  O   O362      1.0  0.80747  0.10422  0.15010  1.0000
  O   O363      1.0  0.30747  0.39578  0.84990  1.0000
  O   O364      1.0  0.19253  0.60422  0.34990  1.0000
  O   O365      1.0  0.65010  0.69253  0.89578  1.0000
  O   O366      1.0  0.15010  0.80747  0.10422  1.0000
  O   O367      1.0  0.84990  0.30747  0.39578  1.0000
  O   O368      1.0  0.34990  0.19253  0.60422  1.0000
  O   O369      1.0  0.89578  0.65010  0.69253  1.0000
  O   O370      1.0  0.10422  0.15010  0.80747  1.0000
  O   O371      1.0  0.39578  0.84990  0.30747  1.0000
  O   O372      1.0  0.60422  0.34990  0.19253  1.0000
  O   O373      1.0  0.14578  0.94253  0.90010  1.0000
  O   O374      1.0  0.35422  0.05747  0.40010  1.0000
  O   O375      1.0  0.64578  0.55747  0.09990  1.0000
  O   O376      1.0  0.85422  0.44253  0.59990  1.0000
  O   O377      1.0  0.94253  0.90010  0.14578  1.0000
  O   O378      1.0  0.05747  0.40010  0.35422  1.0000
  O   O379      1.0  0.55747  0.09990  0.64578  1.0000
  O   O380      1.0  0.44253  0.59990  0.85422  1.0000
  O   O381      1.0  0.90010  0.14578  0.94253  1.0000
  O   O382      1.0  0.40010  0.35422  0.05747  1.0000
  O   O383      1.0  0.09990  0.64578  0.55747  1.0000
  O   O384      1.0  0.59990  0.85422  0.44253  1.0000
