data_image0
_chemical_formula_structural       Co8Na4O64C24H8C16H8C8H8C24H8C16H8C8H8C32
_chemical_formula_sum              "Co8 Na4 O64 C128 H48"
_cell_length_a       21.5119
_cell_length_b       11.8062
_cell_length_c       19.4114
_cell_angle_alpha    90
_cell_angle_beta     94.591
_cell_angle_gamma    90

_space_group_name_H-M_alt    "P 1"
_space_group_IT_number       1

loop_
  _space_group_symop_operation_xyz
  'x, y, z'

loop_
  _atom_site_type_symbol
  _atom_site_label
  _atom_site_symmetry_multiplicity
  _atom_site_fract_x
  _atom_site_fract_y
  _atom_site_fract_z
  _atom_site_occupancy
  Co  Co1       1.0  0.62376  0.99868  0.16169  1.0000
  Co  Co2       1.0  0.37624  0.99868  0.33831  1.0000
  Co  Co3       1.0  0.12376  0.49868  0.16169  1.0000
  Co  Co4       1.0  0.87624  0.49868  0.33831  1.0000
  Co  Co5       1.0  0.37624  0.00132  0.83831  1.0000
  Co  Co6       1.0  0.62376  0.00132  0.66169  1.0000
  Co  Co7       1.0  0.87624  0.50132  0.83831  1.0000
  Co  Co8       1.0  0.12376  0.50132  0.66169  1.0000
  Na  Na1       1.0  0.50000  0.90269  0.25000  1.0000
  Na  Na2       1.0  0.00000  0.40269  0.25000  1.0000
  Na  Na3       1.0  0.50000  0.09731  0.75000  1.0000
  Na  Na4       1.0  0.00000  0.59731  0.75000  1.0000
  O   O1        1.0  0.50332  0.74070  0.14684  1.0000
  O   O2        1.0  0.49668  0.74070  0.35316  1.0000
  O   O3        1.0  0.00332  0.24070  0.14684  1.0000
  O   O4        1.0  0.99668  0.24070  0.35316  1.0000
  O   O5        1.0  0.49668  0.25930  0.85316  1.0000
  O   O6        1.0  0.50332  0.25930  0.64684  1.0000
  O   O7        1.0  0.99668  0.75930  0.85316  1.0000
  O   O8        1.0  0.00332  0.75930  0.64684  1.0000
  O   O9        1.0  0.58237  0.85175  0.18067  1.0000
  O   O10       1.0  0.41763  0.85175  0.31933  1.0000
  O   O11       1.0  0.08237  0.35175  0.18067  1.0000
  O   O12       1.0  0.91763  0.35175  0.31933  1.0000
  O   O13       1.0  0.41763  0.14825  0.81933  1.0000
  O   O14       1.0  0.58237  0.14825  0.68067  1.0000
  O   O15       1.0  0.91763  0.64825  0.81933  1.0000
  O   O16       1.0  0.08237  0.64825  0.68067  1.0000
  O   O17       1.0  0.43722  0.92620  0.90558  1.0000
  O   O18       1.0  0.56278  0.92620  0.59442  1.0000
  O   O19       1.0  0.93722  0.42620  0.90558  1.0000
  O   O20       1.0  0.06278  0.42620  0.59442  1.0000
  O   O21       1.0  0.56278  0.07380  0.09442  1.0000
  O   O22       1.0  0.43722  0.07380  0.40558  1.0000
  O   O23       1.0  0.06278  0.57380  0.09442  1.0000
  O   O24       1.0  0.93722  0.57380  0.40558  1.0000
  O   O25       1.0  0.51200  0.95790  0.83609  1.0000
  O   O26       1.0  0.48800  0.95790  0.66391  1.0000
  O   O27       1.0  0.01200  0.45790  0.83609  1.0000
  O   O28       1.0  0.98800  0.45790  0.66391  1.0000
  O   O29       1.0  0.48800  0.04210  0.16391  1.0000
  O   O30       1.0  0.51200  0.04210  0.33609  1.0000
  O   O31       1.0  0.98800  0.54210  0.16391  1.0000
  O   O32       1.0  0.01200  0.54210  0.33609  1.0000
  O   O33       1.0  0.69558  0.99524  0.10374  1.0000
  O   O34       1.0  0.30442  0.99524  0.39626  1.0000
  O   O35       1.0  0.19558  0.49524  0.10374  1.0000
  O   O36       1.0  0.80442  0.49524  0.39626  1.0000
  O   O37       1.0  0.30442  0.00476  0.89626  1.0000
  O   O38       1.0  0.69558  0.00476  0.60374  1.0000
  O   O39       1.0  0.80442  0.50476  0.89626  1.0000
  O   O40       1.0  0.19558  0.50476  0.60374  1.0000
  O   O41       1.0  0.79341  0.95130  0.09077  1.0000
  O   O42       1.0  0.20659  0.95130  0.40923  1.0000
  O   O43       1.0  0.29341  0.45130  0.09077  1.0000
  O   O44       1.0  0.70659  0.45130  0.40923  1.0000
  O   O45       1.0  0.20659  0.04870  0.90923  1.0000
  O   O46       1.0  0.79341  0.04870  0.59077  1.0000
  O   O47       1.0  0.70659  0.54870  0.90923  1.0000
  O   O48       1.0  0.29341  0.54870  0.59077  1.0000
  O   O49       1.0  0.80971  0.47490  0.24483  1.0000
  O   O50       1.0  0.19029  0.47490  0.25517  1.0000
  O   O51       1.0  0.30971  0.97490  0.24483  1.0000
  O   O52       1.0  0.69029  0.97490  0.25517  1.0000
  O   O53       1.0  0.19029  0.52510  0.75517  1.0000
  O   O54       1.0  0.80971  0.52510  0.74483  1.0000
  O   O55       1.0  0.69029  0.02510  0.75517  1.0000
  O   O56       1.0  0.30971  0.02510  0.74483  1.0000
  O   O57       1.0  0.84963  0.63800  0.27417  1.0000
  O   O58       1.0  0.15037  0.63800  0.22583  1.0000
  O   O59       1.0  0.34963  0.13800  0.27417  1.0000
  O   O60       1.0  0.65037  0.13800  0.22583  1.0000
  O   O61       1.0  0.15037  0.36200  0.72583  1.0000
  O   O62       1.0  0.84963  0.36200  0.77417  1.0000
  O   O63       1.0  0.65037  0.86200  0.72583  1.0000
  O   O64       1.0  0.34963  0.86200  0.77417  1.0000
  C   C1        1.0  0.62939  0.79220  0.04512  1.0000
  C   C2        1.0  0.37061  0.79220  0.45488  1.0000
  C   C3        1.0  0.12939  0.29220  0.04512  1.0000
  C   C4        1.0  0.87061  0.29220  0.45488  1.0000
  C   C5        1.0  0.37061  0.20780  0.95488  1.0000
  C   C6        1.0  0.62939  0.20780  0.54512  1.0000
  C   C7        1.0  0.87061  0.70780  0.95488  1.0000
  C   C8        1.0  0.12939  0.70780  0.54512  1.0000
  C   C9        1.0  0.56775  0.80770  0.06117  1.0000
  C   C10       1.0  0.43225  0.80770  0.43883  1.0000
  C   C11       1.0  0.06775  0.30770  0.06117  1.0000
  C   C12       1.0  0.93225  0.30770  0.43883  1.0000
  C   C13       1.0  0.43225  0.19230  0.93883  1.0000
  C   C14       1.0  0.56775  0.19230  0.56117  1.0000
  C   C15       1.0  0.93225  0.69230  0.93883  1.0000
  C   C16       1.0  0.06775  0.69230  0.56117  1.0000
  C   C17       1.0  0.52337  0.84570  0.01010  1.0000
  C   C18       1.0  0.47663  0.84570  0.48990  1.0000
  C   C19       1.0  0.02337  0.34570  0.01010  1.0000
  C   C20       1.0  0.97663  0.34570  0.48990  1.0000
  C   C21       1.0  0.47663  0.15430  0.98990  1.0000
  C   C22       1.0  0.52337  0.15430  0.51010  1.0000
  C   C23       1.0  0.97663  0.65430  0.98990  1.0000
  C   C24       1.0  0.02337  0.65430  0.51010  1.0000
  H   H1        1.0  0.48200  0.85320  0.02020  1.0000
  H   H2        1.0  0.51800  0.85320  0.47980  1.0000
  H   H3        1.0  0.98200  0.35320  0.02020  1.0000
  H   H4        1.0  0.01800  0.35320  0.47980  1.0000
  H   H5        1.0  0.51800  0.14680  0.97980  1.0000
  H   H6        1.0  0.48200  0.14680  0.52020  1.0000
  H   H7        1.0  0.01800  0.64680  0.97980  1.0000
  H   H8        1.0  0.98200  0.64680  0.52020  1.0000
  C   C25       1.0  0.54003  0.87230  0.94458  1.0000
  C   C26       1.0  0.45997  0.87230  0.55542  1.0000
  C   C27       1.0  0.04003  0.37230  0.94458  1.0000
  C   C28       1.0  0.95997  0.37230  0.55542  1.0000
  C   C29       1.0  0.45997  0.12770  0.05542  1.0000
  C   C30       1.0  0.54003  0.12770  0.44458  1.0000
  C   C31       1.0  0.95997  0.62770  0.05542  1.0000
  C   C32       1.0  0.04003  0.62770  0.44458  1.0000
  C   C33       1.0  0.60097  0.85620  0.92909  1.0000
  C   C34       1.0  0.39903  0.85620  0.57091  1.0000
  C   C35       1.0  0.10097  0.35620  0.92909  1.0000
  C   C36       1.0  0.89903  0.35620  0.57091  1.0000
  C   C37       1.0  0.39903  0.14380  0.07091  1.0000
  C   C38       1.0  0.60097  0.14380  0.42909  1.0000
  C   C39       1.0  0.89903  0.64380  0.07091  1.0000
  C   C40       1.0  0.10097  0.64380  0.42909  1.0000
  H   H9        1.0  0.61250  0.87310  0.88510  1.0000
  H   H10       1.0  0.38750  0.87310  0.61490  1.0000
  H   H11       1.0  0.11250  0.37310  0.88510  1.0000
  H   H12       1.0  0.88750  0.37310  0.61490  1.0000
  H   H13       1.0  0.38750  0.12690  0.11490  1.0000
  H   H14       1.0  0.61250  0.12690  0.38510  1.0000
  H   H15       1.0  0.88750  0.62690  0.11490  1.0000
  H   H16       1.0  0.11250  0.62690  0.38510  1.0000
  C   C41       1.0  0.64511  0.81500  0.97887  1.0000
  C   C42       1.0  0.35489  0.81500  0.52113  1.0000
  C   C43       1.0  0.14511  0.31500  0.97887  1.0000
  C   C44       1.0  0.85489  0.31500  0.52113  1.0000
  C   C45       1.0  0.35489  0.18500  0.02113  1.0000
  C   C46       1.0  0.64511  0.18500  0.47887  1.0000
  C   C47       1.0  0.85489  0.68500  0.02113  1.0000
  C   C48       1.0  0.14511  0.68500  0.47887  1.0000
  H   H17       1.0  0.68570  0.80260  0.96750  1.0000
  H   H18       1.0  0.31430  0.80260  0.53250  1.0000
  H   H19       1.0  0.18570  0.30260  0.96750  1.0000
  H   H20       1.0  0.81430  0.30260  0.53250  1.0000
  H   H21       1.0  0.31430  0.19740  0.03250  1.0000
  H   H22       1.0  0.68570  0.19740  0.46750  1.0000
  H   H23       1.0  0.81430  0.69740  0.03250  1.0000
  H   H24       1.0  0.18570  0.69740  0.46750  1.0000
  C   C49       1.0  0.67721  0.74320  0.09649  1.0000
  C   C50       1.0  0.32279  0.74320  0.40351  1.0000
  C   C51       1.0  0.17721  0.24320  0.09649  1.0000
  C   C52       1.0  0.82279  0.24320  0.40351  1.0000
  C   C53       1.0  0.32279  0.25680  0.90351  1.0000
  C   C54       1.0  0.67721  0.25680  0.59649  1.0000
  C   C55       1.0  0.82279  0.75680  0.90351  1.0000
  C   C56       1.0  0.17721  0.75680  0.59649  1.0000
  C   C57       1.0  0.72946  0.80400  0.12351  1.0000
  C   C58       1.0  0.27054  0.80400  0.37649  1.0000
  C   C59       1.0  0.22946  0.30400  0.12351  1.0000
  C   C60       1.0  0.77054  0.30400  0.37649  1.0000
  C   C61       1.0  0.27054  0.19600  0.87649  1.0000
  C   C62       1.0  0.72946  0.19600  0.62351  1.0000
  C   C63       1.0  0.77054  0.69600  0.87649  1.0000
  C   C64       1.0  0.22946  0.69600  0.62351  1.0000
  C   C65       1.0  0.77319  0.75000  0.16924  1.0000
  C   C66       1.0  0.22681  0.75000  0.33076  1.0000
  C   C67       1.0  0.27319  0.25000  0.16924  1.0000
  C   C68       1.0  0.72681  0.25000  0.33076  1.0000
  C   C69       1.0  0.22681  0.25000  0.83076  1.0000
  C   C70       1.0  0.77319  0.25000  0.66924  1.0000
  C   C71       1.0  0.72681  0.75000  0.83076  1.0000
  C   C72       1.0  0.27319  0.75000  0.66924  1.0000
  H   H25       1.0  0.80760  0.79030  0.18810  1.0000
  H   H26       1.0  0.19240  0.79030  0.31190  1.0000
  H   H27       1.0  0.30760  0.29030  0.18810  1.0000
  H   H28       1.0  0.69240  0.29030  0.31190  1.0000
  H   H29       1.0  0.19240  0.20970  0.81190  1.0000
  H   H30       1.0  0.80760  0.20970  0.68810  1.0000
  H   H31       1.0  0.69240  0.70970  0.81190  1.0000
  H   H32       1.0  0.30760  0.70970  0.68810  1.0000
  C   C73       1.0  0.76636  0.63750  0.18703  1.0000
  C   C74       1.0  0.23364  0.63750  0.31297  1.0000
  C   C75       1.0  0.26636  0.13750  0.18703  1.0000
  C   C76       1.0  0.73364  0.13750  0.31297  1.0000
  C   C77       1.0  0.23364  0.36250  0.81297  1.0000
  C   C78       1.0  0.76636  0.36250  0.68703  1.0000
  C   C79       1.0  0.73364  0.86250  0.81297  1.0000
  C   C80       1.0  0.26636  0.86250  0.68703  1.0000
  C   C81       1.0  0.71520  0.57790  0.15970  1.0000
  C   C82       1.0  0.28480  0.57790  0.34030  1.0000
  C   C83       1.0  0.21520  0.07790  0.15970  1.0000
  C   C84       1.0  0.78480  0.07790  0.34030  1.0000
  C   C85       1.0  0.28480  0.42210  0.84030  1.0000
  C   C86       1.0  0.71520  0.42210  0.65970  1.0000
  C   C87       1.0  0.78480  0.92210  0.84030  1.0000
  C   C88       1.0  0.21520  0.92210  0.65970  1.0000
  H   H33       1.0  0.71040  0.50210  0.17120  1.0000
  H   H34       1.0  0.28960  0.50210  0.32880  1.0000
  H   H35       1.0  0.21040  0.00210  0.17120  1.0000
  H   H36       1.0  0.78960  0.00210  0.32880  1.0000
  H   H37       1.0  0.28960  0.49790  0.82880  1.0000
  H   H38       1.0  0.71040  0.49790  0.67120  1.0000
  H   H39       1.0  0.78960  0.99790  0.82880  1.0000
  H   H40       1.0  0.21040  0.99790  0.67120  1.0000
  C   C89       1.0  0.67108  0.63070  0.11530  1.0000
  C   C90       1.0  0.32892  0.63070  0.38470  1.0000
  C   C91       1.0  0.17108  0.13070  0.11530  1.0000
  C   C92       1.0  0.82892  0.13070  0.38470  1.0000
  C   C93       1.0  0.32892  0.36930  0.88470  1.0000
  C   C94       1.0  0.67108  0.36930  0.61530  1.0000
  C   C95       1.0  0.82892  0.86930  0.88470  1.0000
  C   C96       1.0  0.17108  0.86930  0.61530  1.0000
  H   H41       1.0  0.63640  0.58990  0.09760  1.0000
  H   H42       1.0  0.36360  0.58990  0.40240  1.0000
  H   H43       1.0  0.13640  0.08990  0.09760  1.0000
  H   H44       1.0  0.86360  0.08990  0.40240  1.0000
  H   H45       1.0  0.36360  0.41010  0.90240  1.0000
  H   H46       1.0  0.63640  0.41010  0.59760  1.0000
  H   H47       1.0  0.86360  0.91010  0.90240  1.0000
  H   H48       1.0  0.13640  0.91010  0.59760  1.0000
  C   C97       1.0  0.54906  0.79650  0.13409  1.0000
  C   C98       1.0  0.45094  0.79650  0.36591  1.0000
  C   C99       1.0  0.04906  0.29650  0.13409  1.0000
  C   C100      1.0  0.95094  0.29650  0.36591  1.0000
  C   C101      1.0  0.45094  0.20350  0.86591  1.0000
  C   C102      1.0  0.54906  0.20350  0.63409  1.0000
  C   C103      1.0  0.95094  0.70350  0.86591  1.0000
  C   C104      1.0  0.04906  0.70350  0.63409  1.0000
  C   C105      1.0  0.49351  0.92270  0.89037  1.0000
  C   C106      1.0  0.50649  0.92270  0.60963  1.0000
  C   C107      1.0  0.99351  0.42270  0.89037  1.0000
  C   C108      1.0  0.00649  0.42270  0.60963  1.0000
  C   C109      1.0  0.50649  0.07730  0.10963  1.0000
  C   C110      1.0  0.49351  0.07730  0.39037  1.0000
  C   C111      1.0  0.00649  0.57730  0.10963  1.0000
  C   C112      1.0  0.99351  0.57730  0.39037  1.0000
  C   C113      1.0  0.74075  0.92560  0.10471  1.0000
  C   C114      1.0  0.25925  0.92560  0.39529  1.0000
  C   C115      1.0  0.24075  0.42560  0.10471  1.0000
  C   C116      1.0  0.75925  0.42560  0.39529  1.0000
  C   C117      1.0  0.25925  0.07440  0.89529  1.0000
  C   C118      1.0  0.74075  0.07440  0.60471  1.0000
  C   C119      1.0  0.75925  0.57440  0.89529  1.0000
  C   C120      1.0  0.24075  0.57440  0.60471  1.0000
  C   C121      1.0  0.81172  0.57920  0.23812  1.0000
  C   C122      1.0  0.18828  0.57920  0.26188  1.0000
  C   C123      1.0  0.31172  0.07920  0.23812  1.0000
  C   C124      1.0  0.68828  0.07920  0.26188  1.0000
  C   C125      1.0  0.18828  0.42080  0.76188  1.0000
  C   C126      1.0  0.81172  0.42080  0.73812  1.0000
  C   C127      1.0  0.68828  0.92080  0.76188  1.0000
  C   C128      1.0  0.31172  0.92080  0.73812  1.0000
