data_image0
_chemical_formula_structural       Cu4O8C8O8C48O8C8O8H32
_chemical_formula_sum              "Cu4 O32 C64 H32"
_cell_length_a       36.735
_cell_length_b       5.825
_cell_length_c       22.634
_cell_angle_alpha    90
_cell_angle_beta     113.94
_cell_angle_gamma    90

_space_group_name_H-M_alt    "P 1"
_space_group_IT_number       1

loop_
  _space_group_symop_operation_xyz
  'x, y, z'

loop_
  _atom_site_type_symbol
  _atom_site_label
  _atom_site_symmetry_multiplicity
  _atom_site_fract_x
  _atom_site_fract_y
  _atom_site_fract_z
  _atom_site_occupancy
  Cu  Cu1       1.0  0.50000  0.66594  0.25000  1.0000
  Cu  Cu2       1.0  0.00000  0.16594  0.25000  1.0000
  Cu  Cu3       1.0  0.50000  0.33406  0.75000  1.0000
  Cu  Cu4       1.0  0.00000  0.83406  0.75000  1.0000
  O   O1        1.0  0.46176  0.90870  0.24429  1.0000
  O   O2        1.0  0.96176  0.40870  0.24429  1.0000
  O   O3        1.0  0.53824  0.90870  0.25571  1.0000
  O   O4        1.0  0.03824  0.40870  0.25571  1.0000
  O   O5        1.0  0.53824  0.09130  0.75571  1.0000
  O   O6        1.0  0.03824  0.59130  0.75571  1.0000
  O   O7        1.0  0.46176  0.09130  0.74429  1.0000
  O   O8        1.0  0.96176  0.59130  0.74429  1.0000
  C   C1        1.0  0.44243  0.92030  0.27950  1.0000
  C   C2        1.0  0.94243  0.42030  0.27950  1.0000
  C   C3        1.0  0.55757  0.92030  0.22050  1.0000
  C   C4        1.0  0.05757  0.42030  0.22050  1.0000
  C   C5        1.0  0.55757  0.07970  0.72050  1.0000
  C   C6        1.0  0.05757  0.57970  0.72050  1.0000
  C   C7        1.0  0.44243  0.07970  0.77950  1.0000
  C   C8        1.0  0.94243  0.57970  0.77950  1.0000
  O   O9        1.0  0.45103  0.81770  0.33127  1.0000
  O   O10       1.0  0.95103  0.31770  0.33127  1.0000
  O   O11       1.0  0.54897  0.81770  0.16873  1.0000
  O   O12       1.0  0.04897  0.31770  0.16873  1.0000
  O   O13       1.0  0.54897  0.18230  0.66873  1.0000
  O   O14       1.0  0.04897  0.68230  0.66873  1.0000
  O   O15       1.0  0.45103  0.18230  0.83127  1.0000
  O   O16       1.0  0.95103  0.68230  0.83127  1.0000
  C   C9        1.0  0.40539  0.06890  0.25550  1.0000
  C   C10       1.0  0.90539  0.56890  0.25550  1.0000
  C   C11       1.0  0.59461  0.06890  0.24450  1.0000
  C   C12       1.0  0.09461  0.56890  0.24450  1.0000
  C   C13       1.0  0.59461  0.93110  0.74450  1.0000
  C   C14       1.0  0.09461  0.43110  0.74450  1.0000
  C   C15       1.0  0.40539  0.93110  0.75550  1.0000
  C   C16       1.0  0.90539  0.43110  0.75550  1.0000
  C   C17       1.0  0.37256  0.99070  0.26514  1.0000
  C   C18       1.0  0.87256  0.49070  0.26514  1.0000
  C   C19       1.0  0.62744  0.99070  0.23486  1.0000
  C   C20       1.0  0.12744  0.49070  0.23486  1.0000
  C   C21       1.0  0.62744  0.00930  0.73486  1.0000
  C   C22       1.0  0.12744  0.50930  0.73486  1.0000
  C   C23       1.0  0.37256  0.00930  0.76514  1.0000
  C   C24       1.0  0.87256  0.50930  0.76514  1.0000
  C   C25       1.0  0.33729  0.11360  0.24280  1.0000
  C   C26       1.0  0.83729  0.61360  0.24280  1.0000
  C   C27       1.0  0.66271  0.11360  0.25720  1.0000
  C   C28       1.0  0.16271  0.61360  0.25720  1.0000
  C   C29       1.0  0.66271  0.88640  0.75720  1.0000
  C   C30       1.0  0.16271  0.38640  0.75720  1.0000
  C   C31       1.0  0.33729  0.88640  0.74280  1.0000
  C   C32       1.0  0.83729  0.38640  0.74280  1.0000
  C   C33       1.0  0.33398  0.31560  0.20910  1.0000
  C   C34       1.0  0.83398  0.81560  0.20910  1.0000
  C   C35       1.0  0.66602  0.31560  0.29090  1.0000
  C   C36       1.0  0.16602  0.81560  0.29090  1.0000
  C   C37       1.0  0.66602  0.68440  0.79090  1.0000
  C   C38       1.0  0.16602  0.18440  0.79090  1.0000
  C   C39       1.0  0.33398  0.68440  0.70910  1.0000
  C   C40       1.0  0.83398  0.18440  0.70910  1.0000
  C   C41       1.0  0.36640  0.39550  0.19892  1.0000
  C   C42       1.0  0.86640  0.89550  0.19892  1.0000
  C   C43       1.0  0.63360  0.39550  0.30108  1.0000
  C   C44       1.0  0.13360  0.89550  0.30108  1.0000
  C   C45       1.0  0.63360  0.60450  0.80108  1.0000
  C   C46       1.0  0.13360  0.10450  0.80108  1.0000
  C   C47       1.0  0.36640  0.60450  0.69892  1.0000
  C   C48       1.0  0.86640  0.10450  0.69892  1.0000
  C   C49       1.0  0.40248  0.27610  0.22236  1.0000
  C   C50       1.0  0.90248  0.77610  0.22236  1.0000
  C   C51       1.0  0.59752  0.27610  0.27764  1.0000
  C   C52       1.0  0.09752  0.77610  0.27764  1.0000
  C   C53       1.0  0.59752  0.72390  0.77764  1.0000
  C   C54       1.0  0.09752  0.22390  0.77764  1.0000
  C   C55       1.0  0.40248  0.72390  0.72236  1.0000
  C   C56       1.0  0.90248  0.22390  0.72236  1.0000
  O   O17       1.0  0.43329  0.46830  0.16231  1.0000
  O   O18       1.0  0.93329  0.96830  0.16231  1.0000
  O   O19       1.0  0.56671  0.46830  0.33769  1.0000
  O   O20       1.0  0.06671  0.96830  0.33769  1.0000
  O   O21       1.0  0.56671  0.53170  0.83769  1.0000
  O   O22       1.0  0.06671  0.03170  0.83769  1.0000
  O   O23       1.0  0.43329  0.53170  0.66231  1.0000
  O   O24       1.0  0.93329  0.03170  0.66231  1.0000
  C   C57       1.0  0.43705  0.39250  0.21521  1.0000
  C   C58       1.0  0.93705  0.89250  0.21521  1.0000
  C   C59       1.0  0.56295  0.39250  0.28479  1.0000
  C   C60       1.0  0.06295  0.89250  0.28479  1.0000
  C   C61       1.0  0.56295  0.60750  0.78479  1.0000
  C   C62       1.0  0.06295  0.10750  0.78479  1.0000
  C   C63       1.0  0.43705  0.60750  0.71521  1.0000
  C   C64       1.0  0.93705  0.10750  0.71521  1.0000
  O   O25       1.0  0.46820  0.42490  0.26750  1.0000
  O   O26       1.0  0.96820  0.92490  0.26750  1.0000
  O   O27       1.0  0.53180  0.42490  0.23250  1.0000
  O   O28       1.0  0.03180  0.92490  0.23250  1.0000
  O   O29       1.0  0.53180  0.57510  0.73250  1.0000
  O   O30       1.0  0.03180  0.07510  0.73250  1.0000
  O   O31       1.0  0.46820  0.57510  0.76750  1.0000
  O   O32       1.0  0.96820  0.07510  0.76750  1.0000
  H   H1        1.0  0.30990  0.39200  0.19300  1.0000
  H   H2        1.0  0.80990  0.89200  0.19300  1.0000
  H   H3        1.0  0.69010  0.39200  0.30700  1.0000
  H   H4        1.0  0.19010  0.89200  0.30700  1.0000
  H   H5        1.0  0.69010  0.60800  0.80700  1.0000
  H   H6        1.0  0.19010  0.10800  0.80700  1.0000
  H   H7        1.0  0.30990  0.60800  0.69300  1.0000
  H   H8        1.0  0.80990  0.10800  0.69300  1.0000
  H   H9        1.0  0.31720  0.04800  0.25360  1.0000
  H   H10       1.0  0.81720  0.54800  0.25360  1.0000
  H   H11       1.0  0.68280  0.04800  0.24640  1.0000
  H   H12       1.0  0.18280  0.54800  0.24640  1.0000
  H   H13       1.0  0.68280  0.95200  0.74640  1.0000
  H   H14       1.0  0.18280  0.45200  0.74640  1.0000
  H   H15       1.0  0.31720  0.95200  0.75360  1.0000
  H   H16       1.0  0.81720  0.45200  0.75360  1.0000
  H   H17       1.0  0.37660  0.85000  0.28750  1.0000
  H   H18       1.0  0.87660  0.35000  0.28750  1.0000
  H   H19       1.0  0.62340  0.85000  0.21250  1.0000
  H   H20       1.0  0.12340  0.35000  0.21250  1.0000
  H   H21       1.0  0.62340  0.15000  0.71250  1.0000
  H   H22       1.0  0.12340  0.65000  0.71250  1.0000
  H   H23       1.0  0.37660  0.15000  0.78750  1.0000
  H   H24       1.0  0.87660  0.65000  0.78750  1.0000
  H   H25       1.0  0.36590  0.53000  0.17600  1.0000
  H   H26       1.0  0.86590  0.03000  0.17600  1.0000
  H   H27       1.0  0.63410  0.53000  0.32400  1.0000
  H   H28       1.0  0.13410  0.03000  0.32400  1.0000
  H   H29       1.0  0.63410  0.47000  0.82400  1.0000
  H   H30       1.0  0.13410  0.97000  0.82400  1.0000
  H   H31       1.0  0.36590  0.47000  0.67600  1.0000
  H   H32       1.0  0.86590  0.97000  0.67600  1.0000
