data_image0
_chemical_formula_structural       CuN2O8C8O2H4
_chemical_formula_sum              "Cu1 N2 O10 C8 H4"
_cell_length_a       6.019
_cell_length_b       7.003
_cell_length_c       11.185
_cell_angle_alpha    89.19
_cell_angle_beta     74.61
_cell_angle_gamma    89.83

_space_group_name_H-M_alt    "P 1"
_space_group_IT_number       1

loop_
  _space_group_symop_operation_xyz
  'x, y, z'

loop_
  _atom_site_type_symbol
  _atom_site_label
  _atom_site_symmetry_multiplicity
  _atom_site_fract_x
  _atom_site_fract_y
  _atom_site_fract_z
  _atom_site_occupancy
  Cu  Cu1       1.0  0.00000  0.00000  0.00000  1.0000
  N   N1        1.0  0.97077  0.69537  0.01218  1.0000
  N   N2        1.0  0.02923  0.30463  0.98782  1.0000
  O   O1        1.0  0.29237  0.93748  0.89299  1.0000
  O   O2        1.0  0.70763  0.06252  0.10701  1.0000
  O   O3        1.0  0.52385  0.70501  0.80143  1.0000
  O   O4        1.0  0.47615  0.29499  0.19857  1.0000
  O   O5        1.0  0.62350  0.69310  0.26873  1.0000
  O   O6        1.0  0.37650  0.30690  0.73127  1.0000
  O   O7        1.0  0.41912  0.69196  0.12795  1.0000
  O   O8        1.0  0.58088  0.30804  0.87205  1.0000
  C   C1        1.0  0.16360  0.62068  0.93904  1.0000
  C   C2        1.0  0.83640  0.37932  0.06096  1.0000
  C   C3        1.0  0.80390  0.57540  0.07429  1.0000
  C   C4        1.0  0.19610  0.42460  0.92571  1.0000
  C   C5        1.0  0.34260  0.76376  0.87153  1.0000
  C   C6        1.0  0.65740  0.23624  0.12847  1.0000
  C   C7        1.0  0.59320  0.66087  0.16440  1.0000
  C   C8        1.0  0.40680  0.33913  0.83560  1.0000
  O   O9        1.0  0.15590  0.01350  0.17387  1.0000
  O   O10       1.0  0.84410  0.98650  0.82613  1.0000
  H   H1        1.0  0.24900  0.92800  0.16900  1.0000
  H   H2        1.0  0.75100  0.07200  0.83100  1.0000
  H   H3        1.0  0.22000  0.08900  0.17900  1.0000
  H   H4        1.0  0.78000  0.91100  0.82100  1.0000
