data_image0
_chemical_formula_structural       Tb6O12C24O36C24H12C12H12C36H12C12H12O12C24H12C12H12C12H12C12H12
_chemical_formula_sum              "Tb6 O60 C168 H96"
_cell_length_a       15.1834
_cell_length_b       15.1834
_cell_length_c       26.5282
_cell_angle_alpha    90
_cell_angle_beta     90
_cell_angle_gamma    120

_space_group_name_H-M_alt    "P 1"
_space_group_IT_number       1

loop_
  _space_group_symop_operation_xyz
  'x, y, z'

loop_
  _atom_site_type_symbol
  _atom_site_label
  _atom_site_symmetry_multiplicity
  _atom_site_fract_x
  _atom_site_fract_y
  _atom_site_fract_z
  _atom_site_occupancy
  Tb  Tb1       1.0  0.50000  0.50000  0.08869  1.0000
  Tb  Tb2       1.0  1.00000  0.50000  0.75536  1.0000
  Tb  Tb3       1.0  0.50000  0.00000  0.42202  1.0000
  Tb  Tb4       1.0  1.00000  0.50000  0.91131  1.0000
  Tb  Tb5       1.0  0.50000  0.00000  0.57798  1.0000
  Tb  Tb6       1.0  0.50000  0.50000  0.24464  1.0000
  O   O1        1.0  0.57150  0.43890  0.02310  1.0000
  O   O2        1.0  0.13260  0.57150  0.68977  1.0000
  O   O3        1.0  0.56110  0.13260  0.35643  1.0000
  O   O4        1.0  0.42850  0.56110  0.02310  1.0000
  O   O5        1.0  0.86740  0.42850  0.68977  1.0000
  O   O6        1.0  0.43890  0.86740  0.35643  1.0000
  O   O7        1.0  0.13260  0.56110  0.97690  1.0000
  O   O8        1.0  0.42850  0.86740  0.64357  1.0000
  O   O9        1.0  0.43890  0.57150  0.31023  1.0000
  O   O10       1.0  0.56110  0.42850  0.31023  1.0000
  O   O11       1.0  0.86740  0.43890  0.97690  1.0000
  O   O12       1.0  0.57150  0.13260  0.64357  1.0000
  C   C1        1.0  0.48300  0.36410  0.00900  1.0000
  C   C2        1.0  0.11890  0.48300  0.67567  1.0000
  C   C3        1.0  0.63590  0.11890  0.34233  1.0000
  C   C4        1.0  0.51700  0.63590  0.00900  1.0000
  C   C5        1.0  0.88110  0.51700  0.67567  1.0000
  C   C6        1.0  0.36410  0.88110  0.34233  1.0000
  C   C7        1.0  0.11890  0.63590  0.99100  1.0000
  C   C8        1.0  0.51700  0.88110  0.65767  1.0000
  C   C9        1.0  0.36410  0.48300  0.32433  1.0000
  C   C10       1.0  0.63590  0.51700  0.32433  1.0000
  C   C11       1.0  0.88110  0.36410  0.99100  1.0000
  C   C12       1.0  0.48300  0.11890  0.65767  1.0000
  C   C13       1.0  0.22870  0.80000  0.83520  1.0000
  C   C14       1.0  0.42870  0.22870  0.50187  1.0000
  C   C15       1.0  0.20000  0.42870  0.16853  1.0000
  C   C16       1.0  0.77130  0.20000  0.83520  1.0000
  C   C17       1.0  0.57130  0.77130  0.50187  1.0000
  C   C18       1.0  0.80000  0.57130  0.16853  1.0000
  C   C19       1.0  0.42870  0.20000  0.16480  1.0000
  C   C20       1.0  0.77130  0.57130  0.83147  1.0000
  C   C21       1.0  0.80000  0.22870  0.49813  1.0000
  C   C22       1.0  0.20000  0.77130  0.49813  1.0000
  C   C23       1.0  0.57130  0.80000  0.16480  1.0000
  C   C24       1.0  0.22870  0.42870  0.83147  1.0000
  O   O13       1.0  0.45870  0.09800  0.85600  1.0000
  O   O14       1.0  0.36070  0.45870  0.52267  1.0000
  O   O15       1.0  0.90200  0.36070  0.18933  1.0000
  O   O16       1.0  0.54130  0.90200  0.85600  1.0000
  O   O17       1.0  0.63930  0.54130  0.52267  1.0000
  O   O18       1.0  0.09800  0.63930  0.18933  1.0000
  O   O19       1.0  0.36070  0.90200  0.14400  1.0000
  O   O20       1.0  0.54130  0.63930  0.81067  1.0000
  O   O21       1.0  0.09800  0.45870  0.47733  1.0000
  O   O22       1.0  0.90200  0.54130  0.47733  1.0000
  O   O23       1.0  0.63930  0.09800  0.14400  1.0000
  O   O24       1.0  0.45870  0.36070  0.81067  1.0000
  O   O25       1.0  0.41480  0.35740  0.03110  1.0000
  O   O26       1.0  0.05740  0.41480  0.69777  1.0000
  O   O27       1.0  0.64260  0.05740  0.36443  1.0000
  O   O28       1.0  0.58520  0.64260  0.03110  1.0000
  O   O29       1.0  0.94260  0.58520  0.69777  1.0000
  O   O30       1.0  0.35740  0.94260  0.36443  1.0000
  O   O31       1.0  0.05740  0.64260  0.96890  1.0000
  O   O32       1.0  0.58520  0.94260  0.63557  1.0000
  O   O33       1.0  0.35740  0.41480  0.30223  1.0000
  O   O34       1.0  0.64260  0.58520  0.30223  1.0000
  O   O35       1.0  0.94260  0.35740  0.96890  1.0000
  O   O36       1.0  0.41480  0.05740  0.63557  1.0000
  O   O37       1.0  0.11490  0.66730  0.78060  1.0000
  O   O38       1.0  0.44760  0.11490  0.44727  1.0000
  O   O39       1.0  0.33270  0.44760  0.11393  1.0000
  O   O40       1.0  0.88510  0.33270  0.78060  1.0000
  O   O41       1.0  0.55240  0.88510  0.44727  1.0000
  O   O42       1.0  0.66730  0.55240  0.11393  1.0000
  O   O43       1.0  0.44760  0.33270  0.21940  1.0000
  O   O44       1.0  0.88510  0.55240  0.88607  1.0000
  O   O45       1.0  0.66730  0.11490  0.55273  1.0000
  O   O46       1.0  0.33270  0.88510  0.55273  1.0000
  O   O47       1.0  0.55240  0.66730  0.21940  1.0000
  O   O48       1.0  0.11490  0.44760  0.88607  1.0000
  C   C25       1.0  0.38120  0.00030  0.85160  1.0000
  C   C26       1.0  0.38090  0.38120  0.51827  1.0000
  C   C27       1.0  0.99970  0.38090  0.18493  1.0000
  C   C28       1.0  0.61880  0.99970  0.85160  1.0000
  C   C29       1.0  0.61910  0.61880  0.51827  1.0000
  C   C30       1.0  0.00030  0.61910  0.18493  1.0000
  C   C31       1.0  0.38090  0.99970  0.14840  1.0000
  C   C32       1.0  0.61880  0.61910  0.81507  1.0000
  C   C33       1.0  0.00030  0.38120  0.48173  1.0000
  C   C34       1.0  0.99970  0.61880  0.48173  1.0000
  C   C35       1.0  0.61910  0.00030  0.14840  1.0000
  C   C36       1.0  0.38120  0.38090  0.81507  1.0000
  C   C37       1.0  0.25880  0.83580  0.88280  1.0000
  C   C38       1.0  0.42300  0.25880  0.54947  1.0000
  C   C39       1.0  0.16420  0.42300  0.21613  1.0000
  C   C40       1.0  0.74120  0.16420  0.88280  1.0000
  C   C41       1.0  0.57700  0.74120  0.54947  1.0000
  C   C42       1.0  0.83580  0.57700  0.21613  1.0000
  C   C43       1.0  0.42300  0.16420  0.11720  1.0000
  C   C44       1.0  0.74120  0.57700  0.78387  1.0000
  C   C45       1.0  0.83580  0.25880  0.45053  1.0000
  C   C46       1.0  0.16420  0.74120  0.45053  1.0000
  C   C47       1.0  0.57700  0.83580  0.11720  1.0000
  C   C48       1.0  0.25880  0.42300  0.78387  1.0000
  H   H1        1.0  0.22790  0.79250  0.91000  1.0000
  H   H2        1.0  0.43540  0.22790  0.57667  1.0000
  H   H3        1.0  0.20750  0.43540  0.24333  1.0000
  H   H4        1.0  0.77210  0.20750  0.91000  1.0000
  H   H5        1.0  0.56460  0.77210  0.57667  1.0000
  H   H6        1.0  0.79250  0.56460  0.24333  1.0000
  H   H7        1.0  0.43540  0.20750  0.09000  1.0000
  H   H8        1.0  0.77210  0.56460  0.75667  1.0000
  H   H9        1.0  0.79250  0.22790  0.42333  1.0000
  H   H10       1.0  0.20750  0.77210  0.42333  1.0000
  H   H11       1.0  0.56460  0.79250  0.09000  1.0000
  H   H12       1.0  0.22790  0.43540  0.75667  1.0000
  C   C49       1.0  0.37430  0.14670  0.91840  1.0000
  C   C50       1.0  0.22760  0.37430  0.58507  1.0000
  C   C51       1.0  0.85330  0.22760  0.25173  1.0000
  C   C52       1.0  0.62570  0.85330  0.91840  1.0000
  C   C53       1.0  0.77240  0.62570  0.58507  1.0000
  C   C54       1.0  0.14670  0.77240  0.25173  1.0000
  C   C55       1.0  0.22760  0.85330  0.08160  1.0000
  C   C56       1.0  0.62570  0.77240  0.74827  1.0000
  C   C57       1.0  0.14670  0.37430  0.41493  1.0000
  C   C58       1.0  0.85330  0.62570  0.41493  1.0000
  C   C59       1.0  0.77240  0.14670  0.08160  1.0000
  C   C60       1.0  0.37430  0.22760  0.74827  1.0000
  H   H13       1.0  0.31050  0.09390  0.90910  1.0000
  H   H14       1.0  0.21660  0.31050  0.57577  1.0000
  H   H15       1.0  0.90610  0.21660  0.24243  1.0000
  H   H16       1.0  0.68950  0.90610  0.90910  1.0000
  H   H17       1.0  0.78340  0.68950  0.57577  1.0000
  H   H18       1.0  0.09390  0.78340  0.24243  1.0000
  H   H19       1.0  0.21660  0.90610  0.09090  1.0000
  H   H20       1.0  0.68950  0.78340  0.75757  1.0000
  H   H21       1.0  0.09390  0.31050  0.42423  1.0000
  H   H22       1.0  0.90610  0.68950  0.42423  1.0000
  H   H23       1.0  0.78340  0.09390  0.09090  1.0000
  H   H24       1.0  0.31050  0.21660  0.75757  1.0000
  C   C61       1.0  0.45950  0.15880  0.89480  1.0000
  C   C62       1.0  0.30070  0.45950  0.56147  1.0000
  C   C63       1.0  0.84120  0.30070  0.22813  1.0000
  C   C64       1.0  0.54050  0.84120  0.89480  1.0000
  C   C65       1.0  0.69930  0.54050  0.56147  1.0000
  C   C66       1.0  0.15880  0.69930  0.22813  1.0000
  C   C67       1.0  0.30070  0.84120  0.10520  1.0000
  C   C68       1.0  0.54050  0.69930  0.77187  1.0000
  C   C69       1.0  0.15880  0.45950  0.43853  1.0000
  C   C70       1.0  0.84120  0.54050  0.43853  1.0000
  C   C71       1.0  0.69930  0.15880  0.10520  1.0000
  C   C72       1.0  0.45950  0.30070  0.77187  1.0000
  C   C73       1.0  0.47590  0.29450  0.96910  1.0000
  C   C74       1.0  0.18140  0.47590  0.63577  1.0000
  C   C75       1.0  0.70550  0.18140  0.30243  1.0000
  C   C76       1.0  0.52410  0.70550  0.96910  1.0000
  C   C77       1.0  0.81860  0.52410  0.63577  1.0000
  C   C78       1.0  0.29450  0.81860  0.30243  1.0000
  C   C79       1.0  0.18140  0.70550  0.03090  1.0000
  C   C80       1.0  0.52410  0.81860  0.69757  1.0000
  C   C81       1.0  0.29450  0.47590  0.36423  1.0000
  C   C82       1.0  0.70550  0.52410  0.36423  1.0000
  C   C83       1.0  0.81860  0.29450  0.03090  1.0000
  C   C84       1.0  0.47590  0.18140  0.69757  1.0000
  C   C85       1.0  0.38320  0.21310  0.95600  1.0000
  C   C86       1.0  0.17010  0.38320  0.62267  1.0000
  C   C87       1.0  0.78690  0.17010  0.28933  1.0000
  C   C88       1.0  0.61680  0.78690  0.95600  1.0000
  C   C89       1.0  0.82990  0.61680  0.62267  1.0000
  C   C90       1.0  0.21310  0.82990  0.28933  1.0000
  C   C91       1.0  0.17010  0.78690  0.04400  1.0000
  C   C92       1.0  0.61680  0.82990  0.71067  1.0000
  C   C93       1.0  0.21310  0.38320  0.37733  1.0000
  C   C94       1.0  0.78690  0.61680  0.37733  1.0000
  C   C95       1.0  0.82990  0.21310  0.04400  1.0000
  C   C96       1.0  0.38320  0.17010  0.71067  1.0000
  H   H25       1.0  0.32520  0.20270  0.97300  1.0000
  H   H26       1.0  0.12250  0.32520  0.63967  1.0000
  H   H27       1.0  0.79730  0.12250  0.30633  1.0000
  H   H28       1.0  0.67480  0.79730  0.97300  1.0000
  H   H29       1.0  0.87750  0.67480  0.63967  1.0000
  H   H30       1.0  0.20270  0.87750  0.30633  1.0000
  H   H31       1.0  0.12250  0.79730  0.02700  1.0000
  H   H32       1.0  0.67480  0.87750  0.69367  1.0000
  H   H33       1.0  0.20270  0.32520  0.36033  1.0000
  H   H34       1.0  0.79730  0.67480  0.36033  1.0000
  H   H35       1.0  0.87750  0.20270  0.02700  1.0000
  H   H36       1.0  0.32520  0.12250  0.69367  1.0000
  C   C97       1.0  0.56020  0.30770  0.94440  1.0000
  C   C98       1.0  0.25250  0.56020  0.61107  1.0000
  C   C99       1.0  0.69230  0.25250  0.27773  1.0000
  C   C100      1.0  0.43980  0.69230  0.94440  1.0000
  C   C101      1.0  0.74750  0.43980  0.61107  1.0000
  C   C102      1.0  0.30770  0.74750  0.27773  1.0000
  C   C103      1.0  0.25250  0.69230  0.05560  1.0000
  C   C104      1.0  0.43980  0.74750  0.72227  1.0000
  C   C105      1.0  0.30770  0.56020  0.38893  1.0000
  C   C106      1.0  0.69230  0.43980  0.38893  1.0000
  C   C107      1.0  0.74750  0.30770  0.05560  1.0000
  C   C108      1.0  0.56020  0.25250  0.72227  1.0000
  H   H37       1.0  0.62360  0.36200  0.95300  1.0000
  H   H38       1.0  0.26160  0.62360  0.61967  1.0000
  H   H39       1.0  0.63800  0.26160  0.28633  1.0000
  H   H40       1.0  0.37640  0.63800  0.95300  1.0000
  H   H41       1.0  0.73840  0.37640  0.61967  1.0000
  H   H42       1.0  0.36200  0.73840  0.28633  1.0000
  H   H43       1.0  0.26160  0.63800  0.04700  1.0000
  H   H44       1.0  0.37640  0.73840  0.71367  1.0000
  H   H45       1.0  0.36200  0.62360  0.38033  1.0000
  H   H46       1.0  0.63800  0.37640  0.38033  1.0000
  H   H47       1.0  0.73840  0.36200  0.04700  1.0000
  H   H48       1.0  0.62360  0.26160  0.71367  1.0000
  O   O49       1.0  0.10620  0.63500  0.86280  1.0000
  O   O50       1.0  0.47120  0.10620  0.52947  1.0000
  O   O51       1.0  0.36500  0.47120  0.19613  1.0000
  O   O52       1.0  0.89380  0.36500  0.86280  1.0000
  O   O53       1.0  0.52880  0.89380  0.52947  1.0000
  O   O54       1.0  0.63500  0.52880  0.19613  1.0000
  O   O55       1.0  0.47120  0.36500  0.13720  1.0000
  O   O56       1.0  0.89380  0.52880  0.80387  1.0000
  O   O57       1.0  0.63500  0.10620  0.47053  1.0000
  O   O58       1.0  0.36500  0.89380  0.47053  1.0000
  O   O59       1.0  0.52880  0.63500  0.13720  1.0000
  O   O60       1.0  0.10620  0.47120  0.80387  1.0000
  C   C109      1.0  0.14320  0.69320  0.82500  1.0000
  C   C110      1.0  0.45000  0.14320  0.49167  1.0000
  C   C111      1.0  0.30680  0.45000  0.15833  1.0000
  C   C112      1.0  0.85680  0.30680  0.82500  1.0000
  C   C113      1.0  0.55000  0.85680  0.49167  1.0000
  C   C114      1.0  0.69320  0.55000  0.15833  1.0000
  C   C115      1.0  0.45000  0.30680  0.17500  1.0000
  C   C116      1.0  0.85680  0.55000  0.84167  1.0000
  C   C117      1.0  0.69320  0.14320  0.50833  1.0000
  C   C118      1.0  0.30680  0.85680  0.50833  1.0000
  C   C119      1.0  0.55000  0.69320  0.17500  1.0000
  C   C120      1.0  0.14320  0.45000  0.84167  1.0000
  C   C121      1.0  0.33500  0.93620  0.89170  1.0000
  C   C122      1.0  0.39880  0.33500  0.55837  1.0000
  C   C123      1.0  0.06380  0.39880  0.22503  1.0000
  C   C124      1.0  0.66500  0.06380  0.89170  1.0000
  C   C125      1.0  0.60120  0.66500  0.55837  1.0000
  C   C126      1.0  0.93620  0.60120  0.22503  1.0000
  C   C127      1.0  0.39880  0.06380  0.10830  1.0000
  C   C128      1.0  0.66500  0.60120  0.77497  1.0000
  C   C129      1.0  0.93620  0.33500  0.44163  1.0000
  C   C130      1.0  0.06380  0.66500  0.44163  1.0000
  C   C131      1.0  0.60120  0.93620  0.10830  1.0000
  C   C132      1.0  0.33500  0.39880  0.77497  1.0000
  H   H49       1.0  0.35430  0.95940  0.92450  1.0000
  H   H50       1.0  0.39490  0.35430  0.59117  1.0000
  H   H51       1.0  0.04060  0.39490  0.25783  1.0000
  H   H52       1.0  0.64570  0.04060  0.92450  1.0000
  H   H53       1.0  0.60510  0.64570  0.59117  1.0000
  H   H54       1.0  0.95940  0.60510  0.25783  1.0000
  H   H55       1.0  0.39490  0.04060  0.07550  1.0000
  H   H56       1.0  0.64570  0.60510  0.74217  1.0000
  H   H57       1.0  0.95940  0.35430  0.40883  1.0000
  H   H58       1.0  0.04060  0.64570  0.40883  1.0000
  H   H59       1.0  0.60510  0.95940  0.07550  1.0000
  H   H60       1.0  0.35430  0.39490  0.74217  1.0000
  C   C133      1.0  0.27990  0.86390  0.79550  1.0000
  C   C134      1.0  0.41600  0.27990  0.46217  1.0000
  C   C135      1.0  0.13610  0.41600  0.12883  1.0000
  C   C136      1.0  0.72010  0.13610  0.79550  1.0000
  C   C137      1.0  0.58400  0.72010  0.46217  1.0000
  C   C138      1.0  0.86390  0.58400  0.12883  1.0000
  C   C139      1.0  0.41600  0.13610  0.20450  1.0000
  C   C140      1.0  0.72010  0.58400  0.87117  1.0000
  C   C141      1.0  0.86390  0.27990  0.53783  1.0000
  C   C142      1.0  0.13610  0.72010  0.53783  1.0000
  C   C143      1.0  0.58400  0.86390  0.20450  1.0000
  C   C144      1.0  0.27990  0.41600  0.87117  1.0000
  H   H61       1.0  0.26330  0.83930  0.76270  1.0000
  H   H62       1.0  0.42400  0.26330  0.42937  1.0000
  H   H63       1.0  0.16070  0.42400  0.09603  1.0000
  H   H64       1.0  0.73670  0.16070  0.76270  1.0000
  H   H65       1.0  0.57600  0.73670  0.42937  1.0000
  H   H66       1.0  0.83930  0.57600  0.09603  1.0000
  H   H67       1.0  0.42400  0.16070  0.23730  1.0000
  H   H68       1.0  0.73670  0.57600  0.90397  1.0000
  H   H69       1.0  0.83930  0.26330  0.57063  1.0000
  H   H70       1.0  0.16070  0.73670  0.57063  1.0000
  H   H71       1.0  0.57600  0.83930  0.23730  1.0000
  H   H72       1.0  0.26330  0.42400  0.90397  1.0000
  C   C145      1.0  0.55280  0.24010  0.90590  1.0000
  C   C146      1.0  0.31270  0.55280  0.57257  1.0000
  C   C147      1.0  0.75990  0.31270  0.23923  1.0000
  C   C148      1.0  0.44720  0.75990  0.90590  1.0000
  C   C149      1.0  0.68730  0.44720  0.57257  1.0000
  C   C150      1.0  0.24010  0.68730  0.23923  1.0000
  C   C151      1.0  0.31270  0.75990  0.09410  1.0000
  C   C152      1.0  0.44720  0.68730  0.76077  1.0000
  C   C153      1.0  0.24010  0.55280  0.42743  1.0000
  C   C154      1.0  0.75990  0.44720  0.42743  1.0000
  C   C155      1.0  0.68730  0.24010  0.09410  1.0000
  C   C156      1.0  0.55280  0.31270  0.76077  1.0000
  H   H73       1.0  0.61040  0.25080  0.88840  1.0000
  H   H74       1.0  0.35960  0.61040  0.55507  1.0000
  H   H75       1.0  0.74920  0.35960  0.22173  1.0000
  H   H76       1.0  0.38960  0.74920  0.88840  1.0000
  H   H77       1.0  0.64040  0.38960  0.55507  1.0000
  H   H78       1.0  0.25080  0.64040  0.22173  1.0000
  H   H79       1.0  0.35960  0.74920  0.11160  1.0000
  H   H80       1.0  0.38960  0.64040  0.77827  1.0000
  H   H81       1.0  0.25080  0.61040  0.44493  1.0000
  H   H82       1.0  0.74920  0.38960  0.44493  1.0000
  H   H83       1.0  0.64040  0.25080  0.11160  1.0000
  H   H84       1.0  0.61040  0.35960  0.77827  1.0000
  C   C157      1.0  0.35440  0.96260  0.80310  1.0000
  C   C158      1.0  0.39180  0.35440  0.46977  1.0000
  C   C159      1.0  0.03740  0.39180  0.13643  1.0000
  C   C160      1.0  0.64560  0.03740  0.80310  1.0000
  C   C161      1.0  0.60820  0.64560  0.46977  1.0000
  C   C162      1.0  0.96260  0.60820  0.13643  1.0000
  C   C163      1.0  0.39180  0.03740  0.19690  1.0000
  C   C164      1.0  0.64560  0.60820  0.86357  1.0000
  C   C165      1.0  0.96260  0.35440  0.53023  1.0000
  C   C166      1.0  0.03740  0.64560  0.53023  1.0000
  C   C167      1.0  0.60820  0.96260  0.19690  1.0000
  C   C168      1.0  0.35440  0.39180  0.86357  1.0000
  H   H85       1.0  0.38710  0.00450  0.77560  1.0000
  H   H86       1.0  0.38260  0.38710  0.44227  1.0000
  H   H87       1.0  0.99550  0.38260  0.10893  1.0000
  H   H88       1.0  0.61290  0.99550  0.77560  1.0000
  H   H89       1.0  0.61740  0.61290  0.44227  1.0000
  H   H90       1.0  0.00450  0.61740  0.10893  1.0000
  H   H91       1.0  0.38260  0.99550  0.22440  1.0000
  H   H92       1.0  0.61290  0.61740  0.89107  1.0000
  H   H93       1.0  0.00450  0.38710  0.55773  1.0000
  H   H94       1.0  0.99550  0.61290  0.55773  1.0000
  H   H95       1.0  0.61740  0.00450  0.22440  1.0000
  H   H96       1.0  0.38710  0.38260  0.89107  1.0000
