data_image0
_chemical_formula_structural       Tb4O32C4H4C4H4C4H4C4H4
_chemical_formula_sum              "Tb4 O32 C16 H16"
_cell_length_a       18.3618
_cell_length_b       6.6117
_cell_length_c       7.6222
_cell_angle_alpha    90
_cell_angle_beta     90
_cell_angle_gamma    90

_space_group_name_H-M_alt    "P 1"
_space_group_IT_number       1

loop_
  _space_group_symop_operation_xyz
  'x, y, z'

loop_
  _atom_site_type_symbol
  _atom_site_label
  _atom_site_symmetry_multiplicity
  _atom_site_fract_x
  _atom_site_fract_y
  _atom_site_fract_z
  _atom_site_occupancy
  Tb  Tb1       1.0  0.39804  0.79690  0.26610  1.0000
  Tb  Tb2       1.0  0.60196  0.20310  0.76610  1.0000
  Tb  Tb3       1.0  0.89804  0.20310  0.26610  1.0000
  Tb  Tb4       1.0  0.10196  0.79690  0.76610  1.0000
  O   O1        1.0  0.42772  0.59410  0.52240  1.0000
  O   O2        1.0  0.57228  0.40590  0.02240  1.0000
  O   O3        1.0  0.92772  0.40590  0.52240  1.0000
  O   O4        1.0  0.07228  0.59410  0.02240  1.0000
  O   O5        1.0  0.49454  0.39460  0.69200  1.0000
  O   O6        1.0  0.50546  0.60540  0.19200  1.0000
  O   O7        1.0  0.99454  0.60540  0.69200  1.0000
  O   O8        1.0  0.00546  0.39460  0.19200  1.0000
  O   O9        1.0  0.32201  0.88410  0.49320  1.0000
  O   O10       1.0  0.67799  0.11590  0.99320  1.0000
  O   O11       1.0  0.82201  0.11590  0.49320  1.0000
  O   O12       1.0  0.17799  0.88410  0.99320  1.0000
  O   O13       1.0  0.22014  0.80780  0.62860  1.0000
  O   O14       1.0  0.77986  0.19220  0.12860  1.0000
  O   O15       1.0  0.72014  0.19220  0.62860  1.0000
  O   O16       1.0  0.27986  0.80780  0.12860  1.0000
  O   O17       1.0  0.34699  0.46990  0.22080  1.0000
  O   O18       1.0  0.65301  0.53010  0.72080  1.0000
  O   O19       1.0  0.84699  0.53010  0.22080  1.0000
  O   O20       1.0  0.15301  0.46990  0.72080  1.0000
  O   O21       1.0  0.37526  0.14430  0.19320  1.0000
  O   O22       1.0  0.62474  0.85570  0.69320  1.0000
  O   O23       1.0  0.87526  0.85570  0.19320  1.0000
  O   O24       1.0  0.12474  0.14430  0.69320  1.0000
  O   O25       1.0  0.49139  0.97540  0.40720  1.0000
  O   O26       1.0  0.50861  0.02460  0.90720  1.0000
  O   O27       1.0  0.99139  0.02460  0.40720  1.0000
  O   O28       1.0  0.00861  0.97540  0.90720  1.0000
  O   O29       1.0  0.58564  0.17820  0.45820  1.0000
  O   O30       1.0  0.41436  0.82180  0.95820  1.0000
  O   O31       1.0  0.08564  0.82180  0.45820  1.0000
  O   O32       1.0  0.91436  0.17820  0.95820  1.0000
  C   C1        1.0  0.48690  0.52300  0.57430  1.0000
  C   C2        1.0  0.51310  0.47700  0.07430  1.0000
  C   C3        1.0  0.98690  0.47700  0.57430  1.0000
  C   C4        1.0  0.01310  0.52300  0.07430  1.0000
  H   H1        1.0  0.52900  0.57020  0.52020  1.0000
  H   H2        1.0  0.47100  0.42980  0.02020  1.0000
  H   H3        1.0  0.02900  0.42980  0.52020  1.0000
  H   H4        1.0  0.97100  0.57020  0.02020  1.0000
  C   C5        1.0  0.26370  0.92260  0.56510  1.0000
  C   C6        1.0  0.73630  0.07740  0.06510  1.0000
  C   C7        1.0  0.76370  0.07740  0.56510  1.0000
  C   C8        1.0  0.23630  0.92260  0.06510  1.0000
  H   H5        1.0  0.25150  0.05900  0.57130  1.0000
  H   H6        1.0  0.74850  0.94100  0.07130  1.0000
  H   H7        1.0  0.75150  0.94100  0.57130  1.0000
  H   H8        1.0  0.24850  0.05900  0.07130  1.0000
  C   C9        1.0  0.36110  0.29560  0.28010  1.0000
  C   C10       1.0  0.63890  0.70440  0.78010  1.0000
  C   C11       1.0  0.86110  0.70440  0.28010  1.0000
  C   C12       1.0  0.13890  0.29560  0.78010  1.0000
  H   H9        1.0  0.36070  0.28050  0.40140  1.0000
  H   H10       1.0  0.63930  0.71950  0.90140  1.0000
  H   H11       1.0  0.86070  0.71950  0.40140  1.0000
  H   H12       1.0  0.13930  0.28050  0.90140  1.0000
  C   C13       1.0  0.54440  0.07730  0.35960  1.0000
  C   C14       1.0  0.45560  0.92270  0.85960  1.0000
  C   C15       1.0  0.04440  0.92270  0.35960  1.0000
  C   C16       1.0  0.95560  0.07730  0.85960  1.0000
  H   H13       1.0  0.55470  0.07930  0.24020  1.0000
  H   H14       1.0  0.44530  0.92070  0.74020  1.0000
  H   H15       1.0  0.05470  0.92070  0.24020  1.0000
  H   H16       1.0  0.94530  0.07930  0.74020  1.0000
