data_image0
_chemical_formula_structural       Tb4O32C4H4C4H4C4H4C4H4
_chemical_formula_sum              "Tb4 O32 C16 H16"
_cell_length_a       18.2526
_cell_length_b       6.5815
_cell_length_c       7.6362
_cell_angle_alpha    90
_cell_angle_beta     90
_cell_angle_gamma    90

_space_group_name_H-M_alt    "P 1"
_space_group_IT_number       1

loop_
  _space_group_symop_operation_xyz
  'x, y, z'

loop_
  _atom_site_type_symbol
  _atom_site_label
  _atom_site_symmetry_multiplicity
  _atom_site_fract_x
  _atom_site_fract_y
  _atom_site_fract_z
  _atom_site_occupancy
  Tb  Tb1       1.0  0.39804  0.80123  0.26678  1.0000
  Tb  Tb2       1.0  0.60196  0.19877  0.76678  1.0000
  Tb  Tb3       1.0  0.89804  0.19877  0.26678  1.0000
  Tb  Tb4       1.0  0.10196  0.80123  0.76678  1.0000
  O   O1        1.0  0.42838  0.59270  0.51740  1.0000
  O   O2        1.0  0.57162  0.40730  0.01740  1.0000
  O   O3        1.0  0.92838  0.40730  0.51740  1.0000
  O   O4        1.0  0.07162  0.59270  0.01740  1.0000
  O   O5        1.0  0.49435  0.38990  0.69030  1.0000
  O   O6        1.0  0.50565  0.61010  0.19030  1.0000
  O   O7        1.0  0.99435  0.61010  0.69030  1.0000
  O   O8        1.0  0.00565  0.38990  0.19030  1.0000
  O   O9        1.0  0.32410  0.88690  0.49930  1.0000
  O   O10       1.0  0.67590  0.11310  0.99930  1.0000
  O   O11       1.0  0.82410  0.11310  0.49930  1.0000
  O   O12       1.0  0.17590  0.88690  0.99930  1.0000
  O   O13       1.0  0.22190  0.81960  0.64120  1.0000
  O   O14       1.0  0.77810  0.18040  0.14120  1.0000
  O   O15       1.0  0.72190  0.18040  0.64120  1.0000
  O   O16       1.0  0.27810  0.81960  0.14120  1.0000
  O   O17       1.0  0.34512  0.47470  0.22100  1.0000
  O   O18       1.0  0.65488  0.52530  0.72100  1.0000
  O   O19       1.0  0.84512  0.52530  0.22100  1.0000
  O   O20       1.0  0.15488  0.47470  0.72100  1.0000
  O   O21       1.0  0.37740  0.15030  0.19450  1.0000
  O   O22       1.0  0.62260  0.84970  0.69450  1.0000
  O   O23       1.0  0.87740  0.84970  0.19450  1.0000
  O   O24       1.0  0.12260  0.15030  0.69450  1.0000
  O   O25       1.0  0.49290  0.97620  0.41020  1.0000
  O   O26       1.0  0.50710  0.02380  0.91020  1.0000
  O   O27       1.0  0.99290  0.02380  0.41020  1.0000
  O   O28       1.0  0.00710  0.97620  0.91020  1.0000
  O   O29       1.0  0.58880  0.17850  0.45790  1.0000
  O   O30       1.0  0.41120  0.82150  0.95790  1.0000
  O   O31       1.0  0.08880  0.82150  0.45790  1.0000
  O   O32       1.0  0.91120  0.17850  0.95790  1.0000
  C   C1        1.0  0.48800  0.51820  0.57020  1.0000
  C   C2        1.0  0.51200  0.48180  0.07020  1.0000
  C   C3        1.0  0.98800  0.48180  0.57020  1.0000
  C   C4        1.0  0.01200  0.51820  0.07020  1.0000
  H   H1        1.0  0.53160  0.56300  0.51450  1.0000
  H   H2        1.0  0.46840  0.43700  0.01450  1.0000
  H   H3        1.0  0.03160  0.43700  0.51450  1.0000
  H   H4        1.0  0.96840  0.56300  0.01450  1.0000
  C   C5        1.0  0.26330  0.92940  0.56130  1.0000
  C   C6        1.0  0.73670  0.07060  0.06130  1.0000
  C   C7        1.0  0.76330  0.07060  0.56130  1.0000
  C   C8        1.0  0.23670  0.92940  0.06130  1.0000
  H   H5        1.0  0.24710  0.06510  0.54410  1.0000
  H   H6        1.0  0.75290  0.93490  0.04410  1.0000
  H   H7        1.0  0.74710  0.93490  0.54410  1.0000
  H   H8        1.0  0.25290  0.06510  0.04410  1.0000
  C   C9        1.0  0.35990  0.29950  0.28070  1.0000
  C   C10       1.0  0.64010  0.70050  0.78070  1.0000
  C   C11       1.0  0.85990  0.70050  0.28070  1.0000
  C   C12       1.0  0.14010  0.29950  0.78070  1.0000
  H   H9        1.0  0.35710  0.28250  0.40400  1.0000
  H   H10       1.0  0.64290  0.71750  0.90400  1.0000
  H   H11       1.0  0.85710  0.71750  0.40400  1.0000
  H   H12       1.0  0.14290  0.28250  0.90400  1.0000
  C   C13       1.0  0.54590  0.07870  0.36010  1.0000
  C   C14       1.0  0.45410  0.92130  0.86010  1.0000
  C   C15       1.0  0.04590  0.92130  0.36010  1.0000
  C   C16       1.0  0.95410  0.07870  0.86010  1.0000
  H   H13       1.0  0.55510  0.08280  0.23770  1.0000
  H   H14       1.0  0.44490  0.91720  0.73770  1.0000
  H   H15       1.0  0.05510  0.91720  0.23770  1.0000
  H   H16       1.0  0.94490  0.08280  0.73770  1.0000
