data_image0
_chemical_formula_structural       Tm4O32C4H4C4H4C4H4C4H4
_chemical_formula_sum              "Tm4 O32 C16 H16"
_cell_length_a       18.2946
_cell_length_b       6.5596
_cell_length_c       7.5503
_cell_angle_alpha    90
_cell_angle_beta     90
_cell_angle_gamma    90

_space_group_name_H-M_alt    "P 1"
_space_group_IT_number       1

loop_
  _space_group_symop_operation_xyz
  'x, y, z'

loop_
  _atom_site_type_symbol
  _atom_site_label
  _atom_site_symmetry_multiplicity
  _atom_site_fract_x
  _atom_site_fract_y
  _atom_site_fract_z
  _atom_site_occupancy
  Tm  Tm1       1.0  0.39791  0.79345  0.26689  1.0000
  Tm  Tm2       1.0  0.60209  0.20655  0.76689  1.0000
  Tm  Tm3       1.0  0.89791  0.20655  0.26689  1.0000
  Tm  Tm4       1.0  0.10209  0.79345  0.76689  1.0000
  O   O1        1.0  0.42749  0.59460  0.52410  1.0000
  O   O2        1.0  0.57251  0.40540  0.02410  1.0000
  O   O3        1.0  0.92749  0.40540  0.52410  1.0000
  O   O4        1.0  0.07251  0.59460  0.02410  1.0000
  O   O5        1.0  0.49545  0.39440  0.69400  1.0000
  O   O6        1.0  0.50455  0.60560  0.19400  1.0000
  O   O7        1.0  0.99545  0.60560  0.69400  1.0000
  O   O8        1.0  0.00455  0.39440  0.19400  1.0000
  O   O9        1.0  0.32100  0.87410  0.48970  1.0000
  O   O10       1.0  0.67900  0.12590  0.98970  1.0000
  O   O11       1.0  0.82100  0.12590  0.48970  1.0000
  O   O12       1.0  0.17900  0.87410  0.98970  1.0000
  O   O13       1.0  0.21850  0.80020  0.62560  1.0000
  O   O14       1.0  0.78150  0.19980  0.12560  1.0000
  O   O15       1.0  0.71850  0.19980  0.62560  1.0000
  O   O16       1.0  0.28150  0.80020  0.12560  1.0000
  O   O17       1.0  0.34876  0.46680  0.21940  1.0000
  O   O18       1.0  0.65124  0.53320  0.71940  1.0000
  O   O19       1.0  0.84876  0.53320  0.21940  1.0000
  O   O20       1.0  0.15124  0.46680  0.71940  1.0000
  O   O21       1.0  0.37390  0.13950  0.19550  1.0000
  O   O22       1.0  0.62610  0.86050  0.69550  1.0000
  O   O23       1.0  0.87390  0.86050  0.19550  1.0000
  O   O24       1.0  0.12610  0.13950  0.69550  1.0000
  O   O25       1.0  0.48890  0.97310  0.40750  1.0000
  O   O26       1.0  0.51110  0.02690  0.90750  1.0000
  O   O27       1.0  0.98890  0.02690  0.40750  1.0000
  O   O28       1.0  0.01110  0.97310  0.90750  1.0000
  O   O29       1.0  0.58400  0.17350  0.46220  1.0000
  O   O30       1.0  0.41600  0.82650  0.96220  1.0000
  O   O31       1.0  0.08400  0.82650  0.46220  1.0000
  O   O32       1.0  0.91600  0.17350  0.96220  1.0000
  C   C1        1.0  0.48760  0.52400  0.57510  1.0000
  C   C2        1.0  0.51240  0.47600  0.07510  1.0000
  C   C3        1.0  0.98760  0.47600  0.57510  1.0000
  C   C4        1.0  0.01240  0.52400  0.07510  1.0000
  H   H1        1.0  0.52960  0.57230  0.51980  1.0000
  H   H2        1.0  0.47040  0.42770  0.01980  1.0000
  H   H3        1.0  0.02960  0.42770  0.51980  1.0000
  H   H4        1.0  0.97040  0.57230  0.01980  1.0000
  C   C5        1.0  0.26310  0.91420  0.56190  1.0000
  C   C6        1.0  0.73690  0.08580  0.06190  1.0000
  C   C7        1.0  0.76310  0.08580  0.56190  1.0000
  C   C8        1.0  0.23690  0.91420  0.06190  1.0000
  H   H5        1.0  0.25170  0.05220  0.56870  1.0000
  H   H6        1.0  0.74830  0.94780  0.06870  1.0000
  H   H7        1.0  0.75170  0.94780  0.56870  1.0000
  H   H8        1.0  0.24830  0.05220  0.06870  1.0000
  C   C9        1.0  0.36240  0.29230  0.27890  1.0000
  C   C10       1.0  0.63760  0.70770  0.77890  1.0000
  C   C11       1.0  0.86240  0.70770  0.27890  1.0000
  C   C12       1.0  0.13760  0.29230  0.77890  1.0000
  H   H9        1.0  0.36390  0.27980  0.40160  1.0000
  H   H10       1.0  0.63610  0.72020  0.90160  1.0000
  H   H11       1.0  0.86390  0.72020  0.40160  1.0000
  H   H12       1.0  0.13610  0.27980  0.90160  1.0000
  C   C13       1.0  0.54220  0.07430  0.36290  1.0000
  C   C14       1.0  0.45780  0.92570  0.86290  1.0000
  C   C15       1.0  0.04220  0.92570  0.36290  1.0000
  C   C16       1.0  0.95780  0.07430  0.86290  1.0000
  H   H13       1.0  0.55270  0.07770  0.24240  1.0000
  H   H14       1.0  0.44730  0.92230  0.74240  1.0000
  H   H15       1.0  0.05270  0.92230  0.24240  1.0000
  H   H16       1.0  0.94730  0.07770  0.74240  1.0000
