data_image0
_chemical_formula_structural       Tm4O32C4H4C4H4C4H4C4H4
_chemical_formula_sum              "Tm4 O32 C16 H16"
_cell_length_a       18.1409
_cell_length_b       6.5415
_cell_length_c       7.5452
_cell_angle_alpha    90
_cell_angle_beta     90
_cell_angle_gamma    90

_space_group_name_H-M_alt    "P 1"
_space_group_IT_number       1

loop_
  _space_group_symop_operation_xyz
  'x, y, z'

loop_
  _atom_site_type_symbol
  _atom_site_label
  _atom_site_symmetry_multiplicity
  _atom_site_fract_x
  _atom_site_fract_y
  _atom_site_fract_z
  _atom_site_occupancy
  Tm  Tm1       1.0  0.39793  0.79441  0.26604  1.0000
  Tm  Tm2       1.0  0.60207  0.20559  0.76604  1.0000
  Tm  Tm3       1.0  0.89793  0.20559  0.26604  1.0000
  Tm  Tm4       1.0  0.10207  0.79441  0.76604  1.0000
  O   O1        1.0  0.42678  0.59350  0.52210  1.0000
  O   O2        1.0  0.57322  0.40650  0.02210  1.0000
  O   O3        1.0  0.92678  0.40650  0.52210  1.0000
  O   O4        1.0  0.07322  0.59350  0.02210  1.0000
  O   O5        1.0  0.49489  0.39380  0.69410  1.0000
  O   O6        1.0  0.50511  0.60620  0.19410  1.0000
  O   O7        1.0  0.99489  0.60620  0.69410  1.0000
  O   O8        1.0  0.00511  0.39380  0.19410  1.0000
  O   O9        1.0  0.32213  0.88320  0.48930  1.0000
  O   O10       1.0  0.67787  0.11680  0.98930  1.0000
  O   O11       1.0  0.82213  0.11680  0.48930  1.0000
  O   O12       1.0  0.17787  0.88320  0.98930  1.0000
  O   O13       1.0  0.21830  0.80390  0.62480  1.0000
  O   O14       1.0  0.78170  0.19610  0.12480  1.0000
  O   O15       1.0  0.71830  0.19610  0.62480  1.0000
  O   O16       1.0  0.28170  0.80390  0.12480  1.0000
  O   O17       1.0  0.34776  0.46770  0.22100  1.0000
  O   O18       1.0  0.65224  0.53230  0.72100  1.0000
  O   O19       1.0  0.84776  0.53230  0.22100  1.0000
  O   O20       1.0  0.15224  0.46770  0.72100  1.0000
  O   O21       1.0  0.37609  0.13910  0.19300  1.0000
  O   O22       1.0  0.62391  0.86090  0.69300  1.0000
  O   O23       1.0  0.87609  0.86090  0.19300  1.0000
  O   O24       1.0  0.12391  0.13910  0.69300  1.0000
  O   O25       1.0  0.48964  0.97250  0.40960  1.0000
  O   O26       1.0  0.51036  0.02750  0.90960  1.0000
  O   O27       1.0  0.98964  0.02750  0.40960  1.0000
  O   O28       1.0  0.01036  0.97250  0.90960  1.0000
  O   O29       1.0  0.58440  0.17930  0.46120  1.0000
  O   O30       1.0  0.41560  0.82070  0.96120  1.0000
  O   O31       1.0  0.08440  0.82070  0.46120  1.0000
  O   O32       1.0  0.91560  0.17930  0.96120  1.0000
  C   C1        1.0  0.48750  0.52430  0.57500  1.0000
  C   C2        1.0  0.51250  0.47570  0.07500  1.0000
  C   C3        1.0  0.98750  0.47570  0.57500  1.0000
  C   C4        1.0  0.01250  0.52430  0.07500  1.0000
  H   H1        1.0  0.53090  0.57510  0.52030  1.0000
  H   H2        1.0  0.46910  0.42490  0.02030  1.0000
  H   H3        1.0  0.03090  0.42490  0.52030  1.0000
  H   H4        1.0  0.96910  0.57510  0.02030  1.0000
  C   C5        1.0  0.26410  0.92250  0.56600  1.0000
  C   C6        1.0  0.73590  0.07750  0.06600  1.0000
  C   C7        1.0  0.76410  0.07750  0.56600  1.0000
  C   C8        1.0  0.23590  0.92250  0.06600  1.0000
  H   H5        1.0  0.25350  0.06360  0.58160  1.0000
  H   H6        1.0  0.74650  0.93640  0.08160  1.0000
  H   H7        1.0  0.75350  0.93640  0.58160  1.0000
  H   H8        1.0  0.24650  0.06360  0.08160  1.0000
  C   C9        1.0  0.36230  0.29350  0.28290  1.0000
  C   C10       1.0  0.63770  0.70650  0.78290  1.0000
  C   C11       1.0  0.86230  0.70650  0.28290  1.0000
  C   C12       1.0  0.13770  0.29350  0.78290  1.0000
  H   H9        1.0  0.36280  0.27900  0.40810  1.0000
  H   H10       1.0  0.63720  0.72100  0.90810  1.0000
  H   H11       1.0  0.86280  0.72100  0.40810  1.0000
  H   H12       1.0  0.13720  0.27900  0.90810  1.0000
  C   C13       1.0  0.54310  0.07730  0.36100  1.0000
  C   C14       1.0  0.45690  0.92270  0.86100  1.0000
  C   C15       1.0  0.04310  0.92270  0.36100  1.0000
  C   C16       1.0  0.95690  0.07730  0.86100  1.0000
  H   H13       1.0  0.55360  0.08060  0.23770  1.0000
  H   H14       1.0  0.44640  0.91940  0.73770  1.0000
  H   H15       1.0  0.05360  0.91940  0.23770  1.0000
  H   H16       1.0  0.94640  0.08060  0.73770  1.0000
