data_image0
_chemical_formula_structural       Tm4O32C4H4C4H4C4H4C4H4
_chemical_formula_sum              "Tm4 O32 C16 H16"
_cell_length_a       18.2293
_cell_length_b       6.5489
_cell_length_c       7.5428
_cell_angle_alpha    90
_cell_angle_beta     90
_cell_angle_gamma    90

_space_group_name_H-M_alt    "P 1"
_space_group_IT_number       1

loop_
  _space_group_symop_operation_xyz
  'x, y, z'

loop_
  _atom_site_type_symbol
  _atom_site_label
  _atom_site_symmetry_multiplicity
  _atom_site_fract_x
  _atom_site_fract_y
  _atom_site_fract_z
  _atom_site_occupancy
  Tm  Tm1       1.0  0.39789  0.79393  0.26682  1.0000
  Tm  Tm2       1.0  0.60211  0.20607  0.76682  1.0000
  Tm  Tm3       1.0  0.89789  0.20607  0.26682  1.0000
  Tm  Tm4       1.0  0.10211  0.79393  0.76682  1.0000
  O   O1        1.0  0.42720  0.59500  0.52440  1.0000
  O   O2        1.0  0.57280  0.40500  0.02440  1.0000
  O   O3        1.0  0.92720  0.40500  0.52440  1.0000
  O   O4        1.0  0.07280  0.59500  0.02440  1.0000
  O   O5        1.0  0.49540  0.39340  0.69450  1.0000
  O   O6        1.0  0.50460  0.60660  0.19450  1.0000
  O   O7        1.0  0.99540  0.60660  0.69450  1.0000
  O   O8        1.0  0.00460  0.39340  0.19450  1.0000
  O   O9        1.0  0.32180  0.87830  0.49070  1.0000
  O   O10       1.0  0.67820  0.12170  0.99070  1.0000
  O   O11       1.0  0.82180  0.12170  0.49070  1.0000
  O   O12       1.0  0.17820  0.87830  0.99070  1.0000
  O   O13       1.0  0.21880  0.80140  0.62600  1.0000
  O   O14       1.0  0.78120  0.19860  0.12600  1.0000
  O   O15       1.0  0.71880  0.19860  0.62600  1.0000
  O   O16       1.0  0.28120  0.80140  0.12600  1.0000
  O   O17       1.0  0.34800  0.46680  0.22130  1.0000
  O   O18       1.0  0.65200  0.53320  0.72130  1.0000
  O   O19       1.0  0.84800  0.53320  0.22130  1.0000
  O   O20       1.0  0.15200  0.46680  0.72130  1.0000
  O   O21       1.0  0.37450  0.13990  0.19460  1.0000
  O   O22       1.0  0.62550  0.86010  0.69460  1.0000
  O   O23       1.0  0.87450  0.86010  0.19460  1.0000
  O   O24       1.0  0.12550  0.13990  0.69460  1.0000
  O   O25       1.0  0.48930  0.97300  0.40820  1.0000
  O   O26       1.0  0.51070  0.02700  0.90820  1.0000
  O   O27       1.0  0.98930  0.02700  0.40820  1.0000
  O   O28       1.0  0.01070  0.97300  0.90820  1.0000
  O   O29       1.0  0.58480  0.17620  0.46190  1.0000
  O   O30       1.0  0.41520  0.82380  0.96190  1.0000
  O   O31       1.0  0.08480  0.82380  0.46190  1.0000
  O   O32       1.0  0.91520  0.17620  0.96190  1.0000
  C   C1        1.0  0.48750  0.52380  0.57490  1.0000
  C   C2        1.0  0.51250  0.47620  0.07490  1.0000
  C   C3        1.0  0.98750  0.47620  0.57490  1.0000
  C   C4        1.0  0.01250  0.52380  0.07490  1.0000
  H   H1        1.0  0.52960  0.57160  0.51910  1.0000
  H   H2        1.0  0.47040  0.42840  0.01910  1.0000
  H   H3        1.0  0.02960  0.42840  0.51910  1.0000
  H   H4        1.0  0.97040  0.57160  0.01910  1.0000
  C   C5        1.0  0.26340  0.91920  0.56470  1.0000
  C   C6        1.0  0.73660  0.08080  0.06470  1.0000
  C   C7        1.0  0.76340  0.08080  0.56470  1.0000
  C   C8        1.0  0.23660  0.91920  0.06470  1.0000
  H   H5        1.0  0.25220  0.05720  0.57480  1.0000
  H   H6        1.0  0.74780  0.94280  0.07480  1.0000
  H   H7        1.0  0.75220  0.94280  0.57480  1.0000
  H   H8        1.0  0.24780  0.05720  0.07480  1.0000
  C   C9        1.0  0.36230  0.29320  0.28180  1.0000
  C   C10       1.0  0.63770  0.70680  0.78180  1.0000
  C   C11       1.0  0.86230  0.70680  0.28180  1.0000
  C   C12       1.0  0.13770  0.29320  0.78180  1.0000
  H   H9        1.0  0.36360  0.27980  0.40450  1.0000
  H   H10       1.0  0.63640  0.72020  0.90450  1.0000
  H   H11       1.0  0.86360  0.72020  0.40450  1.0000
  H   H12       1.0  0.13640  0.27980  0.90450  1.0000
  C   C13       1.0  0.54170  0.07540  0.36170  1.0000
  C   C14       1.0  0.45830  0.92460  0.86170  1.0000
  C   C15       1.0  0.04170  0.92460  0.36170  1.0000
  C   C16       1.0  0.95830  0.07540  0.86170  1.0000
  H   H13       1.0  0.55130  0.08050  0.24070  1.0000
  H   H14       1.0  0.44870  0.91950  0.74070  1.0000
  H   H15       1.0  0.05130  0.91950  0.24070  1.0000
  H   H16       1.0  0.94870  0.08050  0.74070  1.0000
