data_image0
_chemical_formula_structural       Tm4O32C4H4C4H4C4H4C4H4
_chemical_formula_sum              "Tm4 O32 C16 H16"
_cell_length_a       17.9828
_cell_length_b       6.4893
_cell_length_c       7.6123
_cell_angle_alpha    90
_cell_angle_beta     90
_cell_angle_gamma    90

_space_group_name_H-M_alt    "P 1"
_space_group_IT_number       1

loop_
  _space_group_symop_operation_xyz
  'x, y, z'

loop_
  _atom_site_type_symbol
  _atom_site_label
  _atom_site_symmetry_multiplicity
  _atom_site_fract_x
  _atom_site_fract_y
  _atom_site_fract_z
  _atom_site_occupancy
  Tm  Tm1       1.0  0.39792  0.80640  0.27110  1.0000
  Tm  Tm2       1.0  0.60208  0.19360  0.77110  1.0000
  Tm  Tm3       1.0  0.89792  0.19360  0.27110  1.0000
  Tm  Tm4       1.0  0.10208  0.80640  0.77110  1.0000
  O   O1        1.0  0.42949  0.58680  0.51190  1.0000
  O   O2        1.0  0.57051  0.41320  0.01190  1.0000
  O   O3        1.0  0.92949  0.41320  0.51190  1.0000
  O   O4        1.0  0.07051  0.58680  0.01190  1.0000
  O   O5        1.0  0.49564  0.38120  0.68640  1.0000
  O   O6        1.0  0.50436  0.61880  0.18640  1.0000
  O   O7        1.0  0.99564  0.61880  0.68640  1.0000
  O   O8        1.0  0.00436  0.38120  0.18640  1.0000
  O   O9        1.0  0.32744  0.88420  0.51050  1.0000
  O   O10       1.0  0.67256  0.11580  0.01050  1.0000
  O   O11       1.0  0.82744  0.11580  0.51050  1.0000
  O   O12       1.0  0.17256  0.88420  0.01050  1.0000
  O   O13       1.0  0.22432  0.83760  0.66470  1.0000
  O   O14       1.0  0.77568  0.16240  0.16470  1.0000
  O   O15       1.0  0.72432  0.16240  0.66470  1.0000
  O   O16       1.0  0.27568  0.83760  0.16470  1.0000
  O   O17       1.0  0.34338  0.48250  0.21980  1.0000
  O   O18       1.0  0.65662  0.51750  0.71980  1.0000
  O   O19       1.0  0.84338  0.51750  0.21980  1.0000
  O   O20       1.0  0.15662  0.48250  0.71980  1.0000
  O   O21       1.0  0.38040  0.15630  0.19990  1.0000
  O   O22       1.0  0.61960  0.84370  0.69990  1.0000
  O   O23       1.0  0.88040  0.84370  0.19990  1.0000
  O   O24       1.0  0.11960  0.15630  0.69990  1.0000
  O   O25       1.0  0.49257  0.97610  0.41750  1.0000
  O   O26       1.0  0.50743  0.02390  0.91750  1.0000
  O   O27       1.0  0.99257  0.02390  0.41750  1.0000
  O   O28       1.0  0.00743  0.97610  0.91750  1.0000
  O   O29       1.0  0.59244  0.17170  0.46500  1.0000
  O   O30       1.0  0.40756  0.82830  0.96500  1.0000
  O   O31       1.0  0.09244  0.82830  0.46500  1.0000
  O   O32       1.0  0.90756  0.17170  0.96500  1.0000
  C   C1        1.0  0.49020  0.51130  0.56520  1.0000
  C   C2        1.0  0.50980  0.48870  0.06520  1.0000
  C   C3        1.0  0.99020  0.48870  0.56520  1.0000
  C   C4        1.0  0.00980  0.51130  0.06520  1.0000
  H   H1        1.0  0.53470  0.55600  0.50970  1.0000
  H   H2        1.0  0.46530  0.44400  0.00970  1.0000
  H   H3        1.0  0.03470  0.44400  0.50970  1.0000
  H   H4        1.0  0.96530  0.55600  0.00970  1.0000
  C   C5        1.0  0.26080  0.92560  0.54850  1.0000
  C   C6        1.0  0.73920  0.07440  0.04850  1.0000
  C   C7        1.0  0.76080  0.07440  0.54850  1.0000
  C   C8        1.0  0.23920  0.92560  0.04850  1.0000
  H   H5        1.0  0.23690  0.03170  0.48370  1.0000
  H   H6        1.0  0.76310  0.96830  0.98370  1.0000
  H   H7        1.0  0.73690  0.96830  0.48370  1.0000
  H   H8        1.0  0.26310  0.03170  0.98370  1.0000
  C   C9        1.0  0.35660  0.30540  0.28230  1.0000
  C   C10       1.0  0.64340  0.69460  0.78230  1.0000
  C   C11       1.0  0.85660  0.69460  0.28230  1.0000
  C   C12       1.0  0.14340  0.30540  0.78230  1.0000
  H   H9        1.0  0.34710  0.28580  0.40400  1.0000
  H   H10       1.0  0.65290  0.71420  0.90400  1.0000
  H   H11       1.0  0.84710  0.71420  0.40400  1.0000
  H   H12       1.0  0.15290  0.28580  0.90400  1.0000
  C   C13       1.0  0.54700  0.07730  0.36590  1.0000
  C   C14       1.0  0.45300  0.92270  0.86590  1.0000
  C   C15       1.0  0.04700  0.92270  0.36590  1.0000
  C   C16       1.0  0.95300  0.07730  0.86590  1.0000
  H   H13       1.0  0.55520  0.08460  0.24270  1.0000
  H   H14       1.0  0.44480  0.91540  0.74270  1.0000
  H   H15       1.0  0.05520  0.91540  0.24270  1.0000
  H   H16       1.0  0.94480  0.08460  0.74270  1.0000
