data_image0
_chemical_formula_structural       Ho4O32C4H4C4H4C4H4C4H4
_chemical_formula_sum              "Ho4 O32 C16 H16"
_cell_length_a       18.3001
_cell_length_b       6.5853
_cell_length_c       7.5817
_cell_angle_alpha    90
_cell_angle_beta     90
_cell_angle_gamma    90

_space_group_name_H-M_alt    "P 1"
_space_group_IT_number       1

loop_
  _space_group_symop_operation_xyz
  'x, y, z'

loop_
  _atom_site_type_symbol
  _atom_site_label
  _atom_site_symmetry_multiplicity
  _atom_site_fract_x
  _atom_site_fract_y
  _atom_site_fract_z
  _atom_site_occupancy
  Ho  Ho1       1.0  0.39796  0.79522  0.26609  1.0000
  Ho  Ho2       1.0  0.60204  0.20478  0.76609  1.0000
  Ho  Ho3       1.0  0.89796  0.20478  0.26609  1.0000
  Ho  Ho4       1.0  0.10204  0.79522  0.76609  1.0000
  O   O1        1.0  0.42730  0.59480  0.52300  1.0000
  O   O2        1.0  0.57270  0.40520  0.02300  1.0000
  O   O3        1.0  0.92730  0.40520  0.52300  1.0000
  O   O4        1.0  0.07270  0.59480  0.02300  1.0000
  O   O5        1.0  0.49480  0.39440  0.69360  1.0000
  O   O6        1.0  0.50520  0.60560  0.19360  1.0000
  O   O7        1.0  0.99480  0.60560  0.69360  1.0000
  O   O8        1.0  0.00520  0.39440  0.19360  1.0000
  O   O9        1.0  0.32210  0.88140  0.49090  1.0000
  O   O10       1.0  0.67790  0.11860  0.99090  1.0000
  O   O11       1.0  0.82210  0.11860  0.49090  1.0000
  O   O12       1.0  0.17790  0.88140  0.99090  1.0000
  O   O13       1.0  0.21950  0.80450  0.62590  1.0000
  O   O14       1.0  0.78050  0.19550  0.12590  1.0000
  O   O15       1.0  0.71950  0.19550  0.62590  1.0000
  O   O16       1.0  0.28050  0.80450  0.12590  1.0000
  O   O17       1.0  0.34766  0.46830  0.22010  1.0000
  O   O18       1.0  0.65234  0.53170  0.72010  1.0000
  O   O19       1.0  0.84766  0.53170  0.22010  1.0000
  O   O20       1.0  0.15234  0.46830  0.72010  1.0000
  O   O21       1.0  0.37450  0.14210  0.19280  1.0000
  O   O22       1.0  0.62550  0.85790  0.69280  1.0000
  O   O23       1.0  0.87450  0.85790  0.19280  1.0000
  O   O24       1.0  0.12550  0.14210  0.69280  1.0000
  O   O25       1.0  0.49030  0.97380  0.40800  1.0000
  O   O26       1.0  0.50970  0.02620  0.90800  1.0000
  O   O27       1.0  0.99030  0.02620  0.40800  1.0000
  O   O28       1.0  0.00970  0.97380  0.90800  1.0000
  O   O29       1.0  0.58470  0.17750  0.45900  1.0000
  O   O30       1.0  0.41530  0.82250  0.95900  1.0000
  O   O31       1.0  0.08470  0.82250  0.45900  1.0000
  O   O32       1.0  0.91530  0.17750  0.95900  1.0000
  C   C1        1.0  0.48740  0.52390  0.57460  1.0000
  C   C2        1.0  0.51260  0.47610  0.07460  1.0000
  C   C3        1.0  0.98740  0.47610  0.57460  1.0000
  C   C4        1.0  0.01260  0.52390  0.07460  1.0000
  H   H1        1.0  0.52960  0.57150  0.52000  1.0000
  H   H2        1.0  0.47040  0.42850  0.02000  1.0000
  H   H3        1.0  0.02960  0.42850  0.52000  1.0000
  H   H4        1.0  0.97040  0.57150  0.02000  1.0000
  C   C5        1.0  0.26350  0.91960  0.56410  1.0000
  C   C6        1.0  0.73650  0.08040  0.06410  1.0000
  C   C7        1.0  0.76350  0.08040  0.56410  1.0000
  C   C8        1.0  0.23650  0.91960  0.06410  1.0000
  H   H5        1.0  0.25170  0.05660  0.57260  1.0000
  H   H6        1.0  0.74830  0.94340  0.07260  1.0000
  H   H7        1.0  0.75170  0.94340  0.57260  1.0000
  H   H8        1.0  0.24830  0.05660  0.07260  1.0000
  C   C9        1.0  0.36190  0.29390  0.28050  1.0000
  C   C10       1.0  0.63810  0.70610  0.78050  1.0000
  C   C11       1.0  0.86190  0.70610  0.28050  1.0000
  C   C12       1.0  0.13810  0.29390  0.78050  1.0000
  H   H9        1.0  0.36270  0.27970  0.40250  1.0000
  H   H10       1.0  0.63730  0.72030  0.90250  1.0000
  H   H11       1.0  0.86270  0.72030  0.40250  1.0000
  H   H12       1.0  0.13730  0.27970  0.90250  1.0000
  C   C13       1.0  0.54380  0.07610  0.36030  1.0000
  C   C14       1.0  0.45620  0.92390  0.86030  1.0000
  C   C15       1.0  0.04380  0.92390  0.36030  1.0000
  C   C16       1.0  0.95620  0.07610  0.86030  1.0000
  H   H13       1.0  0.55450  0.07730  0.24040  1.0000
  H   H14       1.0  0.44550  0.92270  0.74040  1.0000
  H   H15       1.0  0.05450  0.92270  0.24040  1.0000
  H   H16       1.0  0.94550  0.07730  0.74040  1.0000
