data_image0
_chemical_formula_structural       Yb4O32C4H4C4H4C4H4C4H4
_chemical_formula_sum              "Yb4 O32 C16 H16"
_cell_length_a       18.2137
_cell_length_b       6.5437
_cell_length_c       7.5326
_cell_angle_alpha    90
_cell_angle_beta     90
_cell_angle_gamma    90

_space_group_name_H-M_alt    "P 1"
_space_group_IT_number       1

loop_
  _space_group_symop_operation_xyz
  'x, y, z'

loop_
  _atom_site_type_symbol
  _atom_site_label
  _atom_site_symmetry_multiplicity
  _atom_site_fract_x
  _atom_site_fract_y
  _atom_site_fract_z
  _atom_site_occupancy
  Yb  Yb1       1.0  0.39787  0.79326  0.26610  1.0000
  Yb  Yb2       1.0  0.60213  0.20674  0.76610  1.0000
  Yb  Yb3       1.0  0.89787  0.20674  0.26610  1.0000
  Yb  Yb4       1.0  0.10213  0.79326  0.76610  1.0000
  O   O1        1.0  0.42718  0.59480  0.52360  1.0000
  O   O2        1.0  0.57282  0.40520  0.02360  1.0000
  O   O3        1.0  0.92718  0.40520  0.52360  1.0000
  O   O4        1.0  0.07282  0.59480  0.02360  1.0000
  O   O5        1.0  0.49503  0.39470  0.69430  1.0000
  O   O6        1.0  0.50497  0.60530  0.19430  1.0000
  O   O7        1.0  0.99503  0.60530  0.69430  1.0000
  O   O8        1.0  0.00497  0.39470  0.19430  1.0000
  O   O9        1.0  0.32153  0.87800  0.48800  1.0000
  O   O10       1.0  0.67847  0.12200  0.98800  1.0000
  O   O11       1.0  0.82153  0.12200  0.48800  1.0000
  O   O12       1.0  0.17847  0.87800  0.98800  1.0000
  O   O13       1.0  0.21828  0.80100  0.62370  1.0000
  O   O14       1.0  0.78172  0.19900  0.12370  1.0000
  O   O15       1.0  0.71828  0.19900  0.62370  1.0000
  O   O16       1.0  0.28172  0.80100  0.12370  1.0000
  O   O17       1.0  0.34877  0.46760  0.21940  1.0000
  O   O18       1.0  0.65123  0.53240  0.71940  1.0000
  O   O19       1.0  0.84877  0.53240  0.21940  1.0000
  O   O20       1.0  0.15123  0.46760  0.71940  1.0000
  O   O21       1.0  0.37436  0.13880  0.19290  1.0000
  O   O22       1.0  0.62564  0.86120  0.69290  1.0000
  O   O23       1.0  0.87436  0.86120  0.19290  1.0000
  O   O24       1.0  0.12564  0.13880  0.69290  1.0000
  O   O25       1.0  0.48881  0.97180  0.40870  1.0000
  O   O26       1.0  0.51119  0.02820  0.90870  1.0000
  O   O27       1.0  0.98881  0.02820  0.40870  1.0000
  O   O28       1.0  0.01119  0.97180  0.90870  1.0000
  O   O29       1.0  0.58370  0.17560  0.46220  1.0000
  O   O30       1.0  0.41630  0.82440  0.96220  1.0000
  O   O31       1.0  0.08370  0.82440  0.46220  1.0000
  O   O32       1.0  0.91630  0.17560  0.96220  1.0000
  C   C1        1.0  0.48730  0.52300  0.57460  1.0000
  C   C2        1.0  0.51270  0.47700  0.07460  1.0000
  C   C3        1.0  0.98730  0.47700  0.57460  1.0000
  C   C4        1.0  0.01270  0.52300  0.07460  1.0000
  H   H1        1.0  0.52950  0.56960  0.51820  1.0000
  H   H2        1.0  0.47050  0.43040  0.01820  1.0000
  H   H3        1.0  0.02950  0.43040  0.51820  1.0000
  H   H4        1.0  0.97050  0.56960  0.01820  1.0000
  C   C5        1.0  0.26370  0.91700  0.56320  1.0000
  C   C6        1.0  0.73630  0.08300  0.06320  1.0000
  C   C7        1.0  0.76370  0.08300  0.56320  1.0000
  C   C8        1.0  0.23630  0.91700  0.06320  1.0000
  H   H5        1.0  0.25300  0.05520  0.57560  1.0000
  H   H6        1.0  0.74700  0.94480  0.07560  1.0000
  H   H7        1.0  0.75300  0.94480  0.57560  1.0000
  H   H8        1.0  0.24700  0.05520  0.07560  1.0000
  C   C9        1.0  0.36270  0.29230  0.28020  1.0000
  C   C10       1.0  0.63730  0.70770  0.78020  1.0000
  C   C11       1.0  0.86270  0.70770  0.28020  1.0000
  C   C12       1.0  0.13730  0.29230  0.78020  1.0000
  H   H9        1.0  0.36420  0.27890  0.40310  1.0000
  H   H10       1.0  0.63580  0.72110  0.90310  1.0000
  H   H11       1.0  0.86420  0.72110  0.40310  1.0000
  H   H12       1.0  0.13580  0.27890  0.90310  1.0000
  C   C13       1.0  0.54250  0.07620  0.36180  1.0000
  C   C14       1.0  0.45750  0.92380  0.86180  1.0000
  C   C15       1.0  0.04250  0.92380  0.36180  1.0000
  C   C16       1.0  0.95750  0.07620  0.86180  1.0000
  H   H13       1.0  0.55280  0.08060  0.24100  1.0000
  H   H14       1.0  0.44720  0.91940  0.74100  1.0000
  H   H15       1.0  0.05280  0.91940  0.24100  1.0000
  H   H16       1.0  0.94720  0.08060  0.74100  1.0000
