data_image0
_chemical_formula_structural       Yb4O32C4H4C4H4C4H4C4H4
_chemical_formula_sum              "Yb4 O32 C16 H16"
_cell_length_a       18.1272
_cell_length_b       6.5391
_cell_length_c       7.5198
_cell_angle_alpha    90
_cell_angle_beta     90
_cell_angle_gamma    90

_space_group_name_H-M_alt    "P 1"
_space_group_IT_number       1

loop_
  _space_group_symop_operation_xyz
  'x, y, z'

loop_
  _atom_site_type_symbol
  _atom_site_label
  _atom_site_symmetry_multiplicity
  _atom_site_fract_x
  _atom_site_fract_y
  _atom_site_fract_z
  _atom_site_occupancy
  Yb  Yb1       1.0  0.39789  0.79214  0.26601  1.0000
  Yb  Yb2       1.0  0.60211  0.20786  0.76601  1.0000
  Yb  Yb3       1.0  0.89789  0.20786  0.26601  1.0000
  Yb  Yb4       1.0  0.10211  0.79214  0.76601  1.0000
  O   O1        1.0  0.42638  0.59450  0.52420  1.0000
  O   O2        1.0  0.57362  0.40550  0.02420  1.0000
  O   O3        1.0  0.92638  0.40550  0.52420  1.0000
  O   O4        1.0  0.07362  0.59450  0.02420  1.0000
  O   O5        1.0  0.49458  0.39590  0.69640  1.0000
  O   O6        1.0  0.50542  0.60410  0.19640  1.0000
  O   O7        1.0  0.99458  0.60410  0.69640  1.0000
  O   O8        1.0  0.00542  0.39590  0.19640  1.0000
  O   O9        1.0  0.32127  0.88240  0.48560  1.0000
  O   O10       1.0  0.67873  0.11760  0.98560  1.0000
  O   O11       1.0  0.82127  0.11760  0.48560  1.0000
  O   O12       1.0  0.17873  0.88240  0.98560  1.0000
  O   O13       1.0  0.21743  0.79890  0.62060  1.0000
  O   O14       1.0  0.78257  0.20110  0.12060  1.0000
  O   O15       1.0  0.71743  0.20110  0.62060  1.0000
  O   O16       1.0  0.28257  0.79890  0.12060  1.0000
  O   O17       1.0  0.34841  0.46640  0.22170  1.0000
  O   O18       1.0  0.65159  0.53360  0.72170  1.0000
  O   O19       1.0  0.84841  0.53360  0.22170  1.0000
  O   O20       1.0  0.15159  0.46640  0.72170  1.0000
  O   O21       1.0  0.37505  0.13640  0.19190  1.0000
  O   O22       1.0  0.62495  0.86360  0.69190  1.0000
  O   O23       1.0  0.87505  0.86360  0.19190  1.0000
  O   O24       1.0  0.12495  0.13640  0.69190  1.0000
  O   O25       1.0  0.48888  0.97020  0.40950  1.0000
  O   O26       1.0  0.51112  0.02980  0.90950  1.0000
  O   O27       1.0  0.98888  0.02980  0.40950  1.0000
  O   O28       1.0  0.01112  0.97020  0.90950  1.0000
  O   O29       1.0  0.58300  0.18070  0.46240  1.0000
  O   O30       1.0  0.41700  0.81930  0.96240  1.0000
  O   O31       1.0  0.08300  0.81930  0.46240  1.0000
  O   O32       1.0  0.91700  0.18070  0.96240  1.0000
  C   C1        1.0  0.48740  0.52550  0.57660  1.0000
  C   C2        1.0  0.51260  0.47450  0.07660  1.0000
  C   C3        1.0  0.98740  0.47450  0.57660  1.0000
  C   C4        1.0  0.01260  0.52550  0.07660  1.0000
  H   H1        1.0  0.53090  0.57570  0.52110  1.0000
  H   H2        1.0  0.46910  0.42430  0.02110  1.0000
  H   H3        1.0  0.03090  0.42430  0.52110  1.0000
  H   H4        1.0  0.96910  0.57570  0.02110  1.0000
  C   C5        1.0  0.26420  0.91980  0.56850  1.0000
  C   C6        1.0  0.73580  0.08020  0.06850  1.0000
  C   C7        1.0  0.76420  0.08020  0.56850  1.0000
  C   C8        1.0  0.23580  0.91980  0.06850  1.0000
  H   H5        1.0  0.25540  0.05970  0.59520  1.0000
  H   H6        1.0  0.74460  0.94030  0.09520  1.0000
  H   H7        1.0  0.75540  0.94030  0.59520  1.0000
  H   H8        1.0  0.24460  0.05970  0.09520  1.0000
  C   C9        1.0  0.36350  0.29030  0.28270  1.0000
  C   C10       1.0  0.63650  0.70970  0.78270  1.0000
  C   C11       1.0  0.86350  0.70970  0.28270  1.0000
  C   C12       1.0  0.13650  0.29030  0.78270  1.0000
  H   H9        1.0  0.36610  0.27580  0.40830  1.0000
  H   H10       1.0  0.63390  0.72420  0.90830  1.0000
  H   H11       1.0  0.86610  0.72420  0.40830  1.0000
  H   H12       1.0  0.13390  0.27580  0.90830  1.0000
  C   C13       1.0  0.54210  0.07630  0.36110  1.0000
  C   C14       1.0  0.45790  0.92370  0.86110  1.0000
  C   C15       1.0  0.04210  0.92370  0.36110  1.0000
  C   C16       1.0  0.95790  0.07630  0.86110  1.0000
  H   H13       1.0  0.55290  0.07920  0.23750  1.0000
  H   H14       1.0  0.44710  0.92080  0.73750  1.0000
  H   H15       1.0  0.05290  0.92080  0.23750  1.0000
  H   H16       1.0  0.94710  0.07920  0.73750  1.0000
