data_image0
_chemical_formula_structural       Lu4O32C4H4C4H4C4H4C4H4
_chemical_formula_sum              "Lu4 O32 C16 H16"
_cell_length_a       18.1702
_cell_length_b       6.5224
_cell_length_c       7.5141
_cell_angle_alpha    90
_cell_angle_beta     90
_cell_angle_gamma    90

_space_group_name_H-M_alt    "P 1"
_space_group_IT_number       1

loop_
  _space_group_symop_operation_xyz
  'x, y, z'

loop_
  _atom_site_type_symbol
  _atom_site_label
  _atom_site_symmetry_multiplicity
  _atom_site_fract_x
  _atom_site_fract_y
  _atom_site_fract_z
  _atom_site_occupancy
  Lu  Lu1       1.0  0.39781  0.79278  0.26611  1.0000
  Lu  Lu2       1.0  0.60219  0.20722  0.76611  1.0000
  Lu  Lu3       1.0  0.89781  0.20722  0.26611  1.0000
  Lu  Lu4       1.0  0.10219  0.79278  0.76611  1.0000
  O   O1        1.0  0.42680  0.59510  0.52380  1.0000
  O   O2        1.0  0.57320  0.40490  0.02380  1.0000
  O   O3        1.0  0.92680  0.40490  0.52380  1.0000
  O   O4        1.0  0.07320  0.59510  0.02380  1.0000
  O   O5        1.0  0.49540  0.39410  0.69420  1.0000
  O   O6        1.0  0.50460  0.60590  0.19420  1.0000
  O   O7        1.0  0.99540  0.60590  0.69420  1.0000
  O   O8        1.0  0.00460  0.39410  0.19420  1.0000
  O   O9        1.0  0.32160  0.87730  0.48620  1.0000
  O   O10       1.0  0.67840  0.12270  0.98620  1.0000
  O   O11       1.0  0.82160  0.12270  0.48620  1.0000
  O   O12       1.0  0.17840  0.87730  0.98620  1.0000
  O   O13       1.0  0.21830  0.79860  0.62170  1.0000
  O   O14       1.0  0.78170  0.20140  0.12170  1.0000
  O   O15       1.0  0.71830  0.20140  0.62170  1.0000
  O   O16       1.0  0.28170  0.79860  0.12170  1.0000
  O   O17       1.0  0.34892  0.46750  0.22010  1.0000
  O   O18       1.0  0.65108  0.53250  0.72010  1.0000
  O   O19       1.0  0.84892  0.53250  0.22010  1.0000
  O   O20       1.0  0.15108  0.46750  0.72010  1.0000
  O   O21       1.0  0.37430  0.13770  0.19210  1.0000
  O   O22       1.0  0.62570  0.86230  0.69210  1.0000
  O   O23       1.0  0.87430  0.86230  0.19210  1.0000
  O   O24       1.0  0.12570  0.13770  0.69210  1.0000
  O   O25       1.0  0.48810  0.97230  0.40800  1.0000
  O   O26       1.0  0.51190  0.02770  0.90800  1.0000
  O   O27       1.0  0.98810  0.02770  0.40800  1.0000
  O   O28       1.0  0.01190  0.97230  0.90800  1.0000
  O   O29       1.0  0.58320  0.17560  0.46230  1.0000
  O   O30       1.0  0.41680  0.82440  0.96230  1.0000
  O   O31       1.0  0.08320  0.82440  0.46230  1.0000
  O   O32       1.0  0.91680  0.17560  0.96230  1.0000
  C   C1        1.0  0.48760  0.52490  0.57560  1.0000
  C   C2        1.0  0.51240  0.47510  0.07560  1.0000
  C   C3        1.0  0.98760  0.47510  0.57560  1.0000
  C   C4        1.0  0.01240  0.52490  0.07560  1.0000
  H   H1        1.0  0.52990  0.57470  0.52090  1.0000
  H   H2        1.0  0.47010  0.42530  0.02090  1.0000
  H   H3        1.0  0.02990  0.42530  0.52090  1.0000
  H   H4        1.0  0.97010  0.57470  0.02090  1.0000
  C   C5        1.0  0.26350  0.91720  0.56310  1.0000
  C   C6        1.0  0.73650  0.08280  0.06310  1.0000
  C   C7        1.0  0.76350  0.08280  0.56310  1.0000
  C   C8        1.0  0.23650  0.91720  0.06310  1.0000
  H   H5        1.0  0.25300  0.05570  0.57810  1.0000
  H   H6        1.0  0.74700  0.94430  0.07810  1.0000
  H   H7        1.0  0.75300  0.94430  0.57810  1.0000
  H   H8        1.0  0.24700  0.05570  0.07810  1.0000
  C   C9        1.0  0.36260  0.29240  0.28200  1.0000
  C   C10       1.0  0.63740  0.70760  0.78200  1.0000
  C   C11       1.0  0.86260  0.70760  0.28200  1.0000
  C   C12       1.0  0.13740  0.29240  0.78200  1.0000
  H   H9        1.0  0.36400  0.27860  0.40510  1.0000
  H   H10       1.0  0.63600  0.72140  0.90510  1.0000
  H   H11       1.0  0.86400  0.72140  0.40510  1.0000
  H   H12       1.0  0.13600  0.27860  0.90510  1.0000
  C   C13       1.0  0.54160  0.07550  0.36220  1.0000
  C   C14       1.0  0.45840  0.92450  0.86220  1.0000
  C   C15       1.0  0.04160  0.92450  0.36220  1.0000
  C   C16       1.0  0.95840  0.07550  0.86220  1.0000
  H   H13       1.0  0.55210  0.07930  0.24110  1.0000
  H   H14       1.0  0.44790  0.92070  0.74110  1.0000
  H   H15       1.0  0.05210  0.92070  0.24110  1.0000
  H   H16       1.0  0.94790  0.07930  0.74110  1.0000
