data_image0
_chemical_formula_structural       Lu4O32C4H4C4H4C4H4C4H4
_chemical_formula_sum              "Lu4 O32 C16 H16"
_cell_length_a       18.1048
_cell_length_b       6.5261
_cell_length_c       7.5044
_cell_angle_alpha    90
_cell_angle_beta     90
_cell_angle_gamma    90

_space_group_name_H-M_alt    "P 1"
_space_group_IT_number       1

loop_
  _space_group_symop_operation_xyz
  'x, y, z'

loop_
  _atom_site_type_symbol
  _atom_site_label
  _atom_site_symmetry_multiplicity
  _atom_site_fract_x
  _atom_site_fract_y
  _atom_site_fract_z
  _atom_site_occupancy
  Lu  Lu1       1.0  0.39784  0.79069  0.26597  1.0000
  Lu  Lu2       1.0  0.60216  0.20931  0.76597  1.0000
  Lu  Lu3       1.0  0.89784  0.20931  0.26597  1.0000
  Lu  Lu4       1.0  0.10216  0.79069  0.76597  1.0000
  O   O1        1.0  0.42579  0.59540  0.52550  1.0000
  O   O2        1.0  0.57421  0.40460  0.02550  1.0000
  O   O3        1.0  0.92579  0.40460  0.52550  1.0000
  O   O4        1.0  0.07421  0.59540  0.02550  1.0000
  O   O5        1.0  0.49466  0.39690  0.69730  1.0000
  O   O6        1.0  0.50534  0.60310  0.19730  1.0000
  O   O7        1.0  0.99466  0.60310  0.69730  1.0000
  O   O8        1.0  0.00534  0.39690  0.19730  1.0000
  O   O9        1.0  0.32078  0.88180  0.48330  1.0000
  O   O10       1.0  0.67922  0.11820  0.98330  1.0000
  O   O11       1.0  0.82078  0.11820  0.48330  1.0000
  O   O12       1.0  0.17922  0.88180  0.98330  1.0000
  O   O13       1.0  0.21680  0.79550  0.61550  1.0000
  O   O14       1.0  0.78320  0.20450  0.11550  1.0000
  O   O15       1.0  0.71680  0.20450  0.61550  1.0000
  O   O16       1.0  0.28320  0.79550  0.11550  1.0000
  O   O17       1.0  0.34879  0.46470  0.22160  1.0000
  O   O18       1.0  0.65121  0.53530  0.72160  1.0000
  O   O19       1.0  0.84879  0.53530  0.22160  1.0000
  O   O20       1.0  0.15121  0.46470  0.72160  1.0000
  O   O21       1.0  0.37490  0.13560  0.19050  1.0000
  O   O22       1.0  0.62510  0.86440  0.69050  1.0000
  O   O23       1.0  0.87490  0.86440  0.19050  1.0000
  O   O24       1.0  0.12510  0.13560  0.69050  1.0000
  O   O25       1.0  0.48802  0.96980  0.40970  1.0000
  O   O26       1.0  0.51198  0.03020  0.90970  1.0000
  O   O27       1.0  0.98802  0.03020  0.40970  1.0000
  O   O28       1.0  0.01198  0.96980  0.90970  1.0000
  O   O29       1.0  0.58170  0.18080  0.46330  1.0000
  O   O30       1.0  0.41830  0.81920  0.96330  1.0000
  O   O31       1.0  0.08170  0.81920  0.46330  1.0000
  O   O32       1.0  0.91830  0.18080  0.96330  1.0000
  C   C1        1.0  0.48720  0.52700  0.57880  1.0000
  C   C2        1.0  0.51280  0.47300  0.07880  1.0000
  C   C3        1.0  0.98720  0.47300  0.57880  1.0000
  C   C4        1.0  0.01280  0.52700  0.07880  1.0000
  H   H1        1.0  0.53060  0.57910  0.52420  1.0000
  H   H2        1.0  0.46940  0.42090  0.02420  1.0000
  H   H3        1.0  0.03060  0.42090  0.52420  1.0000
  H   H4        1.0  0.96940  0.57910  0.02420  1.0000
  C   C5        1.0  0.26430  0.91790  0.57030  1.0000
  C   C6        1.0  0.73570  0.08210  0.07030  1.0000
  C   C7        1.0  0.76430  0.08210  0.57030  1.0000
  C   C8        1.0  0.23570  0.91790  0.07030  1.0000
  H   H5        1.0  0.25700  0.05610  0.60600  1.0000
  H   H6        1.0  0.74300  0.94390  0.10600  1.0000
  H   H7        1.0  0.75700  0.94390  0.60600  1.0000
  H   H8        1.0  0.24300  0.05610  0.10600  1.0000
  C   C9        1.0  0.36350  0.28920  0.28450  1.0000
  C   C10       1.0  0.63650  0.71080  0.78450  1.0000
  C   C11       1.0  0.86350  0.71080  0.28450  1.0000
  C   C12       1.0  0.13650  0.28920  0.78450  1.0000
  H   H9        1.0  0.36610  0.27420  0.41030  1.0000
  H   H10       1.0  0.63390  0.72580  0.91030  1.0000
  H   H11       1.0  0.86610  0.72580  0.41030  1.0000
  H   H12       1.0  0.13390  0.27420  0.91030  1.0000
  C   C13       1.0  0.54110  0.07600  0.36190  1.0000
  C   C14       1.0  0.45890  0.92400  0.86190  1.0000
  C   C15       1.0  0.04110  0.92400  0.36190  1.0000
  C   C16       1.0  0.95890  0.07600  0.86190  1.0000
  H   H13       1.0  0.55210  0.07870  0.23820  1.0000
  H   H14       1.0  0.44790  0.92130  0.73820  1.0000
  H   H15       1.0  0.05210  0.92130  0.23820  1.0000
  H   H16       1.0  0.94790  0.07870  0.73820  1.0000
