data_image0
_chemical_formula_structural       Ho8O64N32C4H4C4H4C4H4C4H4C12H4C4H4C4H4C4H4C12H4C4H4C4H4C4H4C12H4C4H4C4H4C4H4C12H4C4H4C4H4C4H4C12H4C4H4C4H4C4H4C12H4C4H4C4H4C4H4C12H4C4H4C4H4C4H4C8
_chemical_formula_sum              "Ho8 O64 N32 C192 H128"
_cell_length_a       13.518
_cell_length_b       21.496
_cell_length_c       20.055
_cell_angle_alpha    90
_cell_angle_beta     99.56
_cell_angle_gamma    90

_space_group_name_H-M_alt    "P 1"
_space_group_IT_number       1

loop_
  _space_group_symop_operation_xyz
  'x, y, z'

loop_
  _atom_site_type_symbol
  _atom_site_label
  _atom_site_symmetry_multiplicity
  _atom_site_fract_x
  _atom_site_fract_y
  _atom_site_fract_z
  _atom_site_occupancy
  Ho  Ho1       1.0  0.00000  0.21190  0.00000  1.0000
  Ho  Ho2       1.0  0.50000  0.71190  0.00000  1.0000
  Ho  Ho3       1.0  0.00000  0.78810  0.50000  1.0000
  Ho  Ho4       1.0  0.50000  0.28810  0.50000  1.0000
  Ho  Ho5       1.0  0.18980  0.47680  0.97250  1.0000
  Ho  Ho6       1.0  0.68980  0.97680  0.97250  1.0000
  Ho  Ho7       1.0  0.18980  0.52320  0.47250  1.0000
  Ho  Ho8       1.0  0.68980  0.02320  0.47250  1.0000
  O   O1        1.0  0.06420  0.21400  0.89890  1.0000
  O   O2        1.0  0.56420  0.71400  0.89890  1.0000
  O   O3        1.0  0.06420  0.78600  0.39890  1.0000
  O   O4        1.0  0.56420  0.28600  0.39890  1.0000
  O   O5        1.0  0.14580  0.18380  0.81920  1.0000
  O   O6        1.0  0.64580  0.68380  0.81920  1.0000
  O   O7        1.0  0.14580  0.81620  0.31920  1.0000
  O   O8        1.0  0.64580  0.31620  0.31920  1.0000
  O   O9        1.0  0.18130  0.52510  0.07580  1.0000
  O   O10       1.0  0.68130  0.02510  0.07580  1.0000
  O   O11       1.0  0.18130  0.47490  0.57580  1.0000
  O   O12       1.0  0.68130  0.97490  0.57580  1.0000
  O   O13       1.0  0.10440  0.56810  0.15340  1.0000
  O   O14       1.0  0.60440  0.06810  0.15340  1.0000
  O   O15       1.0  0.10440  0.43190  0.65340  1.0000
  O   O16       1.0  0.60440  0.93190  0.65340  1.0000
  O   O17       1.0  0.02640  0.13930  0.08730  1.0000
  O   O18       1.0  0.52640  0.63930  0.08730  1.0000
  O   O19       1.0  0.02640  0.86070  0.58730  1.0000
  O   O20       1.0  0.52640  0.36070  0.58730  1.0000
  O   O21       1.0  0.13140  0.08690  0.16520  1.0000
  O   O22       1.0  0.63140  0.58690  0.16520  1.0000
  O   O23       1.0  0.13140  0.91310  0.66520  1.0000
  O   O24       1.0  0.63140  0.41310  0.66520  1.0000
  O   O25       1.0  0.26030  0.39410  0.91920  1.0000
  O   O26       1.0  0.76030  0.89410  0.91920  1.0000
  O   O27       1.0  0.26030  0.60590  0.41920  1.0000
  O   O28       1.0  0.76030  0.10590  0.41920  1.0000
  O   O29       1.0  0.36750  0.31530  0.92060  1.0000
  O   O30       1.0  0.86750  0.81530  0.92060  1.0000
  O   O31       1.0  0.36750  0.68470  0.42060  1.0000
  O   O32       1.0  0.86750  0.18470  0.42060  1.0000
  O   O33       1.0  0.85750  0.24420  0.04330  1.0000
  O   O34       1.0  0.35750  0.74420  0.04330  1.0000
  O   O35       1.0  0.85750  0.75580  0.54330  1.0000
  O   O36       1.0  0.35750  0.25580  0.54330  1.0000
  O   O37       1.0  0.69600  0.26930  0.03080  1.0000
  O   O38       1.0  0.19600  0.76930  0.03080  1.0000
  O   O39       1.0  0.69600  0.73070  0.53080  1.0000
  O   O40       1.0  0.19600  0.23070  0.53080  1.0000
  O   O41       1.0  0.06860  0.45600  0.88010  1.0000
  O   O42       1.0  0.56860  0.95600  0.88010  1.0000
  O   O43       1.0  0.06860  0.54400  0.38010  1.0000
  O   O44       1.0  0.56860  0.04400  0.38010  1.0000
  O   O45       1.0  0.93400  0.47960  0.80720  1.0000
  O   O46       1.0  0.43400  0.97960  0.80720  1.0000
  O   O47       1.0  0.93400  0.52040  0.30720  1.0000
  O   O48       1.0  0.43400  0.02040  0.30720  1.0000
  O   O49       1.0  0.16860  0.38880  0.03490  1.0000
  O   O50       1.0  0.66860  0.88880  0.03490  1.0000
  O   O51       1.0  0.16860  0.61120  0.53490  1.0000
  O   O52       1.0  0.66860  0.11120  0.53490  1.0000
  O   O53       1.0  0.07130  0.31050  0.99140  1.0000
  O   O54       1.0  0.57130  0.81050  0.99140  1.0000
  O   O55       1.0  0.07130  0.68950  0.49140  1.0000
  O   O56       1.0  0.57130  0.18950  0.49140  1.0000
  O   O57       1.0  0.79830  0.06330  0.98960  1.0000
  O   O58       1.0  0.29830  0.56330  0.98960  1.0000
  O   O59       1.0  0.79830  0.93670  0.48960  1.0000
  O   O60       1.0  0.29830  0.43670  0.48960  1.0000
  O   O61       1.0  0.87270  0.14520  0.95570  1.0000
  O   O62       1.0  0.37270  0.64520  0.95570  1.0000
  O   O63       1.0  0.87270  0.85480  0.45570  1.0000
  O   O64       1.0  0.37270  0.35480  0.45570  1.0000
  N   N1        1.0  0.06750  0.10110  0.95120  1.0000
  N   N2        1.0  0.56750  0.60110  0.95120  1.0000
  N   N3        1.0  0.06750  0.89890  0.45120  1.0000
  N   N4        1.0  0.56750  0.39890  0.45120  1.0000
  N   N5        1.0  0.01440  0.47270  0.01520  1.0000
  N   N6        1.0  0.51440  0.97270  0.01520  1.0000
  N   N7        1.0  0.01440  0.52730  0.51520  1.0000
  N   N8        1.0  0.51440  0.02730  0.51520  1.0000
  N   N9        1.0  0.18000  0.19420  0.04240  1.0000
  N   N10       1.0  0.68000  0.69420  0.04240  1.0000
  N   N11       1.0  0.18000  0.80580  0.54240  1.0000
  N   N12       1.0  0.68000  0.30580  0.54240  1.0000
  N   N13       1.0  0.36310  0.44000  0.03290  1.0000
  N   N14       1.0  0.86310  0.94000  0.03290  1.0000
  N   N15       1.0  0.36310  0.56000  0.53290  1.0000
  N   N16       1.0  0.86310  0.06000  0.53290  1.0000
  N   N17       1.0  0.86890  0.27480  0.91780  1.0000
  N   N18       1.0  0.36890  0.77480  0.91780  1.0000
  N   N19       1.0  0.86890  0.72520  0.41780  1.0000
  N   N20       1.0  0.36890  0.22520  0.41780  1.0000
  N   N21       1.0  0.08450  0.57060  0.92940  1.0000
  N   N22       1.0  0.58450  0.07060  0.92940  1.0000
  N   N23       1.0  0.08450  0.42940  0.42940  1.0000
  N   N24       1.0  0.58450  0.92940  0.42940  1.0000
  N   N25       1.0  0.04820  0.27200  0.11400  1.0000
  N   N26       1.0  0.54820  0.77200  0.11400  1.0000
  N   N27       1.0  0.04820  0.72800  0.61400  1.0000
  N   N28       1.0  0.54820  0.22800  0.61400  1.0000
  N   N29       1.0  0.75890  0.01880  0.86500  1.0000
  N   N30       1.0  0.25890  0.51880  0.86500  1.0000
  N   N31       1.0  0.75890  0.98120  0.36500  1.0000
  N   N32       1.0  0.25890  0.48120  0.36500  1.0000
  C   C1        1.0  0.06240  0.04520  0.97400  1.0000
  C   C2        1.0  0.56240  0.54520  0.97400  1.0000
  C   C3        1.0  0.06240  0.95480  0.47400  1.0000
  C   C4        1.0  0.56240  0.45480  0.47400  1.0000
  H   H1        1.0  0.03590  0.03990  0.01520  1.0000
  H   H2        1.0  0.53590  0.53990  0.01520  1.0000
  H   H3        1.0  0.03590  0.96010  0.51520  1.0000
  H   H4        1.0  0.53590  0.46010  0.51520  1.0000
  C   C5        1.0  0.09260  0.99190  0.94330  1.0000
  C   C6        1.0  0.59260  0.49190  0.94330  1.0000
  C   C7        1.0  0.09260  0.00810  0.44330  1.0000
  C   C8        1.0  0.59260  0.50810  0.44330  1.0000
  H   H5        1.0  0.08980  0.95160  0.96360  1.0000
  H   H6        1.0  0.58980  0.45160  0.96360  1.0000
  H   H7        1.0  0.08980  0.04840  0.46360  1.0000
  H   H8        1.0  0.58980  0.54840  0.46360  1.0000
  C   C9        1.0  0.12600  0.99900  0.88360  1.0000
  C   C10       1.0  0.62600  0.49900  0.88360  1.0000
  C   C11       1.0  0.12600  0.00100  0.38360  1.0000
  C   C12       1.0  0.62600  0.50100  0.38360  1.0000
  H   H9        1.0  0.14570  0.96350  0.85980  1.0000
  H   H10       1.0  0.64570  0.46350  0.85980  1.0000
  H   H11       1.0  0.14570  0.03650  0.35980  1.0000
  H   H12       1.0  0.64570  0.53650  0.35980  1.0000
  C   C13       1.0  0.13140  0.05810  0.85760  1.0000
  C   C14       1.0  0.63140  0.55810  0.85760  1.0000
  C   C15       1.0  0.13140  0.94190  0.35760  1.0000
  C   C16       1.0  0.63140  0.44190  0.35760  1.0000
  H   H13       1.0  0.15460  0.06430  0.81540  1.0000
  H   H14       1.0  0.65460  0.56430  0.81540  1.0000
  H   H15       1.0  0.15460  0.93570  0.31540  1.0000
  H   H16       1.0  0.65460  0.43570  0.31540  1.0000
  C   C17       1.0  0.10330  0.10760  0.89280  1.0000
  C   C18       1.0  0.60330  0.60760  0.89280  1.0000
  C   C19       1.0  0.10330  0.89240  0.39280  1.0000
  C   C20       1.0  0.60330  0.39240  0.39280  1.0000
  C   C21       1.0  0.10590  0.17320  0.86810  1.0000
  C   C22       1.0  0.60590  0.67320  0.86810  1.0000
  C   C23       1.0  0.10590  0.82680  0.36810  1.0000
  C   C24       1.0  0.60590  0.32680  0.36810  1.0000
  C   C25       1.0  0.93050  0.43920  0.98880  1.0000
  C   C26       1.0  0.43050  0.93920  0.98880  1.0000
  C   C27       1.0  0.93050  0.56080  0.48880  1.0000
  C   C28       1.0  0.43050  0.06080  0.48880  1.0000
  H   H17       1.0  0.92820  0.42000  0.94540  1.0000
  H   H18       1.0  0.42820  0.92000  0.94540  1.0000
  H   H19       1.0  0.92820  0.58000  0.44540  1.0000
  H   H20       1.0  0.42820  0.08000  0.44540  1.0000
  C   C29       1.0  0.84970  0.43190  0.02160  1.0000
  C   C30       1.0  0.34970  0.93190  0.02160  1.0000
  C   C31       1.0  0.84970  0.56810  0.52160  1.0000
  C   C32       1.0  0.34970  0.06810  0.52160  1.0000
  H   H21       1.0  0.79220  0.40860  0.00070  1.0000
  H   H22       1.0  0.29220  0.90860  0.00070  1.0000
  H   H23       1.0  0.79220  0.59140  0.50070  1.0000
  H   H24       1.0  0.29220  0.09140  0.50070  1.0000
  C   C33       1.0  0.85120  0.45710  0.08220  1.0000
  C   C34       1.0  0.35120  0.95710  0.08220  1.0000
  C   C35       1.0  0.85120  0.54290  0.58220  1.0000
  C   C36       1.0  0.35120  0.04290  0.58220  1.0000
  H   H25       1.0  0.79580  0.45100  0.10590  1.0000
  H   H26       1.0  0.29580  0.95100  0.10590  1.0000
  H   H27       1.0  0.79580  0.54900  0.60590  1.0000
  H   H28       1.0  0.29580  0.04900  0.60590  1.0000
  C   C37       1.0  0.93350  0.49260  0.11150  1.0000
  C   C38       1.0  0.43350  0.99260  0.11150  1.0000
  C   C39       1.0  0.93350  0.50740  0.61150  1.0000
  C   C40       1.0  0.43350  0.00740  0.61150  1.0000
  H   H29       1.0  0.93610  0.51180  0.15500  1.0000
  H   H30       1.0  0.43610  0.01180  0.15500  1.0000
  H   H31       1.0  0.93610  0.48820  0.65500  1.0000
  H   H32       1.0  0.43610  0.98820  0.65500  1.0000
  C   C41       1.0  0.01100  0.49890  0.07530  1.0000
  C   C42       1.0  0.51100  0.99890  0.07530  1.0000
  C   C43       1.0  0.01100  0.50110  0.57530  1.0000
  C   C44       1.0  0.51100  0.00110  0.57530  1.0000
  C   C45       1.0  0.10550  0.53390  0.10440  1.0000
  C   C46       1.0  0.60550  0.03390  0.10440  1.0000
  C   C47       1.0  0.10550  0.46610  0.60440  1.0000
  C   C48       1.0  0.60550  0.96610  0.60440  1.0000
  C   C49       1.0  0.25680  0.22130  0.01880  1.0000
  C   C50       1.0  0.75680  0.72130  0.01880  1.0000
  C   C51       1.0  0.25680  0.77870  0.51880  1.0000
  C   C52       1.0  0.75680  0.27870  0.51880  1.0000
  H   H33       1.0  0.24160  0.25130  0.98310  1.0000
  H   H34       1.0  0.74160  0.75130  0.98310  1.0000
  H   H35       1.0  0.24160  0.74870  0.48310  1.0000
  H   H36       1.0  0.74160  0.24870  0.48310  1.0000
  C   C53       1.0  0.35590  0.20840  0.04280  1.0000
  C   C54       1.0  0.85590  0.70840  0.04280  1.0000
  C   C55       1.0  0.35590  0.79160  0.54280  1.0000
  C   C56       1.0  0.85590  0.29160  0.54280  1.0000
  H   H37       1.0  0.40850  0.22860  0.02420  1.0000
  H   H38       1.0  0.90850  0.72860  0.02420  1.0000
  H   H39       1.0  0.40850  0.77140  0.52420  1.0000
  H   H40       1.0  0.90850  0.27140  0.52420  1.0000
  C   C57       1.0  0.37810  0.16440  0.09610  1.0000
  C   C58       1.0  0.87810  0.66440  0.09610  1.0000
  C   C59       1.0  0.37810  0.83560  0.59610  1.0000
  C   C60       1.0  0.87810  0.33560  0.59610  1.0000
  H   H41       1.0  0.44630  0.15450  0.11490  1.0000
  H   H42       1.0  0.94630  0.65450  0.11490  1.0000
  H   H43       1.0  0.44630  0.84550  0.61490  1.0000
  H   H44       1.0  0.94630  0.34550  0.61490  1.0000
  C   C61       1.0  0.29800  0.13580  0.12040  1.0000
  C   C62       1.0  0.79800  0.63580  0.12040  1.0000
  C   C63       1.0  0.29800  0.86420  0.62040  1.0000
  C   C64       1.0  0.79800  0.36420  0.62040  1.0000
  H   H45       1.0  0.31030  0.10550  0.15600  1.0000
  H   H46       1.0  0.81030  0.60550  0.15600  1.0000
  H   H47       1.0  0.31030  0.89450  0.65600  1.0000
  H   H48       1.0  0.81030  0.39450  0.65600  1.0000
  C   C65       1.0  0.20260  0.15180  0.09260  1.0000
  C   C66       1.0  0.70260  0.65180  0.09260  1.0000
  C   C67       1.0  0.20260  0.84820  0.59260  1.0000
  C   C68       1.0  0.70260  0.34820  0.59260  1.0000
  C   C69       1.0  0.11600  0.12300  0.11810  1.0000
  C   C70       1.0  0.61600  0.62300  0.11810  1.0000
  C   C71       1.0  0.11600  0.87700  0.61810  1.0000
  C   C72       1.0  0.61600  0.37700  0.61810  1.0000
  C   C73       1.0  0.41230  0.46590  0.08910  1.0000
  C   C74       1.0  0.91230  0.96590  0.08910  1.0000
  C   C75       1.0  0.41230  0.53410  0.58910  1.0000
  C   C76       1.0  0.91230  0.03410  0.58910  1.0000
  H   H49       1.0  0.38600  0.50250  0.10730  1.0000
  H   H50       1.0  0.88600  0.00250  0.10730  1.0000
  H   H51       1.0  0.38600  0.49750  0.60730  1.0000
  H   H52       1.0  0.88600  0.99750  0.60730  1.0000
  C   C77       1.0  0.50290  0.43950  0.12190  1.0000
  C   C78       1.0  0.00290  0.93950  0.12190  1.0000
  C   C79       1.0  0.50290  0.56050  0.62190  1.0000
  C   C80       1.0  0.00290  0.06050  0.62190  1.0000
  H   H53       1.0  0.53670  0.45690  0.16360  1.0000
  H   H54       1.0  0.03670  0.95690  0.16360  1.0000
  H   H55       1.0  0.53670  0.54310  0.66360  1.0000
  H   H56       1.0  0.03670  0.04310  0.66360  1.0000
  C   C81       1.0  0.54250  0.38920  0.09420  1.0000
  C   C82       1.0  0.04250  0.88920  0.09420  1.0000
  C   C83       1.0  0.54250  0.61080  0.59420  1.0000
  C   C84       1.0  0.04250  0.11080  0.59420  1.0000
  H   H57       1.0  0.60610  0.37230  0.11460  1.0000
  H   H58       1.0  0.10610  0.87230  0.11460  1.0000
  H   H59       1.0  0.60610  0.62770  0.61460  1.0000
  H   H60       1.0  0.10610  0.12770  0.61460  1.0000
  C   C85       1.0  0.48910  0.36320  0.03640  1.0000
  C   C86       1.0  0.98910  0.86320  0.03640  1.0000
  C   C87       1.0  0.48910  0.63680  0.53640  1.0000
  C   C88       1.0  0.98910  0.13680  0.53640  1.0000
  H   H61       1.0  0.51480  0.32730  0.01660  1.0000
  H   H62       1.0  0.01480  0.82730  0.01660  1.0000
  H   H63       1.0  0.51480  0.67270  0.51660  1.0000
  H   H64       1.0  0.01480  0.17270  0.51660  1.0000
  C   C89       1.0  0.39840  0.38890  0.00660  1.0000
  C   C90       1.0  0.89840  0.88890  0.00660  1.0000
  C   C91       1.0  0.39840  0.61110  0.50660  1.0000
  C   C92       1.0  0.89840  0.11110  0.50660  1.0000
  C   C93       1.0  0.34270  0.36460  0.94460  1.0000
  C   C94       1.0  0.84270  0.86460  0.94460  1.0000
  C   C95       1.0  0.34270  0.63540  0.44460  1.0000
  C   C96       1.0  0.84270  0.13540  0.44460  1.0000
  C   C97       1.0  0.87700  0.29350  0.85640  1.0000
  C   C98       1.0  0.37700  0.79350  0.85640  1.0000
  C   C99       1.0  0.87700  0.70650  0.35640  1.0000
  C   C100      1.0  0.37700  0.20650  0.35640  1.0000
  H   H65       1.0  0.94040  0.28750  0.84180  1.0000
  H   H66       1.0  0.44040  0.78750  0.84180  1.0000
  H   H67       1.0  0.94040  0.71250  0.34180  1.0000
  H   H68       1.0  0.44040  0.21250  0.34180  1.0000
  C   C101      1.0  0.80340  0.32010  0.81280  1.0000
  C   C102      1.0  0.30340  0.82010  0.81280  1.0000
  C   C103      1.0  0.80340  0.67990  0.31280  1.0000
  C   C104      1.0  0.30340  0.17990  0.31280  1.0000
  H   H69       1.0  0.81470  0.33280  0.76870  1.0000
  H   H70       1.0  0.31470  0.83280  0.76870  1.0000
  H   H71       1.0  0.81470  0.66720  0.26870  1.0000
  H   H72       1.0  0.31470  0.16720  0.26870  1.0000
  C   C105      1.0  0.71100  0.32910  0.83220  1.0000
  C   C106      1.0  0.21100  0.82910  0.83220  1.0000
  C   C107      1.0  0.71100  0.67090  0.33220  1.0000
  C   C108      1.0  0.21100  0.17090  0.33220  1.0000
  H   H73       1.0  0.65640  0.34740  0.80180  1.0000
  H   H74       1.0  0.15640  0.84740  0.80180  1.0000
  H   H75       1.0  0.65640  0.65260  0.30180  1.0000
  H   H76       1.0  0.15640  0.15260  0.30180  1.0000
  C   C109      1.0  0.69920  0.31120  0.89630  1.0000
  C   C110      1.0  0.19920  0.81120  0.89630  1.0000
  C   C111      1.0  0.69920  0.68880  0.39630  1.0000
  C   C112      1.0  0.19920  0.18880  0.39630  1.0000
  H   H77       1.0  0.63670  0.31750  0.91200  1.0000
  H   H78       1.0  0.13670  0.81750  0.91200  1.0000
  H   H79       1.0  0.63670  0.68250  0.41200  1.0000
  H   H80       1.0  0.13670  0.18250  0.41200  1.0000
  C   C113      1.0  0.78310  0.28290  0.93910  1.0000
  C   C114      1.0  0.28310  0.78290  0.93910  1.0000
  C   C115      1.0  0.78310  0.71710  0.43910  1.0000
  C   C116      1.0  0.28310  0.21710  0.43910  1.0000
  C   C117      1.0  0.77770  0.26250  0.00980  1.0000
  C   C118      1.0  0.27770  0.76250  0.00980  1.0000
  C   C119      1.0  0.77770  0.73750  0.50980  1.0000
  C   C120      1.0  0.27770  0.23750  0.50980  1.0000
  C   C121      1.0  0.09450  0.62900  0.95360  1.0000
  C   C122      1.0  0.59450  0.12900  0.95360  1.0000
  C   C123      1.0  0.09450  0.37100  0.45360  1.0000
  C   C124      1.0  0.59450  0.87100  0.45360  1.0000
  H   H81       1.0  0.15030  0.63830  0.98850  1.0000
  H   H82       1.0  0.65030  0.13830  0.98850  1.0000
  H   H83       1.0  0.15030  0.36170  0.48850  1.0000
  H   H84       1.0  0.65030  0.86170  0.48850  1.0000
  C   C125      1.0  0.02870  0.67600  0.93100  1.0000
  C   C126      1.0  0.52870  0.17600  0.93100  1.0000
  C   C127      1.0  0.02870  0.32400  0.43100  1.0000
  C   C128      1.0  0.52870  0.82400  0.43100  1.0000
  H   H85       1.0  0.04020  0.71760  0.94790  1.0000
  H   H86       1.0  0.54020  0.21760  0.94790  1.0000
  H   H87       1.0  0.04020  0.28240  0.44790  1.0000
  H   H88       1.0  0.54020  0.78240  0.44790  1.0000
  C   C129      1.0  0.94570  0.66200  0.88350  1.0000
  C   C130      1.0  0.44570  0.16200  0.88350  1.0000
  C   C131      1.0  0.94570  0.33800  0.38350  1.0000
  C   C132      1.0  0.44570  0.83800  0.38350  1.0000
  H   H89       1.0  0.89490  0.69270  0.86930  1.0000
  H   H90       1.0  0.39490  0.19270  0.86930  1.0000
  H   H91       1.0  0.89490  0.30730  0.36930  1.0000
  H   H92       1.0  0.39490  0.80730  0.36930  1.0000
  C   C133      1.0  0.93740  0.60100  0.85590  1.0000
  C   C134      1.0  0.43740  0.10100  0.85590  1.0000
  C   C135      1.0  0.93740  0.39900  0.35590  1.0000
  C   C136      1.0  0.43740  0.89900  0.35590  1.0000
  H   H93       1.0  0.88330  0.59030  0.82040  1.0000
  H   H94       1.0  0.38330  0.09030  0.82040  1.0000
  H   H95       1.0  0.88330  0.40970  0.32040  1.0000
  H   H96       1.0  0.38330  0.90970  0.32040  1.0000
  C   C137      1.0  0.00660  0.55890  0.88070  1.0000
  C   C138      1.0  0.50660  0.05890  0.88070  1.0000
  C   C139      1.0  0.00660  0.44110  0.38070  1.0000
  C   C140      1.0  0.50660  0.94110  0.38070  1.0000
  C   C141      1.0  0.00130  0.49350  0.85370  1.0000
  C   C142      1.0  0.50130  0.99350  0.85370  1.0000
  C   C143      1.0  0.00130  0.50650  0.35370  1.0000
  C   C144      1.0  0.50130  0.00650  0.35370  1.0000
  C   C145      1.0  0.02900  0.25560  0.17380  1.0000
  C   C146      1.0  0.52900  0.75560  0.17380  1.0000
  C   C147      1.0  0.02900  0.74440  0.67380  1.0000
  C   C148      1.0  0.52900  0.24440  0.67380  1.0000
  H   H97       1.0  0.99660  0.21630  0.17740  1.0000
  H   H98       1.0  0.49660  0.71630  0.17740  1.0000
  H   H99       1.0  0.99660  0.78370  0.67740  1.0000
  H   H100      1.0  0.49660  0.28370  0.67740  1.0000
  C   C149      1.0  0.05210  0.29090  0.23150  1.0000
  C   C150      1.0  0.55210  0.79090  0.23150  1.0000
  C   C151      1.0  0.05210  0.70910  0.73150  1.0000
  C   C152      1.0  0.55210  0.20910  0.73150  1.0000
  H   H101      1.0  0.03490  0.27710  0.27360  1.0000
  H   H102      1.0  0.53490  0.77710  0.27360  1.0000
  H   H103      1.0  0.03490  0.72290  0.77360  1.0000
  H   H104      1.0  0.53490  0.22290  0.77360  1.0000
  C   C153      1.0  0.10140  0.34730  0.22670  1.0000
  C   C154      1.0  0.60140  0.84730  0.22670  1.0000
  C   C155      1.0  0.10140  0.65270  0.72670  1.0000
  C   C156      1.0  0.60140  0.15270  0.72670  1.0000
  H   H105      1.0  0.11980  0.37350  0.26540  1.0000
  H   H106      1.0  0.61980  0.87350  0.26540  1.0000
  H   H107      1.0  0.11980  0.62650  0.76540  1.0000
  H   H108      1.0  0.61980  0.12650  0.76540  1.0000
  C   C157      1.0  0.12220  0.36360  0.16510  1.0000
  C   C158      1.0  0.62220  0.86360  0.16510  1.0000
  C   C159      1.0  0.12220  0.63640  0.66510  1.0000
  C   C160      1.0  0.62220  0.13640  0.66510  1.0000
  H   H109      1.0  0.15700  0.40180  0.16010  1.0000
  H   H110      1.0  0.65700  0.90180  0.16010  1.0000
  H   H111      1.0  0.15700  0.59820  0.66010  1.0000
  H   H112      1.0  0.65700  0.09820  0.66010  1.0000
  C   C161      1.0  0.09380  0.32560  0.10960  1.0000
  C   C162      1.0  0.59380  0.82560  0.10960  1.0000
  C   C163      1.0  0.09380  0.67440  0.60960  1.0000
  C   C164      1.0  0.59380  0.17440  0.60960  1.0000
  C   C165      1.0  0.11260  0.34240  0.03990  1.0000
  C   C166      1.0  0.61260  0.84240  0.03990  1.0000
  C   C167      1.0  0.11260  0.65760  0.53990  1.0000
  C   C168      1.0  0.61260  0.15760  0.53990  1.0000
  C   C169      1.0  0.74160  0.99160  0.80470  1.0000
  C   C170      1.0  0.24160  0.49160  0.80470  1.0000
  C   C171      1.0  0.74160  0.00840  0.30470  1.0000
  C   C172      1.0  0.24160  0.50840  0.30470  1.0000
  H   H113      1.0  0.70160  0.95450  0.79800  1.0000
  H   H114      1.0  0.20160  0.45450  0.79800  1.0000
  H   H115      1.0  0.70160  0.04550  0.29800  1.0000
  H   H116      1.0  0.20160  0.54550  0.29800  1.0000
  C   C173      1.0  0.78170  0.01740  0.75090  1.0000
  C   C174      1.0  0.28170  0.51740  0.75090  1.0000
  C   C175      1.0  0.78170  0.98260  0.25090  1.0000
  C   C176      1.0  0.28170  0.48260  0.25090  1.0000
  H   H117      1.0  0.76720  0.99890  0.70680  1.0000
  H   H118      1.0  0.26720  0.49890  0.70680  1.0000
  H   H119      1.0  0.76720  0.00110  0.20680  1.0000
  H   H120      1.0  0.26720  0.50110  0.20680  1.0000
  C   C177      1.0  0.84170  0.06890  0.76120  1.0000
  C   C178      1.0  0.34170  0.56890  0.76120  1.0000
  C   C179      1.0  0.84170  0.93110  0.26120  1.0000
  C   C180      1.0  0.34170  0.43110  0.26120  1.0000
  H   H121      1.0  0.87330  0.08510  0.72530  1.0000
  H   H122      1.0  0.37330  0.58510  0.72530  1.0000
  H   H123      1.0  0.87330  0.91490  0.22530  1.0000
  H   H124      1.0  0.37330  0.41490  0.22530  1.0000
  C   C181      1.0  0.85600  0.09680  0.82280  1.0000
  C   C182      1.0  0.35600  0.59680  0.82280  1.0000
  C   C183      1.0  0.85600  0.90320  0.32280  1.0000
  C   C184      1.0  0.35600  0.40320  0.32280  1.0000
  H   H125      1.0  0.89420  0.13450  0.83080  1.0000
  H   H126      1.0  0.39420  0.63450  0.83080  1.0000
  H   H127      1.0  0.89420  0.86550  0.33080  1.0000
  H   H128      1.0  0.39420  0.36550  0.33080  1.0000
  C   C185      1.0  0.81320  0.06870  0.87430  1.0000
  C   C186      1.0  0.31320  0.56870  0.87430  1.0000
  C   C187      1.0  0.81320  0.93130  0.37430  1.0000
  C   C188      1.0  0.31320  0.43130  0.37430  1.0000
  C   C189      1.0  0.83130  0.09400  0.94590  1.0000
  C   C190      1.0  0.33130  0.59400  0.94590  1.0000
  C   C191      1.0  0.83130  0.90600  0.44590  1.0000
  C   C192      1.0  0.33130  0.40600  0.44590  1.0000
