data_image0
_chemical_formula_structural       Sn12O32C232H180
_chemical_formula_sum              "Sn12 O32 C232 H180"
_cell_length_a       9.777
_cell_length_b       26.679
_cell_length_c       21.937
_cell_angle_alpha    90
_cell_angle_beta     96.448
_cell_angle_gamma    90

_space_group_name_H-M_alt    "P 1"
_space_group_IT_number       1

loop_
  _space_group_symop_operation_xyz
  'x, y, z'

loop_
  _atom_site_type_symbol
  _atom_site_label
  _atom_site_symmetry_multiplicity
  _atom_site_fract_x
  _atom_site_fract_y
  _atom_site_fract_z
  _atom_site_occupancy
  Sn  Sn1       1.0  0.26228  0.14934  0.05657  1.0000
  Sn  Sn2       1.0  0.23772  0.64934  0.44343  1.0000
  Sn  Sn3       1.0  0.73772  0.85066  0.94343  1.0000
  Sn  Sn4       1.0  0.76228  0.35066  0.55657  1.0000
  Sn  Sn5       1.0  0.19618  0.35221  0.16076  1.0000
  Sn  Sn6       1.0  0.30382  0.85221  0.33924  1.0000
  Sn  Sn7       1.0  0.80382  0.64779  0.83924  1.0000
  Sn  Sn8       1.0  0.69618  0.14779  0.66076  1.0000
  Sn  Sn9       1.0  0.39648  0.59699  0.22095  1.0000
  Sn  Sn10      1.0  0.10352  0.09699  0.27905  1.0000
  Sn  Sn11      1.0  0.60352  0.40301  0.77905  1.0000
  Sn  Sn12      1.0  0.89648  0.90301  0.72095  1.0000
  O   O1        1.0  0.23020  0.22950  0.09720  1.0000
  O   O2        1.0  0.26980  0.72950  0.40280  1.0000
  O   O3        1.0  0.76980  0.77050  0.90280  1.0000
  O   O4        1.0  0.73020  0.27050  0.59720  1.0000
  O   O5        1.0  0.15930  0.26780  0.17850  1.0000
  O   O6        1.0  0.34070  0.76780  0.32150  1.0000
  O   O7        1.0  0.84070  0.73220  0.82150  1.0000
  O   O8        1.0  0.65930  0.23220  0.67850  1.0000
  O   O9        1.0  0.17260  0.14160  0.13930  1.0000
  O   O10       1.0  0.32740  0.64160  0.36070  1.0000
  O   O11       1.0  0.82740  0.85840  0.86070  1.0000
  O   O12       1.0  0.67260  0.35840  0.63930  1.0000
  O   O13       1.0  0.08910  0.17520  0.22020  1.0000
  O   O14       1.0  0.41090  0.67520  0.27980  1.0000
  O   O15       1.0  0.91090  0.82480  0.77980  1.0000
  O   O16       1.0  0.58910  0.32480  0.72020  1.0000
  O   O17       1.0  0.21420  0.43330  0.15000  1.0000
  O   O18       1.0  0.28580  0.93330  0.35000  1.0000
  O   O19       1.0  0.78580  0.56670  0.85000  1.0000
  O   O20       1.0  0.71420  0.06670  0.65000  1.0000
  O   O21       1.0  0.35650  0.44090  0.07720  1.0000
  O   O22       1.0  0.14350  0.94090  0.42280  1.0000
  O   O23       1.0  0.64350  0.55910  0.92280  1.0000
  O   O24       1.0  0.85650  0.05910  0.57720  1.0000
  O   O25       1.0  0.38270  0.52860  0.16990  1.0000
  O   O26       1.0  0.11730  0.02860  0.33010  1.0000
  O   O27       1.0  0.61730  0.47140  0.83010  1.0000
  O   O28       1.0  0.88270  0.97140  0.66990  1.0000
  O   O29       1.0  0.20630  0.54080  0.09870  1.0000
  O   O30       1.0  0.29370  0.04080  0.40130  1.0000
  O   O31       1.0  0.79370  0.45920  0.90130  1.0000
  O   O32       1.0  0.70630  0.95920  0.59870  1.0000
  C   C1        1.0  0.26770  0.06850  0.05650  1.0000
  C   C2        1.0  0.23230  0.56850  0.44350  1.0000
  C   C3        1.0  0.73230  0.93150  0.94350  1.0000
  C   C4        1.0  0.76770  0.43150  0.55650  1.0000
  C   C5        1.0  0.39000  0.04370  0.05470  1.0000
  C   C6        1.0  0.11000  0.54370  0.44530  1.0000
  C   C7        1.0  0.61000  0.95630  0.94530  1.0000
  C   C8        1.0  0.89000  0.45630  0.55470  1.0000
  C   C9        1.0  0.39300  0.99070  0.05670  1.0000
  C   C10       1.0  0.10700  0.49070  0.44330  1.0000
  C   C11       1.0  0.60700  0.00930  0.94330  1.0000
  C   C12       1.0  0.89300  0.50930  0.55670  1.0000
  C   C13       1.0  0.27200  0.96390  0.05960  1.0000
  C   C14       1.0  0.22800  0.46390  0.44040  1.0000
  C   C15       1.0  0.72800  0.03610  0.94040  1.0000
  C   C16       1.0  0.77200  0.53610  0.55960  1.0000
  C   C17       1.0  0.15000  0.98850  0.06300  1.0000
  C   C18       1.0  0.35000  0.48850  0.43700  1.0000
  C   C19       1.0  0.85000  0.01150  0.93700  1.0000
  C   C20       1.0  0.65000  0.51150  0.56300  1.0000
  C   C21       1.0  0.14800  0.04170  0.06140  1.0000
  C   C22       1.0  0.35200  0.54170  0.43860  1.0000
  C   C23       1.0  0.85200  0.95830  0.93860  1.0000
  C   C24       1.0  0.64800  0.45830  0.56140  1.0000
  C   C25       1.0  0.47040  0.17140  0.05850  1.0000
  C   C26       1.0  0.02960  0.67140  0.44150  1.0000
  C   C27       1.0  0.52960  0.82860  0.94150  1.0000
  C   C28       1.0  0.97040  0.32860  0.55850  1.0000
  C   C29       1.0  0.55200  0.18150  0.11340  1.0000
  C   C30       1.0  0.94800  0.68150  0.38660  1.0000
  C   C31       1.0  0.44800  0.81850  0.88660  1.0000
  C   C32       1.0  0.05200  0.31850  0.61340  1.0000
  C   C33       1.0  0.69700  0.19270  0.11230  1.0000
  C   C34       1.0  0.80300  0.69270  0.38770  1.0000
  C   C35       1.0  0.30300  0.80730  0.88770  1.0000
  C   C36       1.0  0.19700  0.30730  0.61230  1.0000
  C   C37       1.0  0.74900  0.19310  0.05530  1.0000
  C   C38       1.0  0.75100  0.69310  0.44470  1.0000
  C   C39       1.0  0.25100  0.80690  0.94470  1.0000
  C   C40       1.0  0.24900  0.30690  0.55530  1.0000
  C   C41       1.0  0.67000  0.18260  0.00380  1.0000
  C   C42       1.0  0.83000  0.68260  0.49620  1.0000
  C   C43       1.0  0.33000  0.81740  0.99620  1.0000
  C   C44       1.0  0.17000  0.31740  0.50380  1.0000
  C   C45       1.0  0.52700  0.17260  0.00400  1.0000
  C   C46       1.0  0.97300  0.67260  0.49600  1.0000
  C   C47       1.0  0.47300  0.82740  0.99600  1.0000
  C   C48       1.0  0.02700  0.32740  0.50400  1.0000
  C   C49       1.0  0.12120  0.17040  0.98000  1.0000
  C   C50       1.0  0.37880  0.67040  0.52000  1.0000
  C   C51       1.0  0.87880  0.82960  0.02000  1.0000
  C   C52       1.0  0.62120  0.32960  0.48000  1.0000
  C   C53       1.0  0.06400  0.13230  0.94260  1.0000
  C   C54       1.0  0.43600  0.63230  0.55740  1.0000
  C   C55       1.0  0.93600  0.86770  0.05740  1.0000
  C   C56       1.0  0.56400  0.36770  0.44260  1.0000
  C   C57       1.0  0.97000  0.14340  0.89100  1.0000
  C   C58       1.0  0.53000  0.64340  0.60900  1.0000
  C   C59       1.0  0.03000  0.85660  0.10900  1.0000
  C   C60       1.0  0.47000  0.35660  0.39100  1.0000
  C   C61       1.0  0.93800  0.19250  0.87520  1.0000
  C   C62       1.0  0.56200  0.69250  0.62480  1.0000
  C   C63       1.0  0.06200  0.80750  0.12480  1.0000
  C   C64       1.0  0.43800  0.30750  0.37520  1.0000
  C   C65       1.0  0.99400  0.23140  0.91220  1.0000
  C   C66       1.0  0.50600  0.73140  0.58780  1.0000
  C   C67       1.0  0.00600  0.76860  0.08780  1.0000
  C   C68       1.0  0.49400  0.26860  0.41220  1.0000
  C   C69       1.0  0.08700  0.22000  0.96510  1.0000
  C   C70       1.0  0.41300  0.72000  0.53490  1.0000
  C   C71       1.0  0.91300  0.78000  0.03490  1.0000
  C   C72       1.0  0.58700  0.28000  0.46510  1.0000
  C   C73       1.0  0.09590  0.36540  0.24120  1.0000
  C   C74       1.0  0.40410  0.86540  0.25880  1.0000
  C   C75       1.0  0.90410  0.63460  0.75880  1.0000
  C   C76       1.0  0.59590  0.13460  0.74120  1.0000
  C   C77       1.0  0.05900  0.41370  0.25590  1.0000
  C   C78       1.0  0.44100  0.91370  0.24410  1.0000
  C   C79       1.0  0.94100  0.58630  0.74410  1.0000
  C   C80       1.0  0.55900  0.08630  0.75590  1.0000
  C   C81       1.0  0.98700  0.42230  0.30700  1.0000
  C   C82       1.0  0.51300  0.92230  0.19300  1.0000
  C   C83       1.0  0.01300  0.57770  0.69300  1.0000
  C   C84       1.0  0.48700  0.07770  0.80700  1.0000
  C   C85       1.0  0.95600  0.38420  0.34410  1.0000
  C   C86       1.0  0.54400  0.88420  0.15590  1.0000
  C   C87       1.0  0.04400  0.61580  0.65590  1.0000
  C   C88       1.0  0.45600  0.11580  0.84410  1.0000
  C   C89       1.0  0.99400  0.33650  0.33030  1.0000
  C   C90       1.0  0.50600  0.83650  0.16970  1.0000
  C   C91       1.0  0.00600  0.66350  0.66970  1.0000
  C   C92       1.0  0.49400  0.16350  0.83030  1.0000
  C   C93       1.0  0.06300  0.32700  0.27840  1.0000
  C   C94       1.0  0.43700  0.82700  0.22160  1.0000
  C   C95       1.0  0.93700  0.67300  0.72160  1.0000
  C   C96       1.0  0.56300  0.17300  0.77840  1.0000
  C   C97       1.0  0.06730  0.34520  0.07700  1.0000
  C   C98       1.0  0.43270  0.84520  0.42300  1.0000
  C   C99       1.0  0.93270  0.65480  0.92300  1.0000
  C   C100      1.0  0.56730  0.15480  0.57700  1.0000
  C   C101      1.0  0.94200  0.32060  0.07630  1.0000
  C   C102      1.0  0.55800  0.82060  0.42370  1.0000
  C   C103      1.0  0.05800  0.67940  0.92370  1.0000
  C   C104      1.0  0.44200  0.17940  0.57630  1.0000
  C   C105      1.0  0.84700  0.31990  0.02300  1.0000
  C   C106      1.0  0.65300  0.81990  0.47700  1.0000
  C   C107      1.0  0.15300  0.68010  0.97700  1.0000
  C   C108      1.0  0.34700  0.18010  0.52300  1.0000
  C   C109      1.0  0.88000  0.34280  0.97000  1.0000
  C   C110      1.0  0.62000  0.84280  0.53000  1.0000
  C   C111      1.0  0.12000  0.65720  0.03000  1.0000
  C   C112      1.0  0.38000  0.15720  0.47000  1.0000
  C   C113      1.0  0.00300  0.36680  0.96910  1.0000
  C   C114      1.0  0.49700  0.86680  0.53090  1.0000
  C   C115      1.0  0.99700  0.63320  0.03090  1.0000
  C   C116      1.0  0.50300  0.13320  0.46910  1.0000
  C   C117      1.0  0.10000  0.36810  0.02280  1.0000
  C   C118      1.0  0.40000  0.86810  0.47720  1.0000
  C   C119      1.0  0.90000  0.63190  0.97720  1.0000
  C   C120      1.0  0.60000  0.13190  0.52280  1.0000
  C   C121      1.0  0.41030  0.34140  0.17620  1.0000
  C   C122      1.0  0.08970  0.84140  0.32380  1.0000
  C   C123      1.0  0.58970  0.65860  0.82380  1.0000
  C   C124      1.0  0.91030  0.15860  0.67620  1.0000
  C   C125      1.0  0.48100  0.31560  0.13760  1.0000
  C   C126      1.0  0.01900  0.81560  0.36240  1.0000
  C   C127      1.0  0.51900  0.68440  0.86240  1.0000
  C   C128      1.0  0.98100  0.18440  0.63760  1.0000
  C   C129      1.0  0.62600  0.31100  0.15090  1.0000
  C   C130      1.0  0.87400  0.81100  0.34910  1.0000
  C   C131      1.0  0.37400  0.68900  0.84910  1.0000
  C   C132      1.0  0.12600  0.18900  0.65090  1.0000
  C   C133      1.0  0.69200  0.33140  0.20410  1.0000
  C   C134      1.0  0.80800  0.83140  0.29590  1.0000
  C   C135      1.0  0.30800  0.66860  0.79590  1.0000
  C   C136      1.0  0.19200  0.16860  0.70410  1.0000
  C   C137      1.0  0.62200  0.36000  0.23810  1.0000
  C   C138      1.0  0.87800  0.86000  0.26190  1.0000
  C   C139      1.0  0.37800  0.64000  0.76190  1.0000
  C   C140      1.0  0.12200  0.14000  0.73810  1.0000
  C   C141      1.0  0.48000  0.36740  0.22440  1.0000
  C   C142      1.0  0.02000  0.86740  0.27560  1.0000
  C   C143      1.0  0.52000  0.63260  0.77560  1.0000
  C   C144      1.0  0.98000  0.13260  0.72440  1.0000
  C   C145      1.0  0.53250  0.55960  0.29010  1.0000
  C   C146      1.0  0.96750  0.05960  0.20990  1.0000
  C   C147      1.0  0.46750  0.44040  0.70990  1.0000
  C   C148      1.0  0.03250  0.94040  0.79010  1.0000
  C   C149      1.0  0.61400  0.58710  0.33490  1.0000
  C   C150      1.0  0.88600  0.08710  0.16510  1.0000
  C   C151      1.0  0.38600  0.41290  0.66510  1.0000
  C   C152      1.0  0.11400  0.91290  0.83490  1.0000
  C   C153      1.0  0.70100  0.56120  0.38030  1.0000
  C   C154      1.0  0.79900  0.06120  0.11970  1.0000
  C   C155      1.0  0.29900  0.43880  0.61970  1.0000
  C   C156      1.0  0.20100  0.93880  0.88030  1.0000
  C   C157      1.0  0.70700  0.50960  0.38140  1.0000
  C   C158      1.0  0.79300  0.00960  0.11860  1.0000
  C   C159      1.0  0.29300  0.49040  0.61860  1.0000
  C   C160      1.0  0.20700  0.99040  0.88140  1.0000
  C   C161      1.0  0.62800  0.48250  0.33600  1.0000
  C   C162      1.0  0.87200  0.98250  0.16400  1.0000
  C   C163      1.0  0.37200  0.51750  0.66400  1.0000
  C   C164      1.0  0.12800  0.01750  0.83600  1.0000
  C   C165      1.0  0.53900  0.50720  0.29050  1.0000
  C   C166      1.0  0.96100  0.00720  0.20950  1.0000
  C   C167      1.0  0.46100  0.49280  0.70950  1.0000
  C   C168      1.0  0.03900  0.99280  0.79050  1.0000
  C   C169      1.0  0.48600  0.64010  0.15320  1.0000
  C   C170      1.0  0.01400  0.14010  0.34680  1.0000
  C   C171      1.0  0.51400  0.35990  0.84680  1.0000
  C   C172      1.0  0.98600  0.85990  0.65320  1.0000
  C   C173      1.0  0.46900  0.62460  0.09210  1.0000
  C   C174      1.0  0.03100  0.12460  0.40790  1.0000
  C   C175      1.0  0.53100  0.37540  0.90790  1.0000
  C   C176      1.0  0.96900  0.87540  0.59210  1.0000
  C   C177      1.0  0.53200  0.65090  0.04680  1.0000
  C   C178      1.0  0.96800  0.15090  0.45320  1.0000
  C   C179      1.0  0.46800  0.34910  0.95320  1.0000
  C   C180      1.0  0.03200  0.84910  0.54680  1.0000
  C   C181      1.0  0.61700  0.69110  0.06280  1.0000
  C   C182      1.0  0.88300  0.19110  0.43720  1.0000
  C   C183      1.0  0.38300  0.30890  0.93720  1.0000
  C   C184      1.0  0.11700  0.80890  0.56280  1.0000
  C   C185      1.0  0.63800  0.70690  0.12450  1.0000
  C   C186      1.0  0.86200  0.20690  0.37550  1.0000
  C   C187      1.0  0.36200  0.29310  0.87550  1.0000
  C   C188      1.0  0.13800  0.79310  0.62450  1.0000
  C   C189      1.0  0.57200  0.68110  0.17030  1.0000
  C   C190      1.0  0.92800  0.18110  0.32970  1.0000
  C   C191      1.0  0.42800  0.31890  0.82970  1.0000
  C   C192      1.0  0.07200  0.81890  0.67030  1.0000
  C   C193      1.0  0.18300  0.60240  0.22930  1.0000
  C   C194      1.0  0.31700  0.10240  0.27070  1.0000
  C   C195      1.0  0.81700  0.39760  0.77070  1.0000
  C   C196      1.0  0.68300  0.89760  0.72930  1.0000
  C   C197      1.0  0.10800  0.64260  0.20270  1.0000
  C   C198      1.0  0.39200  0.14260  0.29730  1.0000
  C   C199      1.0  0.89200  0.35740  0.79730  1.0000
  C   C200      1.0  0.60800  0.85740  0.70270  1.0000
  C   C201      1.0  0.96700  0.64670  0.20730  1.0000
  C   C202      1.0  0.53300  0.14670  0.29270  1.0000
  C   C203      1.0  0.03300  0.35330  0.79270  1.0000
  C   C204      1.0  0.46700  0.85330  0.70730  1.0000
  C   C205      1.0  0.90100  0.61020  0.23880  1.0000
  C   C206      1.0  0.59900  0.11020  0.26120  1.0000
  C   C207      1.0  0.09900  0.38980  0.76120  1.0000
  C   C208      1.0  0.40100  0.88980  0.73880  1.0000
  C   C209      1.0  0.97700  0.57130  0.26660  1.0000
  C   C210      1.0  0.52300  0.07130  0.23340  1.0000
  C   C211      1.0  0.02300  0.42870  0.73340  1.0000
  C   C212      1.0  0.47700  0.92870  0.76660  1.0000
  C   C213      1.0  0.11700  0.56500  0.26210  1.0000
  C   C214      1.0  0.38300  0.06500  0.23790  1.0000
  C   C215      1.0  0.88300  0.43500  0.73790  1.0000
  C   C216      1.0  0.61700  0.93500  0.76210  1.0000
  C   C217      1.0  0.18050  0.23010  0.14690  1.0000
  C   C218      1.0  0.31950  0.73010  0.35310  1.0000
  C   C219      1.0  0.81950  0.76990  0.85310  1.0000
  C   C220      1.0  0.68050  0.26990  0.64690  1.0000
  C   C221      1.0  0.14230  0.17880  0.17220  1.0000
  C   C222      1.0  0.35770  0.67880  0.32780  1.0000
  C   C223      1.0  0.85770  0.82120  0.82780  1.0000
  C   C224      1.0  0.64230  0.32120  0.67220  1.0000
  C   C225      1.0  0.28970  0.45760  0.11570  1.0000
  C   C226      1.0  0.21030  0.95760  0.38430  1.0000
  C   C227      1.0  0.71030  0.54240  0.88430  1.0000
  C   C228      1.0  0.78970  0.04240  0.61570  1.0000
  C   C229      1.0  0.28920  0.51460  0.12810  1.0000
  C   C230      1.0  0.21080  0.01460  0.37190  1.0000
  C   C231      1.0  0.71080  0.48540  0.87190  1.0000
  C   C232      1.0  0.78920  0.98540  0.62810  1.0000
  H   H1        1.0  0.47197  0.06207  0.05200  1.0000
  H   H2        1.0  0.02803  0.56207  0.44800  1.0000
  H   H3        1.0  0.52803  0.93793  0.94800  1.0000
  H   H4        1.0  0.97197  0.43793  0.55200  1.0000
  H   H5        1.0  0.47834  0.97351  0.05612  1.0000
  H   H6        1.0  0.02166  0.47351  0.44388  1.0000
  H   H7        1.0  0.52166  0.02649  0.94388  1.0000
  H   H8        1.0  0.97834  0.52649  0.55612  1.0000
  H   H9        1.0  0.27348  0.92830  0.05913  1.0000
  H   H10       1.0  0.22652  0.42830  0.44087  1.0000
  H   H11       1.0  0.72652  0.07170  0.94087  1.0000
  H   H12       1.0  0.77348  0.57170  0.55913  1.0000
  H   H13       1.0  0.06820  0.97022  0.06652  1.0000
  H   H14       1.0  0.43180  0.47022  0.43348  1.0000
  H   H15       1.0  0.93180  0.02978  0.93348  1.0000
  H   H16       1.0  0.56820  0.52978  0.56652  1.0000
  H   H17       1.0  0.06401  0.05908  0.06367  1.0000
  H   H18       1.0  0.43599  0.55908  0.43633  1.0000
  H   H19       1.0  0.93599  0.94092  0.93633  1.0000
  H   H20       1.0  0.56401  0.44092  0.56367  1.0000
  H   H21       1.0  0.51348  0.18099  0.15123  1.0000
  H   H22       1.0  0.98652  0.68099  0.34877  1.0000
  H   H23       1.0  0.48652  0.81901  0.84877  1.0000
  H   H24       1.0  0.01348  0.31901  0.65123  1.0000
  H   H25       1.0  0.75492  0.19963  0.14906  1.0000
  H   H26       1.0  0.74508  0.69963  0.35094  1.0000
  H   H27       1.0  0.24508  0.80037  0.85094  1.0000
  H   H28       1.0  0.25492  0.30037  0.64906  1.0000
  H   H29       1.0  0.84341  0.20100  0.05360  1.0000
  H   H30       1.0  0.65659  0.70100  0.44640  1.0000
  H   H31       1.0  0.15659  0.79900  0.94640  1.0000
  H   H32       1.0  0.34341  0.29900  0.55360  1.0000
  H   H33       1.0  0.70932  0.18185  0.96612  1.0000
  H   H34       1.0  0.79068  0.68185  0.53388  1.0000
  H   H35       1.0  0.29068  0.81815  0.03388  1.0000
  H   H36       1.0  0.20932  0.31815  0.46612  1.0000
  H   H37       1.0  0.47096  0.16677  0.96643  1.0000
  H   H38       1.0  0.02904  0.66677  0.53357  1.0000
  H   H39       1.0  0.52904  0.83323  0.03357  1.0000
  H   H40       1.0  0.97096  0.33323  0.46643  1.0000
  H   H41       1.0  0.08748  0.09845  0.95200  1.0000
  H   H42       1.0  0.41252  0.59845  0.54800  1.0000
  H   H43       1.0  0.91252  0.90155  0.04800  1.0000
  H   H44       1.0  0.58748  0.40155  0.45200  1.0000
  H   H45       1.0  0.92913  0.11684  0.86657  1.0000
  H   H46       1.0  0.57087  0.61684  0.63343  1.0000
  H   H47       1.0  0.07087  0.88316  0.13343  1.0000
  H   H48       1.0  0.42913  0.38316  0.36657  1.0000
  H   H49       1.0  0.87692  0.19959  0.83930  1.0000
  H   H50       1.0  0.62308  0.69959  0.66070  1.0000
  H   H51       1.0  0.12308  0.80041  0.16070  1.0000
  H   H52       1.0  0.37692  0.30041  0.33930  1.0000
  H   H53       1.0  0.97043  0.26521  0.90219  1.0000
  H   H54       1.0  0.52957  0.76521  0.59781  1.0000
  H   H55       1.0  0.02957  0.73479  0.09781  1.0000
  H   H56       1.0  0.47043  0.23479  0.40219  1.0000
  H   H57       1.0  0.12574  0.24644  0.99048  1.0000
  H   H58       1.0  0.37426  0.74644  0.50952  1.0000
  H   H59       1.0  0.87426  0.75356  0.00952  1.0000
  H   H60       1.0  0.62574  0.25356  0.49048  1.0000
  H   H61       1.0  0.08266  0.44108  0.23147  1.0000
  H   H62       1.0  0.41734  0.94108  0.26853  1.0000
  H   H63       1.0  0.91734  0.55892  0.76853  1.0000
  H   H64       1.0  0.58266  0.05892  0.73147  1.0000
  H   H65       1.0  0.96015  0.45544  0.31568  1.0000
  H   H66       1.0  0.53985  0.95544  0.18432  1.0000
  H   H67       1.0  0.03985  0.54456  0.68432  1.0000
  H   H68       1.0  0.46015  0.04456  0.81568  1.0000
  H   H69       1.0  0.90881  0.39054  0.37892  1.0000
  H   H70       1.0  0.59119  0.89054  0.12108  1.0000
  H   H71       1.0  0.09119  0.60946  0.62108  1.0000
  H   H72       1.0  0.40881  0.10946  0.87892  1.0000
  H   H73       1.0  0.97315  0.30950  0.35601  1.0000
  H   H74       1.0  0.52685  0.80950  0.14399  1.0000
  H   H75       1.0  0.02685  0.69050  0.64399  1.0000
  H   H76       1.0  0.47315  0.19050  0.85601  1.0000
  H   H77       1.0  0.08617  0.29360  0.26908  1.0000
  H   H78       1.0  0.41383  0.79360  0.23092  1.0000
  H   H79       1.0  0.91383  0.70640  0.73092  1.0000
  H   H80       1.0  0.58617  0.20640  0.76908  1.0000
  H   H81       1.0  0.92009  0.30398  0.11224  1.0000
  H   H82       1.0  0.57991  0.80398  0.38776  1.0000
  H   H83       1.0  0.07991  0.69602  0.88776  1.0000
  H   H84       1.0  0.42009  0.19602  0.61224  1.0000
  H   H85       1.0  0.76049  0.30374  0.02342  1.0000
  H   H86       1.0  0.73951  0.80374  0.47658  1.0000
  H   H87       1.0  0.23951  0.69626  0.97658  1.0000
  H   H88       1.0  0.26049  0.19626  0.52342  1.0000
  H   H89       1.0  0.81667  0.34182  0.93390  1.0000
  H   H90       1.0  0.68333  0.84182  0.56610  1.0000
  H   H91       1.0  0.18333  0.65818  0.06610  1.0000
  H   H92       1.0  0.31667  0.15818  0.43390  1.0000
  H   H93       1.0  0.02438  0.38266  0.93252  1.0000
  H   H94       1.0  0.47562  0.88266  0.56748  1.0000
  H   H95       1.0  0.97562  0.61734  0.06748  1.0000
  H   H96       1.0  0.52438  0.11734  0.43252  1.0000
  H   H97       1.0  0.18665  0.38427  0.02190  1.0000
  H   H98       1.0  0.31335  0.88427  0.47810  1.0000
  H   H99       1.0  0.81335  0.61573  0.97810  1.0000
  H   H100      1.0  0.68665  0.11573  0.52190  1.0000
  H   H101      1.0  0.43416  0.30057  0.10180  1.0000
  H   H102      1.0  0.06584  0.80057  0.39820  1.0000
  H   H103      1.0  0.56584  0.69943  0.89820  1.0000
  H   H104      1.0  0.93416  0.19943  0.60180  1.0000
  H   H105      1.0  0.67757  0.29390  0.12314  1.0000
  H   H106      1.0  0.82243  0.79390  0.37686  1.0000
  H   H107      1.0  0.32243  0.70610  0.87686  1.0000
  H   H108      1.0  0.17757  0.20610  0.62314  1.0000
  H   H109      1.0  0.78726  0.32484  0.21592  1.0000
  H   H110      1.0  0.71274  0.82484  0.28408  1.0000
  H   H111      1.0  0.21274  0.67516  0.78408  1.0000
  H   H112      1.0  0.28726  0.17516  0.71592  1.0000
  H   H113      1.0  0.66944  0.37619  0.27296  1.0000
  H   H114      1.0  0.83056  0.87619  0.22704  1.0000
  H   H115      1.0  0.33056  0.62381  0.72704  1.0000
  H   H116      1.0  0.16944  0.12381  0.77296  1.0000
  H   H117      1.0  0.43203  0.38996  0.24805  1.0000
  H   H118      1.0  0.06797  0.88996  0.25195  1.0000
  H   H119      1.0  0.56797  0.61004  0.75195  1.0000
  H   H120      1.0  0.93203  0.11004  0.74805  1.0000
  H   H121      1.0  0.61095  0.62267  0.33482  1.0000
  H   H122      1.0  0.88905  0.12267  0.16518  1.0000
  H   H123      1.0  0.38905  0.37733  0.66518  1.0000
  H   H124      1.0  0.11095  0.87733  0.83482  1.0000
  H   H125      1.0  0.75618  0.57973  0.41066  1.0000
  H   H126      1.0  0.74382  0.07973  0.08934  1.0000
  H   H127      1.0  0.24382  0.42027  0.58934  1.0000
  H   H128      1.0  0.25618  0.92027  0.91066  1.0000
  H   H129      1.0  0.76405  0.49278  0.41279  1.0000
  H   H130      1.0  0.73595  0.99278  0.08721  1.0000
  H   H131      1.0  0.23595  0.50722  0.58721  1.0000
  H   H132      1.0  0.26405  0.00722  0.91279  1.0000
  H   H133      1.0  0.63508  0.44698  0.33543  1.0000
  H   H134      1.0  0.86492  0.94698  0.16457  1.0000
  H   H135      1.0  0.36492  0.55302  0.66457  1.0000
  H   H136      1.0  0.13508  0.05302  0.83543  1.0000
  H   H137      1.0  0.48301  0.48833  0.26051  1.0000
  H   H138      1.0  0.01699  0.98833  0.23949  1.0000
  H   H139      1.0  0.51699  0.51167  0.73949  1.0000
  H   H140      1.0  0.98301  0.01167  0.76051  1.0000
  H   H141      1.0  0.41368  0.59596  0.08082  1.0000
  H   H142      1.0  0.08632  0.09596  0.41918  1.0000
  H   H143      1.0  0.58632  0.40404  0.91918  1.0000
  H   H144      1.0  0.91368  0.90404  0.58082  1.0000
  H   H145      1.0  0.51515  0.64089  0.00503  1.0000
  H   H146      1.0  0.98485  0.14089  0.49497  1.0000
  H   H147      1.0  0.48485  0.35911  0.99497  1.0000
  H   H148      1.0  0.01515  0.85911  0.50503  1.0000
  H   H149      1.0  0.66083  0.70810  0.03243  1.0000
  H   H150      1.0  0.83917  0.20810  0.46757  1.0000
  H   H151      1.0  0.33917  0.29190  0.96757  1.0000
  H   H152      1.0  0.16083  0.79190  0.53243  1.0000
  H   H153      1.0  0.69574  0.73469  0.13562  1.0000
  H   H154      1.0  0.80426  0.23469  0.36438  1.0000
  H   H155      1.0  0.30426  0.26531  0.86438  1.0000
  H   H156      1.0  0.19574  0.76531  0.63562  1.0000
  H   H157      1.0  0.58613  0.69163  0.21188  1.0000
  H   H158      1.0  0.91387  0.19163  0.28812  1.0000
  H   H159      1.0  0.41387  0.30837  0.78812  1.0000
  H   H160      1.0  0.08613  0.80837  0.71188  1.0000
  H   H161      1.0  0.15344  0.66744  0.18128  1.0000
  H   H162      1.0  0.34656  0.16744  0.31872  1.0000
  H   H163      1.0  0.84656  0.33256  0.81872  1.0000
  H   H164      1.0  0.65344  0.83256  0.68128  1.0000
  H   H165      1.0  0.91645  0.67421  0.18893  1.0000
  H   H166      1.0  0.58355  0.17421  0.31107  1.0000
  H   H167      1.0  0.08355  0.32579  0.81107  1.0000
  H   H168      1.0  0.41645  0.82579  0.68893  1.0000
  H   H169      1.0  0.80514  0.61224  0.24120  1.0000
  H   H170      1.0  0.69486  0.11224  0.25880  1.0000
  H   H171      1.0  0.19486  0.38776  0.75880  1.0000
  H   H172      1.0  0.30514  0.88776  0.74120  1.0000
  H   H173      1.0  0.93188  0.54730  0.28945  1.0000
  H   H174      1.0  0.56812  0.04730  0.21055  1.0000
  H   H175      1.0  0.06812  0.45270  0.71055  1.0000
  H   H176      1.0  0.43188  0.95270  0.78945  1.0000
  H   H177      1.0  0.16743  0.53851  0.28074  1.0000
  H   H178      1.0  0.33257  0.03851  0.21926  1.0000
  H   H179      1.0  0.83257  0.46149  0.71926  1.0000
  H   H180      1.0  0.66743  0.96149  0.78074  1.0000
