data_image0
_chemical_formula_structural       Cd8In32S62N4C2H2C4H2C6H2C4H6C2H6N4C2H4C2H4C2H4C2H4C2H4C2H4C2N4C2H4C2H4C2H4C2H4C2H4C2H4C2
_chemical_formula_sum              "Cd8 In32 S62 N12 C46 H66"
_cell_length_a       17.5175
_cell_length_b       17.6943
_cell_length_c       23.4522
_cell_angle_alpha    106.526
_cell_angle_beta     99.634
_cell_angle_gamma    98.379

_space_group_name_H-M_alt    "P 1"
_space_group_IT_number       1

loop_
  _space_group_symop_operation_xyz
  'x, y, z'

loop_
  _atom_site_type_symbol
  _atom_site_label
  _atom_site_symmetry_multiplicity
  _atom_site_fract_x
  _atom_site_fract_y
  _atom_site_fract_z
  _atom_site_occupancy
  Cd  Cd1       1.0  0.65976  0.10551  0.35392  1.0000
  Cd  Cd2       1.0  0.34024  0.89449  0.64608  1.0000
  Cd  Cd3       1.0  0.79680  0.29089  0.32897  1.0000
  Cd  Cd4       1.0  0.20320  0.70911  0.67103  1.0000
  Cd  Cd5       1.0  0.63215  0.13819  0.18822  1.0000
  Cd  Cd6       1.0  0.36785  0.86181  0.81178  1.0000
  Cd  Cd7       1.0  0.57156  0.29239  0.32544  1.0000
  Cd  Cd8       1.0  0.42844  0.70761  0.67456  1.0000
  In  In1       1.0  0.93537  0.96470  0.21946  1.0000
  In  In2       1.0  0.06463  0.03530  0.78054  1.0000
  In  In3       1.0  0.88769  0.10582  0.35621  1.0000
  In  In4       1.0  0.11231  0.89418  0.64379  1.0000
  In  In5       1.0  0.71960  0.95237  0.21601  1.0000
  In  In6       1.0  0.28040  0.04763  0.78399  1.0000
  In  In7       1.0  0.85840  0.14064  0.19103  1.0000
  In  In8       1.0  0.14160  0.85936  0.80897  1.0000
  In  In9       1.0  0.82695  0.25649  0.49165  1.0000
  In  In10      1.0  0.17305  0.74351  0.50835  1.0000
  In  In11      1.0  0.49334  0.95532  0.21531  1.0000
  In  In12      1.0  0.50666  0.04468  0.78469  1.0000
  In  In13      1.0  0.77662  0.32577  0.16883  1.0000
  In  In14      1.0  0.22338  0.67423  0.83117  1.0000
  In  In15      1.0  0.76107  0.40166  0.61403  1.0000
  In  In16      1.0  0.23893  0.59834  0.38597  1.0000
  In  In17      1.0  0.59807  0.25823  0.48993  1.0000
  In  In18      1.0  0.40193  0.74177  0.51007  1.0000
  In  In19      1.0  0.43231  0.11350  0.35217  1.0000
  In  In20      1.0  0.56769  0.88650  0.64783  1.0000
  In  In21      1.0  0.28462  0.97050  0.21556  1.0000
  In  In22      1.0  0.71538  0.02950  0.78444  1.0000
  In  In23      1.0  0.73538  0.44629  0.46542  1.0000
  In  In24      1.0  0.26462  0.55371  0.53458  1.0000
  In  In25      1.0  0.40386  0.14168  0.18435  1.0000
  In  In26      1.0  0.59614  0.85832  0.81565  1.0000
  In  In27      1.0  0.70949  0.47996  0.30534  1.0000
  In  In28      1.0  0.29051  0.52004  0.69466  1.0000
  In  In29      1.0  0.54327  0.32454  0.16198  1.0000
  In  In30      1.0  0.45673  0.67546  0.83802  1.0000
  In  In31      1.0  0.68507  0.49458  0.14714  1.0000
  In  In32      1.0  0.31493  0.50542  0.85286  1.0000
  S   S1        1.0  0.98260  0.01880  0.32890  1.0000
  S   S2        1.0  0.01740  0.98120  0.67110  1.0000
  S   S3        1.0  0.81180  0.86570  0.18240  1.0000
  S   S4        1.0  0.18820  0.13430  0.81760  1.0000
  S   S5        1.0  0.95560  0.05910  0.16390  1.0000
  S   S6        1.0  0.04440  0.94090  0.83610  1.0000
  S   S7        1.0  0.92370  0.17460  0.46540  1.0000
  S   S8        1.0  0.07630  0.82540  0.53460  1.0000
  S   S9        1.0  0.75550  0.01540  0.32840  1.0000
  S   S10       1.0  0.24450  0.98460  0.67160  1.0000
  S   S11       1.0  0.58720  0.86930  0.19040  1.0000
  S   S12       1.0  0.41280  0.13070  0.80960  1.0000
  S   S13       1.0  0.89720  0.20820  0.30260  1.0000
  S   S14       1.0  0.10280  0.79180  0.69740  1.0000
  S   S15       1.0  0.72590  0.04880  0.15730  1.0000
  S   S16       1.0  0.27410  0.95120  0.84270  1.0000
  S   S17       1.0  0.86960  0.24120  0.13980  1.0000
  S   S18       1.0  0.13040  0.75880  0.86020  1.0000
  S   S19       1.0  0.86520  0.32480  0.60060  1.0000
  S   S20       1.0  0.13480  0.67520  0.39940  1.0000
  S   S21       1.0  0.69320  0.16920  0.46510  1.0000
  S   S22       1.0  0.30680  0.83080  0.53490  1.0000
  S   S23       1.0  0.52430  0.02120  0.32780  1.0000
  S   S24       1.0  0.47570  0.97880  0.67220  1.0000
  S   S25       1.0  0.36220  0.86870  0.18840  1.0000
  S   S26       1.0  0.63780  0.13130  0.81160  1.0000
  S   S27       1.0  0.83310  0.36160  0.44010  1.0000
  S   S28       1.0  0.16690  0.63840  0.55990  1.0000
  S   S29       1.0  0.66520  0.20430  0.29890  1.0000
  S   S30       1.0  0.33480  0.79570  0.70110  1.0000
  S   S31       1.0  0.49800  0.05270  0.15700  1.0000
  S   S32       1.0  0.50200  0.94730  0.84300  1.0000
  S   S33       1.0  0.81080  0.39770  0.28050  1.0000
  S   S34       1.0  0.18920  0.60230  0.71950  1.0000
  S   S35       1.0  0.64110  0.24020  0.13470  1.0000
  S   S36       1.0  0.35890  0.75980  0.86530  1.0000
  S   S37       1.0  0.46330  0.18160  0.46170  1.0000
  S   S38       1.0  0.53670  0.81840  0.53830  1.0000
  S   S39       1.0  0.29730  0.03780  0.32300  1.0000
  S   S40       1.0  0.70270  0.96220  0.67700  1.0000
  S   S41       1.0  0.60160  0.36130  0.43670  1.0000
  S   S42       1.0  0.39840  0.63870  0.56330  1.0000
  S   S43       1.0  0.43320  0.21440  0.29690  1.0000
  S   S44       1.0  0.56680  0.78560  0.70310  1.0000
  S   S45       1.0  0.27130  0.05780  0.15300  1.0000
  S   S46       1.0  0.72870  0.94220  0.84700  1.0000
  S   S47       1.0  0.74030  0.54830  0.41400  1.0000
  S   S48       1.0  0.25970  0.45170  0.58600  1.0000
  S   S49       1.0  0.57260  0.39780  0.27420  1.0000
  S   S50       1.0  0.42740  0.60220  0.72580  1.0000
  S   S51       1.0  0.41170  0.23830  0.12860  1.0000
  S   S52       1.0  0.58830  0.76170  0.87140  1.0000
  S   S53       1.0  0.71370  0.58070  0.25380  1.0000
  S   S54       1.0  0.28630  0.41930  0.74620  1.0000
  S   S55       1.0  0.62920  0.32600  0.60060  1.0000
  S   S56       1.0  0.37080  0.67400  0.39940  1.0000
  S   S57       1.0  0.54800  0.42270  0.10710  1.0000
  S   S58       1.0  0.45200  0.57730  0.89290  1.0000
  S   S59       1.0  0.79020  0.42700  0.11710  1.0000
  S   S60       1.0  0.20980  0.57300  0.88290  1.0000
  S   S61       1.0  0.76690  0.51430  0.57450  1.0000
  S   S62       1.0  0.23310  0.48570  0.42550  1.0000
  N   N1        1.0  0.16010  0.90550  0.19730  1.0000
  N   N2        1.0  0.83990  0.09450  0.80270  1.0000
  N   N3        1.0  0.02930  0.90180  0.19340  1.0000
  N   N4        1.0  0.97070  0.09820  0.80660  1.0000
  C   C1        1.0  0.10580  0.94280  0.21540  1.0000
  C   C2        1.0  0.89420  0.05720  0.78460  1.0000
  H   H1        1.0  0.11870  0.99630  0.24270  1.0000
  H   H2        1.0  0.88130  0.00370  0.75730  1.0000
  C   C3        1.0  0.03510  0.82970  0.15640  1.0000
  C   C4        1.0  0.96490  0.17030  0.84360  1.0000
  C   C5        1.0  0.97540  0.77000  0.11450  1.0000
  C   C6        1.0  0.02460  0.23000  0.88550  1.0000
  H   H3        1.0  0.92100  0.77200  0.11130  1.0000
  H   H4        1.0  0.07900  0.22800  0.88870  1.0000
  C   C7        1.0  0.00010  0.70930  0.07890  1.0000
  C   C8        1.0  0.99990  0.29070  0.92110  1.0000
  C   C9        1.0  0.08100  0.70540  0.07860  1.0000
  C   C10       1.0  0.91900  0.29460  0.92140  1.0000
  C   C11       1.0  0.13890  0.76770  0.11470  1.0000
  C   C12       1.0  0.86110  0.23230  0.88530  1.0000
  H   H5        1.0  0.19310  0.76860  0.11440  1.0000
  H   H6        1.0  0.80690  0.23140  0.88560  1.0000
  C   C13       1.0  0.11420  0.82890  0.15150  1.0000
  C   C14       1.0  0.88580  0.17110  0.84850  1.0000
  C   C15       1.0  0.94120  0.63740  0.03030  1.0000
  C   C16       1.0  0.05880  0.36260  0.96970  1.0000
  H   H7        1.0  0.94970  0.58720  0.03770  1.0000
  H   H8        1.0  0.05030  0.41280  0.96230  1.0000
  H   H9        1.0  0.94940  0.63580  0.98970  1.0000
  H   H10       1.0  0.05060  0.36420  0.01030  1.0000
  H   H11       1.0  0.88690  0.64360  0.03250  1.0000
  H   H12       1.0  0.11310  0.35640  0.96750  1.0000
  C   C17       1.0  0.09300  0.64000  0.02110  1.0000
  C   C18       1.0  0.90700  0.36000  0.97890  1.0000
  H   H13       1.0  0.05690  0.64110  0.98460  1.0000
  H   H14       1.0  0.94310  0.35890  0.01540  1.0000
  H   H15       1.0  0.08160  0.58700  0.02610  1.0000
  H   H16       1.0  0.91840  0.41300  0.97390  1.0000
  H   H17       1.0  0.14770  0.65240  0.01690  1.0000
  H   H18       1.0  0.85230  0.34760  0.98310  1.0000
  N   N5        1.0  0.68407  0.58344  0.09789  1.0000
  N   N6        1.0  0.31593  0.41656  0.90211  1.0000
  N   N7        1.0  0.66507  0.61290  0.00629  1.0000
  N   N8        1.0  0.33493  0.38710  0.99371  1.0000
  C   C19       1.0  0.66529  0.66113  0.12807  1.0000
  C   C20       1.0  0.33471  0.33887  0.87193  1.0000
  H   H19       1.0  0.63950  0.65680  0.16180  1.0000
  H   H20       1.0  0.36050  0.34320  0.83820  1.0000
  H   H21       1.0  0.71450  0.70290  0.14540  1.0000
  H   H22       1.0  0.28550  0.29710  0.85460  1.0000
  C   C21       1.0  0.61277  0.68355  0.08380  1.0000
  C   C22       1.0  0.38723  0.31645  0.91620  1.0000
  H   H23       1.0  0.56180  0.64430  0.07090  1.0000
  H   H24       1.0  0.43820  0.35570  0.92910  1.0000
  H   H25       1.0  0.60210  0.73680  0.10450  1.0000
  H   H26       1.0  0.39790  0.26320  0.89550  1.0000
  C   C23       1.0  0.63976  0.68789  0.02942  1.0000
  C   C24       1.0  0.36024  0.31211  0.97058  1.0000
  H   H27       1.0  0.59630  0.69350  0.99890  1.0000
  H   H28       1.0  0.40370  0.30650  0.00110  1.0000
  H   H29       1.0  0.68430  0.73430  0.03940  1.0000
  H   H30       1.0  0.31570  0.26570  0.96060  1.0000
  C   C25       1.0  0.66821  0.58779  0.94242  1.0000
  C   C26       1.0  0.33179  0.41221  0.05758  1.0000
  H   H31       1.0  0.71520  0.61760  0.93410  1.0000
  H   H32       1.0  0.28480  0.38240  0.06590  1.0000
  H   H33       1.0  0.61940  0.59000  0.91530  1.0000
  H   H34       1.0  0.38060  0.41000  0.08470  1.0000
  C   C27       1.0  0.67480  0.50420  0.94072  1.0000
  C   C28       1.0  0.32520  0.49580  0.05928  1.0000
  H   H35       1.0  0.70880  0.48490  0.91220  1.0000
  H   H36       1.0  0.29120  0.51510  0.08780  1.0000
  H   H37       1.0  0.62160  0.46910  0.92400  1.0000
  H   H38       1.0  0.37840  0.53090  0.07600  1.0000
  C   C29       1.0  0.70807  0.49456  0.00158  1.0000
  C   C30       1.0  0.29193  0.50544  0.99842  1.0000
  H   H39       1.0  0.68240  0.44340  0.00580  1.0000
  H   H40       1.0  0.31760  0.55660  0.99420  1.0000
  H   H41       1.0  0.76610  0.49920  0.00930  1.0000
  H   H42       1.0  0.23390  0.50080  0.99070  1.0000
  C   C31       1.0  0.68447  0.56636  0.04091  1.0000
  C   C32       1.0  0.31553  0.43364  0.95909  1.0000
  N   N9        1.0  0.80118  0.44559  0.71818  1.0000
  N   N10       1.0  0.19882  0.55441  0.28182  1.0000
  N   N11       1.0  0.90918  0.51473  0.80122  1.0000
  N   N12       1.0  0.09082  0.48527  0.19878  1.0000
  C   C33       1.0  0.75754  0.38668  0.74045  1.0000
  C   C34       1.0  0.24246  0.61332  0.25955  1.0000
  H   H43       1.0  0.70860  0.40230  0.75150  1.0000
  H   H44       1.0  0.29140  0.59770  0.24850  1.0000
  H   H45       1.0  0.74460  0.33170  0.71070  1.0000
  H   H46       1.0  0.25540  0.66830  0.28930  1.0000
  C   C35       1.0  0.81755  0.39408  0.79356  1.0000
  C   C36       1.0  0.18245  0.60592  0.20644  1.0000
  H   H47       1.0  0.79050  0.36950  0.81980  1.0000
  H   H48       1.0  0.20950  0.63050  0.18020  1.0000
  H   H49       1.0  0.85440  0.35940  0.77890  1.0000
  H   H50       1.0  0.14560  0.64060  0.22110  1.0000
  C   C37       1.0  0.86614  0.47052  0.83320  1.0000
  C   C38       1.0  0.13386  0.52948  0.16680  1.0000
  H   H51       1.0  0.83190  0.50400  0.85380  1.0000
  H   H52       1.0  0.16810  0.49600  0.14620  1.0000
  H   H53       1.0  0.90440  0.46060  0.86510  1.0000
  H   H54       1.0  0.09560  0.53940  0.13490  1.0000
  C   C39       1.0  0.98360  0.57260  0.82378  1.0000
  C   C40       1.0  0.01640  0.42740  0.17622  1.0000
  H   H55       1.0  0.02800  0.54810  0.83680  1.0000
  H   H56       1.0  0.97200  0.45190  0.16320  1.0000
  H   H57       1.0  0.98090  0.61990  0.85770  1.0000
  H   H58       1.0  0.01910  0.38010  0.14230  1.0000
  C   C41       1.0  0.98911  0.59329  0.76709  1.0000
  C   C42       1.0  0.01089  0.40671  0.23291  1.0000
  H   H59       1.0  0.03910  0.58260  0.75530  1.0000
  H   H60       1.0  0.96090  0.41740  0.24470  1.0000
  H   H61       1.0  0.98930  0.65130  0.77460  1.0000
  H   H62       1.0  0.01070  0.34870  0.22540  1.0000
  C   C43       1.0  0.91953  0.54357  0.71596  1.0000
  C   C44       1.0  0.08047  0.45643  0.28404  1.0000
  H   H63       1.0  0.89000  0.57900  0.69930  1.0000
  H   H64       1.0  0.11000  0.42100  0.30070  1.0000
  H   H65       1.0  0.93800  0.50780  0.68260  1.0000
  H   H66       1.0  0.06200  0.49220  0.31740  1.0000
  C   C45       1.0  0.86787  0.49483  0.74320  1.0000
  C   C46       1.0  0.13213  0.50517  0.25680  1.0000
