data_image0
_chemical_formula_structural       Zn20O96C24H8C16H8C16H8C24H8C24H8C16H8C32H8C16H8C16H8C8
_chemical_formula_sum              "Zn20 O96 C192 H72"
_cell_length_a       12.3215
_cell_length_b       30.711
_cell_length_c       22.7224
_cell_angle_alpha    90
_cell_angle_beta     94.229
_cell_angle_gamma    90

_space_group_name_H-M_alt    "P 1"
_space_group_IT_number       1

loop_
  _space_group_symop_operation_xyz
  'x, y, z'

loop_
  _atom_site_type_symbol
  _atom_site_label
  _atom_site_symmetry_multiplicity
  _atom_site_fract_x
  _atom_site_fract_y
  _atom_site_fract_z
  _atom_site_occupancy
  Zn  Zn1       1.0  0.74016  0.91717  0.66102  1.0000
  Zn  Zn2       1.0  0.25984  0.91717  0.83898  1.0000
  Zn  Zn3       1.0  0.24016  0.41717  0.66102  1.0000
  Zn  Zn4       1.0  0.75984  0.41717  0.83898  1.0000
  Zn  Zn5       1.0  0.25984  0.08283  0.33898  1.0000
  Zn  Zn6       1.0  0.74016  0.08283  0.16102  1.0000
  Zn  Zn7       1.0  0.75984  0.58283  0.33898  1.0000
  Zn  Zn8       1.0  0.24016  0.58283  0.16102  1.0000
  Zn  Zn9       1.0  0.80535  0.63082  0.48792  1.0000
  Zn  Zn10      1.0  0.19465  0.63082  0.01208  1.0000
  Zn  Zn11      1.0  0.30535  0.13082  0.48792  1.0000
  Zn  Zn12      1.0  0.69465  0.13082  0.01208  1.0000
  Zn  Zn13      1.0  0.19465  0.36918  0.51208  1.0000
  Zn  Zn14      1.0  0.80535  0.36918  0.98792  1.0000
  Zn  Zn15      1.0  0.69465  0.86918  0.51208  1.0000
  Zn  Zn16      1.0  0.30535  0.86918  0.98792  1.0000
  Zn  Zn17      1.0  0.00000  0.94840  0.75000  1.0000
  Zn  Zn18      1.0  0.50000  0.44840  0.75000  1.0000
  Zn  Zn19      1.0  0.00000  0.05160  0.25000  1.0000
  Zn  Zn20      1.0  0.50000  0.55160  0.25000  1.0000
  O   O1        1.0  0.44770  0.10650  0.47561  1.0000
  O   O2        1.0  0.55230  0.10650  0.02439  1.0000
  O   O3        1.0  0.94770  0.60650  0.47561  1.0000
  O   O4        1.0  0.05230  0.60650  0.02439  1.0000
  O   O5        1.0  0.55230  0.89350  0.52439  1.0000
  O   O6        1.0  0.44770  0.89350  0.97561  1.0000
  O   O7        1.0  0.05230  0.39350  0.52439  1.0000
  O   O8        1.0  0.94770  0.39350  0.97561  1.0000
  O   O9        1.0  0.40140  0.09769  0.38137  1.0000
  O   O10       1.0  0.59860  0.09769  0.11863  1.0000
  O   O11       1.0  0.90140  0.59769  0.38137  1.0000
  O   O12       1.0  0.09860  0.59769  0.11863  1.0000
  O   O13       1.0  0.59860  0.90231  0.61863  1.0000
  O   O14       1.0  0.40140  0.90231  0.88137  1.0000
  O   O15       1.0  0.09860  0.40231  0.61863  1.0000
  O   O16       1.0  0.90140  0.40231  0.88137  1.0000
  O   O17       1.0  0.67480  0.08083  0.23754  1.0000
  O   O18       1.0  0.32520  0.08083  0.26246  1.0000
  O   O19       1.0  0.17480  0.58083  0.23754  1.0000
  O   O20       1.0  0.82520  0.58083  0.26246  1.0000
  O   O21       1.0  0.32520  0.91917  0.76246  1.0000
  O   O22       1.0  0.67480  0.91917  0.73754  1.0000
  O   O23       1.0  0.82520  0.41917  0.76246  1.0000
  O   O24       1.0  0.17480  0.41917  0.73754  1.0000
  O   O25       1.0  0.84170  0.07690  0.26643  1.0000
  O   O26       1.0  0.15830  0.07690  0.23357  1.0000
  O   O27       1.0  0.34170  0.57690  0.26643  1.0000
  O   O28       1.0  0.65830  0.57690  0.23357  1.0000
  O   O29       1.0  0.15830  0.92310  0.73357  1.0000
  O   O30       1.0  0.84170  0.92310  0.76643  1.0000
  O   O31       1.0  0.65830  0.42310  0.73357  1.0000
  O   O32       1.0  0.34170  0.42310  0.76643  1.0000
  O   O33       1.0  0.17420  0.09824  0.49172  1.0000
  O   O34       1.0  0.82580  0.09824  0.00828  1.0000
  O   O35       1.0  0.67420  0.59824  0.49172  1.0000
  O   O36       1.0  0.32580  0.59824  0.00828  1.0000
  O   O37       1.0  0.82580  0.90176  0.50828  1.0000
  O   O38       1.0  0.17420  0.90176  0.99172  1.0000
  O   O39       1.0  0.32580  0.40176  0.50828  1.0000
  O   O40       1.0  0.67420  0.40176  0.99172  1.0000
  O   O41       1.0  0.22340  0.06107  0.57188  1.0000
  O   O42       1.0  0.77660  0.06107  0.92812  1.0000
  O   O43       1.0  0.72340  0.56107  0.57188  1.0000
  O   O44       1.0  0.27660  0.56107  0.92812  1.0000
  O   O45       1.0  0.77660  0.93893  0.42812  1.0000
  O   O46       1.0  0.22340  0.93893  0.07188  1.0000
  O   O47       1.0  0.27660  0.43893  0.42812  1.0000
  O   O48       1.0  0.72340  0.43893  0.07188  1.0000
  O   O49       1.0  0.94490  0.96293  0.65541  1.0000
  O   O50       1.0  0.05510  0.96293  0.84459  1.0000
  O   O51       1.0  0.44490  0.46293  0.65541  1.0000
  O   O52       1.0  0.55510  0.46293  0.84459  1.0000
  O   O53       1.0  0.05510  0.03707  0.34459  1.0000
  O   O54       1.0  0.94490  0.03707  0.15541  1.0000
  O   O55       1.0  0.55510  0.53707  0.34459  1.0000
  O   O56       1.0  0.44490  0.53707  0.15541  1.0000
  O   O57       1.0  0.77430  0.97000  0.62153  1.0000
  O   O58       1.0  0.22570  0.97000  0.87847  1.0000
  O   O59       1.0  0.27430  0.47000  0.62153  1.0000
  O   O60       1.0  0.72570  0.47000  0.87847  1.0000
  O   O61       1.0  0.22570  0.03000  0.37847  1.0000
  O   O62       1.0  0.77430  0.03000  0.12153  1.0000
  O   O63       1.0  0.72570  0.53000  0.37847  1.0000
  O   O64       1.0  0.27430  0.53000  0.12153  1.0000
  O   O65       1.0  0.82080  0.86344  0.65315  1.0000
  O   O66       1.0  0.17920  0.86344  0.84685  1.0000
  O   O67       1.0  0.32080  0.36344  0.65315  1.0000
  O   O68       1.0  0.67920  0.36344  0.84685  1.0000
  O   O69       1.0  0.17920  0.13656  0.34685  1.0000
  O   O70       1.0  0.82080  0.13656  0.15315  1.0000
  O   O71       1.0  0.67920  0.63656  0.34685  1.0000
  O   O72       1.0  0.32080  0.63656  0.15315  1.0000
  O   O73       1.0  0.74300  0.82754  0.57606  1.0000
  O   O74       1.0  0.25700  0.82754  0.92394  1.0000
  O   O75       1.0  0.24300  0.32754  0.57606  1.0000
  O   O76       1.0  0.75700  0.32754  0.92394  1.0000
  O   O77       1.0  0.25700  0.17246  0.42394  1.0000
  O   O78       1.0  0.74300  0.17246  0.07606  1.0000
  O   O79       1.0  0.75700  0.67246  0.42394  1.0000
  O   O80       1.0  0.24300  0.67246  0.07606  1.0000
  O   O81       1.0  0.82800  0.67482  0.54896  1.0000
  O   O82       1.0  0.17200  0.67482  0.95104  1.0000
  O   O83       1.0  0.32800  0.17482  0.54896  1.0000
  O   O84       1.0  0.67200  0.17482  0.95104  1.0000
  O   O85       1.0  0.17200  0.32518  0.45104  1.0000
  O   O86       1.0  0.82800  0.32518  0.04896  1.0000
  O   O87       1.0  0.67200  0.82518  0.45104  1.0000
  O   O88       1.0  0.32800  0.82518  0.04896  1.0000
  O   O89       1.0  0.93000  0.63838  0.61442  1.0000
  O   O90       1.0  0.07000  0.63838  0.88558  1.0000
  O   O91       1.0  0.43000  0.13838  0.61442  1.0000
  O   O92       1.0  0.57000  0.13838  0.88558  1.0000
  O   O93       1.0  0.07000  0.36162  0.38558  1.0000
  O   O94       1.0  0.93000  0.36162  0.11442  1.0000
  O   O95       1.0  0.57000  0.86162  0.38558  1.0000
  O   O96       1.0  0.43000  0.86162  0.11442  1.0000
  C   C1        1.0  0.47070  0.09827  0.42388  1.0000
  C   C2        1.0  0.52930  0.09827  0.07612  1.0000
  C   C3        1.0  0.97070  0.59827  0.42388  1.0000
  C   C4        1.0  0.02930  0.59827  0.07612  1.0000
  C   C5        1.0  0.52930  0.90173  0.57612  1.0000
  C   C6        1.0  0.47070  0.90173  0.92388  1.0000
  C   C7        1.0  0.02930  0.40173  0.57612  1.0000
  C   C8        1.0  0.97070  0.40173  0.92388  1.0000
  C   C9        1.0  0.58480  0.08911  0.41131  1.0000
  C   C10       1.0  0.41520  0.08911  0.08869  1.0000
  C   C11       1.0  0.08480  0.58911  0.41131  1.0000
  C   C12       1.0  0.91520  0.58911  0.08869  1.0000
  C   C13       1.0  0.41520  0.91089  0.58869  1.0000
  C   C14       1.0  0.58480  0.91089  0.91131  1.0000
  C   C15       1.0  0.91520  0.41089  0.58869  1.0000
  C   C16       1.0  0.08480  0.41089  0.91131  1.0000
  C   C17       1.0  0.66460  0.08117  0.45614  1.0000
  C   C18       1.0  0.33540  0.08117  0.04386  1.0000
  C   C19       1.0  0.16460  0.58117  0.45614  1.0000
  C   C20       1.0  0.83540  0.58117  0.04386  1.0000
  C   C21       1.0  0.33540  0.91883  0.54386  1.0000
  C   C22       1.0  0.66460  0.91883  0.95614  1.0000
  C   C23       1.0  0.83540  0.41883  0.54386  1.0000
  C   C24       1.0  0.16460  0.41883  0.95614  1.0000
  H   H1        1.0  0.64700  0.08290  0.49520  1.0000
  H   H2        1.0  0.35300  0.08290  0.00480  1.0000
  H   H3        1.0  0.14700  0.58290  0.49520  1.0000
  H   H4        1.0  0.85300  0.58290  0.00480  1.0000
  H   H5        1.0  0.35300  0.91710  0.50480  1.0000
  H   H6        1.0  0.64700  0.91710  0.99520  1.0000
  H   H7        1.0  0.85300  0.41710  0.50480  1.0000
  H   H8        1.0  0.14700  0.41710  0.99520  1.0000
  C   C25       1.0  0.77130  0.07058  0.44395  1.0000
  C   C26       1.0  0.22870  0.07058  0.05605  1.0000
  C   C27       1.0  0.27130  0.57058  0.44395  1.0000
  C   C28       1.0  0.72870  0.57058  0.05605  1.0000
  C   C29       1.0  0.22870  0.92942  0.55605  1.0000
  C   C30       1.0  0.77130  0.92942  0.94395  1.0000
  C   C31       1.0  0.72870  0.42942  0.55605  1.0000
  C   C32       1.0  0.27130  0.42942  0.94395  1.0000
  C   C33       1.0  0.79570  0.07015  0.38570  1.0000
  C   C34       1.0  0.20430  0.07015  0.11430  1.0000
  C   C35       1.0  0.29570  0.57015  0.38570  1.0000
  C   C36       1.0  0.70430  0.57015  0.11430  1.0000
  C   C37       1.0  0.20430  0.92985  0.61430  1.0000
  C   C38       1.0  0.79570  0.92985  0.88570  1.0000
  C   C39       1.0  0.70430  0.42985  0.61430  1.0000
  C   C40       1.0  0.29570  0.42985  0.88570  1.0000
  H   H9        1.0  0.86670  0.06420  0.37680  1.0000
  H   H10       1.0  0.13330  0.06420  0.12320  1.0000
  H   H11       1.0  0.36670  0.56420  0.37680  1.0000
  H   H12       1.0  0.63330  0.56420  0.12320  1.0000
  H   H13       1.0  0.13330  0.93580  0.62320  1.0000
  H   H14       1.0  0.86670  0.93580  0.87680  1.0000
  H   H15       1.0  0.63330  0.43580  0.62320  1.0000
  H   H16       1.0  0.36670  0.43580  0.87680  1.0000
  C   C41       1.0  0.71760  0.07829  0.34022  1.0000
  C   C42       1.0  0.28240  0.07829  0.15978  1.0000
  C   C43       1.0  0.21760  0.57829  0.34022  1.0000
  C   C44       1.0  0.78240  0.57829  0.15978  1.0000
  C   C45       1.0  0.28240  0.92171  0.65978  1.0000
  C   C46       1.0  0.71760  0.92171  0.84022  1.0000
  C   C47       1.0  0.78240  0.42171  0.65978  1.0000
  C   C48       1.0  0.21760  0.42171  0.84022  1.0000
  C   C49       1.0  0.61220  0.08742  0.35279  1.0000
  C   C50       1.0  0.38780  0.08742  0.14721  1.0000
  C   C51       1.0  0.11220  0.58742  0.35279  1.0000
  C   C52       1.0  0.88780  0.58742  0.14721  1.0000
  C   C53       1.0  0.38780  0.91258  0.64721  1.0000
  C   C54       1.0  0.61220  0.91258  0.85279  1.0000
  C   C55       1.0  0.88780  0.41258  0.64721  1.0000
  C   C56       1.0  0.11220  0.41258  0.85279  1.0000
  H   H17       1.0  0.55930  0.09250  0.32220  1.0000
  H   H18       1.0  0.44070  0.09250  0.17780  1.0000
  H   H19       1.0  0.05930  0.59250  0.32220  1.0000
  H   H20       1.0  0.94070  0.59250  0.17780  1.0000
  H   H21       1.0  0.44070  0.90750  0.67780  1.0000
  H   H22       1.0  0.55930  0.90750  0.82220  1.0000
  H   H23       1.0  0.94070  0.40750  0.67780  1.0000
  H   H24       1.0  0.05930  0.40750  0.82220  1.0000
  C   C57       1.0  0.74840  0.07770  0.27720  1.0000
  C   C58       1.0  0.25160  0.07770  0.22280  1.0000
  C   C59       1.0  0.24840  0.57770  0.27720  1.0000
  C   C60       1.0  0.75160  0.57770  0.22280  1.0000
  C   C61       1.0  0.25160  0.92230  0.72280  1.0000
  C   C62       1.0  0.74840  0.92230  0.77720  1.0000
  C   C63       1.0  0.75160  0.42230  0.72280  1.0000
  C   C64       1.0  0.24840  0.42230  0.77720  1.0000
  C   C65       1.0  0.85360  0.05767  0.49202  1.0000
  C   C66       1.0  0.14640  0.05767  0.00798  1.0000
  C   C67       1.0  0.35360  0.55767  0.49202  1.0000
  C   C68       1.0  0.64640  0.55767  0.00798  1.0000
  C   C69       1.0  0.14640  0.94233  0.50798  1.0000
  C   C70       1.0  0.85360  0.94233  0.99202  1.0000
  C   C71       1.0  0.64640  0.44233  0.50798  1.0000
  C   C72       1.0  0.35360  0.44233  0.99202  1.0000
  C   C73       1.0  0.82540  0.02917  0.53570  1.0000
  C   C74       1.0  0.17460  0.02917  0.96430  1.0000
  C   C75       1.0  0.32540  0.52917  0.53570  1.0000
  C   C76       1.0  0.67460  0.52917  0.96430  1.0000
  C   C77       1.0  0.17460  0.97083  0.46430  1.0000
  C   C78       1.0  0.82540  0.97083  0.03570  1.0000
  C   C79       1.0  0.67460  0.47083  0.46430  1.0000
  C   C80       1.0  0.32540  0.47083  0.03570  1.0000
  H   H25       1.0  0.75380  0.01980  0.53650  1.0000
  H   H26       1.0  0.24620  0.01980  0.96350  1.0000
  H   H27       1.0  0.25380  0.51980  0.53650  1.0000
  H   H28       1.0  0.74620  0.51980  0.96350  1.0000
  H   H29       1.0  0.24620  0.98020  0.46350  1.0000
  H   H30       1.0  0.75380  0.98020  0.03650  1.0000
  H   H31       1.0  0.74620  0.48020  0.46350  1.0000
  H   H32       1.0  0.25380  0.48020  0.03650  1.0000
  C   C81       1.0  0.90350  0.01454  0.57828  1.0000
  C   C82       1.0  0.09650  0.01454  0.92172  1.0000
  C   C83       1.0  0.40350  0.51454  0.57828  1.0000
  C   C84       1.0  0.59650  0.51454  0.92172  1.0000
  C   C85       1.0  0.09650  0.98546  0.42172  1.0000
  C   C86       1.0  0.90350  0.98546  0.07828  1.0000
  C   C87       1.0  0.59650  0.48546  0.42172  1.0000
  C   C88       1.0  0.40350  0.48546  0.07828  1.0000
  C   C89       1.0  0.87390  0.98005  0.62243  1.0000
  C   C90       1.0  0.12610  0.98005  0.87757  1.0000
  C   C91       1.0  0.37390  0.48005  0.62243  1.0000
  C   C92       1.0  0.62610  0.48005  0.87757  1.0000
  C   C93       1.0  0.12610  0.01995  0.37757  1.0000
  C   C94       1.0  0.87390  0.01995  0.12243  1.0000
  C   C95       1.0  0.62610  0.51995  0.37757  1.0000
  C   C96       1.0  0.37390  0.51995  0.12243  1.0000
  C   C97       1.0  0.00930  0.02876  0.57787  1.0000
  C   C98       1.0  0.99070  0.02876  0.92213  1.0000
  C   C99       1.0  0.50930  0.52876  0.57787  1.0000
  C   C100      1.0  0.49070  0.52876  0.92213  1.0000
  C   C101      1.0  0.99070  0.97124  0.42213  1.0000
  C   C102      1.0  0.00930  0.97124  0.07787  1.0000
  C   C103      1.0  0.49070  0.47124  0.42213  1.0000
  C   C104      1.0  0.50930  0.47124  0.07787  1.0000
  H   H33       1.0  0.06110  0.01910  0.60680  1.0000
  H   H34       1.0  0.93890  0.01910  0.89320  1.0000
  H   H35       1.0  0.56110  0.51910  0.60680  1.0000
  H   H36       1.0  0.43890  0.51910  0.89320  1.0000
  H   H37       1.0  0.93890  0.98090  0.39320  1.0000
  H   H38       1.0  0.06110  0.98090  0.10680  1.0000
  H   H39       1.0  0.43890  0.48090  0.39320  1.0000
  H   H40       1.0  0.56110  0.48090  0.10680  1.0000
  C   C105      1.0  0.03990  0.05755  0.53462  1.0000
  C   C106      1.0  0.96010  0.05755  0.96538  1.0000
  C   C107      1.0  0.53990  0.55755  0.53462  1.0000
  C   C108      1.0  0.46010  0.55755  0.96538  1.0000
  C   C109      1.0  0.96010  0.94245  0.46538  1.0000
  C   C110      1.0  0.03990  0.94245  0.03462  1.0000
  C   C111      1.0  0.46010  0.44245  0.46538  1.0000
  C   C112      1.0  0.53990  0.44245  0.03462  1.0000
  C   C113      1.0  0.96090  0.07168  0.49139  1.0000
  C   C114      1.0  0.03910  0.07168  0.00861  1.0000
  C   C115      1.0  0.46090  0.57168  0.49139  1.0000
  C   C116      1.0  0.53910  0.57168  0.00861  1.0000
  C   C117      1.0  0.03910  0.92832  0.50861  1.0000
  C   C118      1.0  0.96090  0.92832  0.99139  1.0000
  C   C119      1.0  0.53910  0.42832  0.50861  1.0000
  C   C120      1.0  0.46090  0.42832  0.99139  1.0000
  H   H41       1.0  0.98030  0.09060  0.46200  1.0000
  H   H42       1.0  0.01970  0.09060  0.03800  1.0000
  H   H43       1.0  0.48030  0.59060  0.46200  1.0000
  H   H44       1.0  0.51970  0.59060  0.03800  1.0000
  H   H45       1.0  0.01970  0.90940  0.53800  1.0000
  H   H46       1.0  0.98030  0.90940  0.96200  1.0000
  H   H47       1.0  0.51970  0.40940  0.53800  1.0000
  H   H48       1.0  0.48030  0.40940  0.96200  1.0000
  C   C121      1.0  0.15500  0.07303  0.53310  1.0000
  C   C122      1.0  0.84500  0.07303  0.96690  1.0000
  C   C123      1.0  0.65500  0.57303  0.53310  1.0000
  C   C124      1.0  0.34500  0.57303  0.96690  1.0000
  C   C125      1.0  0.84500  0.92697  0.46690  1.0000
  C   C126      1.0  0.15500  0.92697  0.03310  1.0000
  C   C127      1.0  0.34500  0.42697  0.46690  1.0000
  C   C128      1.0  0.65500  0.42697  0.03310  1.0000
  C   C129      1.0  0.80270  0.82992  0.62321  1.0000
  C   C130      1.0  0.19730  0.82992  0.87679  1.0000
  C   C131      1.0  0.30270  0.32992  0.62321  1.0000
  C   C132      1.0  0.69730  0.32992  0.87679  1.0000
  C   C133      1.0  0.19730  0.17008  0.37679  1.0000
  C   C134      1.0  0.80270  0.17008  0.12321  1.0000
  C   C135      1.0  0.69730  0.67008  0.37679  1.0000
  C   C136      1.0  0.30270  0.67008  0.12321  1.0000
  C   C137      1.0  0.85390  0.78835  0.64536  1.0000
  C   C138      1.0  0.14610  0.78835  0.85464  1.0000
  C   C139      1.0  0.35390  0.28835  0.64536  1.0000
  C   C140      1.0  0.64610  0.28835  0.85464  1.0000
  C   C141      1.0  0.14610  0.21165  0.35464  1.0000
  C   C142      1.0  0.85390  0.21165  0.14536  1.0000
  C   C143      1.0  0.64610  0.71165  0.35464  1.0000
  C   C144      1.0  0.35390  0.71165  0.14536  1.0000
  C   C145      1.0  0.91570  0.78774  0.70020  1.0000
  C   C146      1.0  0.08430  0.78774  0.79980  1.0000
  C   C147      1.0  0.41570  0.28774  0.70020  1.0000
  C   C148      1.0  0.58430  0.28774  0.79980  1.0000
  C   C149      1.0  0.08430  0.21226  0.29980  1.0000
  C   C150      1.0  0.91570  0.21226  0.20020  1.0000
  C   C151      1.0  0.58430  0.71226  0.29980  1.0000
  C   C152      1.0  0.41570  0.71226  0.20020  1.0000
  H   H49       1.0  0.92210  0.81300  0.72270  1.0000
  H   H50       1.0  0.07790  0.81300  0.77730  1.0000
  H   H51       1.0  0.42210  0.31300  0.72270  1.0000
  H   H52       1.0  0.57790  0.31300  0.77730  1.0000
  H   H53       1.0  0.07790  0.18700  0.27730  1.0000
  H   H54       1.0  0.92210  0.18700  0.22270  1.0000
  H   H55       1.0  0.57790  0.68700  0.27730  1.0000
  H   H56       1.0  0.42210  0.68700  0.22270  1.0000
  C   C153      1.0  0.96680  0.75017  0.72087  1.0000
  C   C154      1.0  0.03320  0.75017  0.77913  1.0000
  C   C155      1.0  0.46680  0.25017  0.72087  1.0000
  C   C156      1.0  0.53320  0.25017  0.77913  1.0000
  C   C157      1.0  0.03320  0.24983  0.27913  1.0000
  C   C158      1.0  0.96680  0.24983  0.22087  1.0000
  C   C159      1.0  0.53320  0.74983  0.27913  1.0000
  C   C160      1.0  0.46680  0.74983  0.22087  1.0000
  C   C161      1.0  0.95500  0.71275  0.68722  1.0000
  C   C162      1.0  0.04500  0.71275  0.81278  1.0000
  C   C163      1.0  0.45500  0.21275  0.68722  1.0000
  C   C164      1.0  0.54500  0.21275  0.81278  1.0000
  C   C165      1.0  0.04500  0.28725  0.31278  1.0000
  C   C166      1.0  0.95500  0.28725  0.18722  1.0000
  C   C167      1.0  0.54500  0.78725  0.31278  1.0000
  C   C168      1.0  0.45500  0.78725  0.18722  1.0000
  H   H57       1.0  0.98850  0.68720  0.70080  1.0000
  H   H58       1.0  0.01150  0.68720  0.79920  1.0000
  H   H59       1.0  0.48850  0.18720  0.70080  1.0000
  H   H60       1.0  0.51150  0.18720  0.79920  1.0000
  H   H61       1.0  0.01150  0.31280  0.29920  1.0000
  H   H62       1.0  0.98850  0.31280  0.20080  1.0000
  H   H63       1.0  0.51150  0.81280  0.29920  1.0000
  H   H64       1.0  0.48850  0.81280  0.20080  1.0000
  C   C169      1.0  0.89350  0.71278  0.63316  1.0000
  C   C170      1.0  0.10650  0.71278  0.86684  1.0000
  C   C171      1.0  0.39350  0.21278  0.63316  1.0000
  C   C172      1.0  0.60650  0.21278  0.86684  1.0000
  C   C173      1.0  0.10650  0.28722  0.36684  1.0000
  C   C174      1.0  0.89350  0.28722  0.13316  1.0000
  C   C175      1.0  0.60650  0.78722  0.36684  1.0000
  C   C176      1.0  0.39350  0.78722  0.13316  1.0000
  C   C177      1.0  0.84400  0.75038  0.61316  1.0000
  C   C178      1.0  0.15600  0.75038  0.88684  1.0000
  C   C179      1.0  0.34400  0.25038  0.61316  1.0000
  C   C180      1.0  0.65600  0.25038  0.88684  1.0000
  C   C181      1.0  0.15600  0.24962  0.38684  1.0000
  C   C182      1.0  0.84400  0.24962  0.11316  1.0000
  C   C183      1.0  0.65600  0.74962  0.38684  1.0000
  C   C184      1.0  0.34400  0.74962  0.11316  1.0000
  H   H65       1.0  0.80280  0.75030  0.57720  1.0000
  H   H66       1.0  0.19720  0.75030  0.92280  1.0000
  H   H67       1.0  0.30280  0.25030  0.57720  1.0000
  H   H68       1.0  0.69720  0.25030  0.92280  1.0000
  H   H69       1.0  0.19720  0.24970  0.42280  1.0000
  H   H70       1.0  0.80280  0.24970  0.07720  1.0000
  H   H71       1.0  0.69720  0.74970  0.42280  1.0000
  H   H72       1.0  0.30280  0.74970  0.07720  1.0000
  C   C185      1.0  0.88320  0.67132  0.59678  1.0000
  C   C186      1.0  0.11680  0.67132  0.90322  1.0000
  C   C187      1.0  0.38320  0.17132  0.59678  1.0000
  C   C188      1.0  0.61680  0.17132  0.90322  1.0000
  C   C189      1.0  0.11680  0.32868  0.40322  1.0000
  C   C190      1.0  0.88320  0.32868  0.09678  1.0000
  C   C191      1.0  0.61680  0.82868  0.40322  1.0000
  C   C192      1.0  0.38320  0.82868  0.09678  1.0000
