data_image0
_chemical_formula_structural       Ag4C8H4C4H4C12H4C8H4C4H4C8H4C4H4C4H8C4H8C4H8C8H4C4H4C4H4C4H4N8O20H4O4S4
_chemical_formula_sum              "Ag4 C80 H72 N8 O24 S4"
_cell_length_a       17.256
_cell_length_b       8.8829
_cell_length_c       25.443
_cell_angle_alpha    90
_cell_angle_beta     97.284
_cell_angle_gamma    90

_space_group_name_H-M_alt    "P 1"
_space_group_IT_number       1

loop_
  _space_group_symop_operation_xyz
  'x, y, z'

loop_
  _atom_site_type_symbol
  _atom_site_label
  _atom_site_symmetry_multiplicity
  _atom_site_fract_x
  _atom_site_fract_y
  _atom_site_fract_z
  _atom_site_occupancy
  Ag  Ag1       1.0  0.47133  0.87080  0.46190  1.0000
  Ag  Ag2       1.0  0.52867  0.37080  0.03810  1.0000
  Ag  Ag3       1.0  0.52867  0.12920  0.53810  1.0000
  Ag  Ag4       1.0  0.47133  0.62920  0.96190  1.0000
  C   C1        1.0  0.26630  0.02770  0.55970  1.0000
  C   C2        1.0  0.73370  0.52770  0.94030  1.0000
  C   C3        1.0  0.73370  0.97230  0.44030  1.0000
  C   C4        1.0  0.26630  0.47230  0.05970  1.0000
  C   C5        1.0  0.25210  0.89430  0.58560  1.0000
  C   C6        1.0  0.74790  0.39430  0.91440  1.0000
  C   C7        1.0  0.74790  0.10570  0.41440  1.0000
  C   C8        1.0  0.25210  0.60570  0.08560  1.0000
  H   H1        1.0  0.24920  0.80160  0.56680  1.0000
  H   H2        1.0  0.75080  0.30160  0.93320  1.0000
  H   H3        1.0  0.75080  0.19840  0.43320  1.0000
  H   H4        1.0  0.24920  0.69840  0.06680  1.0000
  C   C9        1.0  0.24250  0.89710  0.63830  1.0000
  C   C10       1.0  0.75750  0.39710  0.86170  1.0000
  C   C11       1.0  0.75750  0.10290  0.36170  1.0000
  C   C12       1.0  0.24250  0.60290  0.13830  1.0000
  H   H5        1.0  0.23340  0.80560  0.65580  1.0000
  H   H6        1.0  0.76660  0.30560  0.84420  1.0000
  H   H7        1.0  0.76660  0.19440  0.34420  1.0000
  H   H8        1.0  0.23340  0.69440  0.15580  1.0000
  C   C13       1.0  0.24580  0.03110  0.66620  1.0000
  C   C14       1.0  0.75420  0.53110  0.83380  1.0000
  C   C15       1.0  0.75420  0.96890  0.33380  1.0000
  C   C16       1.0  0.24580  0.46890  0.16620  1.0000
  C   C17       1.0  0.25750  0.16760  0.64000  1.0000
  C   C18       1.0  0.74250  0.66760  0.86000  1.0000
  C   C19       1.0  0.74250  0.83240  0.36000  1.0000
  C   C20       1.0  0.25750  0.33240  0.14000  1.0000
  C   C21       1.0  0.26800  0.16200  0.58711  1.0000
  C   C22       1.0  0.73200  0.66200  0.91289  1.0000
  C   C23       1.0  0.73200  0.83800  0.41289  1.0000
  C   C24       1.0  0.26800  0.33800  0.08711  1.0000
  H   H9        1.0  0.27660  0.25300  0.56910  1.0000
  H   H10       1.0  0.72340  0.75300  0.93090  1.0000
  H   H11       1.0  0.72340  0.74700  0.43090  1.0000
  H   H12       1.0  0.27660  0.24700  0.06910  1.0000
  C   C25       1.0  0.25780  0.31730  0.66810  1.0000
  C   C26       1.0  0.74220  0.81730  0.83190  1.0000
  C   C27       1.0  0.74220  0.68270  0.33190  1.0000
  C   C28       1.0  0.25780  0.18270  0.16810  1.0000
  C   C29       1.0  0.40810  0.64580  0.53620  1.0000
  C   C30       1.0  0.59190  0.14580  0.96380  1.0000
  C   C31       1.0  0.59190  0.35420  0.46380  1.0000
  C   C32       1.0  0.40810  0.85420  0.03620  1.0000
  H   H13       1.0  0.35970  0.68090  0.51850  1.0000
  H   H14       1.0  0.64030  0.18090  0.98150  1.0000
  H   H15       1.0  0.64030  0.31910  0.48150  1.0000
  H   H16       1.0  0.35970  0.81910  0.01850  1.0000
  C   C33       1.0  0.40700  0.53800  0.57400  1.0000
  C   C34       1.0  0.59300  0.03800  0.92600  1.0000
  C   C35       1.0  0.59300  0.46200  0.42600  1.0000
  C   C36       1.0  0.40700  0.96200  0.07400  1.0000
  H   H17       1.0  0.35850  0.50020  0.58230  1.0000
  H   H18       1.0  0.64150  0.00020  0.91770  1.0000
  H   H19       1.0  0.64150  0.49980  0.41770  1.0000
  H   H20       1.0  0.35850  0.99980  0.08230  1.0000
  C   C37       1.0  0.47620  0.48350  0.60028  1.0000
  C   C38       1.0  0.52380  0.98350  0.89972  1.0000
  C   C39       1.0  0.52380  0.51650  0.39972  1.0000
  C   C40       1.0  0.47620  0.01650  0.10028  1.0000
  C   C41       1.0  0.54420  0.54460  0.58630  1.0000
  C   C42       1.0  0.45580  0.04460  0.91370  1.0000
  C   C43       1.0  0.45580  0.45540  0.41370  1.0000
  C   C44       1.0  0.54420  0.95540  0.08630  1.0000
  H   H21       1.0  0.59320  0.50960  0.60300  1.0000
  H   H22       1.0  0.40680  0.00960  0.89700  1.0000
  H   H23       1.0  0.40680  0.49040  0.39700  1.0000
  H   H24       1.0  0.59320  0.99040  0.10300  1.0000
  C   C45       1.0  0.54170  0.65480  0.54870  1.0000
  C   C46       1.0  0.45830  0.15480  0.95130  1.0000
  C   C47       1.0  0.45830  0.34520  0.45130  1.0000
  C   C48       1.0  0.54170  0.84520  0.04870  1.0000
  H   H25       1.0  0.58940  0.69730  0.54070  1.0000
  H   H26       1.0  0.41060  0.19730  0.95930  1.0000
  H   H27       1.0  0.41060  0.30270  0.45930  1.0000
  H   H28       1.0  0.58940  0.80270  0.04070  1.0000
  C   C49       1.0  0.47810  0.36330  0.64170  1.0000
  C   C50       1.0  0.52190  0.86330  0.85830  1.0000
  C   C51       1.0  0.52190  0.63670  0.35830  1.0000
  C   C52       1.0  0.47810  0.13670  0.14170  1.0000
  H   H29       1.0  0.52680  0.30420  0.64200  1.0000
  H   H30       1.0  0.47320  0.80420  0.85800  1.0000
  H   H31       1.0  0.47320  0.69580  0.35800  1.0000
  H   H32       1.0  0.52680  0.19580  0.14200  1.0000
  H   H33       1.0  0.43360  0.29410  0.63230  1.0000
  H   H34       1.0  0.56640  0.79410  0.86770  1.0000
  H   H35       1.0  0.56640  0.70590  0.36770  1.0000
  H   H36       1.0  0.43360  0.20590  0.13230  1.0000
  C   C53       1.0  0.47410  0.42620  0.69697  1.0000
  C   C54       1.0  0.52590  0.92620  0.80303  1.0000
  C   C55       1.0  0.52590  0.57380  0.30303  1.0000
  C   C56       1.0  0.47410  0.07380  0.19697  1.0000
  H   H37       1.0  0.51910  0.49420  0.70680  1.0000
  H   H38       1.0  0.48090  0.99420  0.79320  1.0000
  H   H39       1.0  0.48090  0.50580  0.29320  1.0000
  H   H40       1.0  0.51910  0.00580  0.20680  1.0000
  H   H41       1.0  0.42570  0.48590  0.69680  1.0000
  H   H42       1.0  0.57430  0.98590  0.80320  1.0000
  H   H43       1.0  0.57430  0.51410  0.30320  1.0000
  H   H44       1.0  0.42570  0.01410  0.19680  1.0000
  C   C57       1.0  0.47530  0.30140  0.73803  1.0000
  C   C58       1.0  0.52470  0.80140  0.76197  1.0000
  C   C59       1.0  0.52470  0.69860  0.26197  1.0000
  C   C60       1.0  0.47530  0.19860  0.23803  1.0000
  H   H45       1.0  0.42940  0.23530  0.72890  1.0000
  H   H46       1.0  0.57060  0.73530  0.77110  1.0000
  H   H47       1.0  0.57060  0.76470  0.27110  1.0000
  H   H48       1.0  0.42940  0.26470  0.22890  1.0000
  H   H49       1.0  0.52290  0.23970  0.73740  1.0000
  H   H50       1.0  0.47710  0.73970  0.76260  1.0000
  H   H51       1.0  0.47710  0.76030  0.26260  1.0000
  H   H52       1.0  0.52290  0.26030  0.23740  1.0000
  C   C61       1.0  0.47390  0.36360  0.79267  1.0000
  C   C62       1.0  0.52610  0.86360  0.70733  1.0000
  C   C63       1.0  0.52610  0.63640  0.20733  1.0000
  C   C64       1.0  0.47390  0.13640  0.29267  1.0000
  C   C65       1.0  0.54170  0.38340  0.82770  1.0000
  C   C66       1.0  0.45830  0.88340  0.67230  1.0000
  C   C67       1.0  0.45830  0.61660  0.17230  1.0000
  C   C68       1.0  0.54170  0.11660  0.32770  1.0000
  H   H53       1.0  0.59050  0.35020  0.81840  1.0000
  H   H54       1.0  0.40950  0.85020  0.68160  1.0000
  H   H55       1.0  0.40950  0.64980  0.18160  1.0000
  H   H56       1.0  0.59050  0.14980  0.31840  1.0000
  C   C69       1.0  0.53780  0.45070  0.87540  1.0000
  C   C70       1.0  0.46220  0.95070  0.62460  1.0000
  C   C71       1.0  0.46220  0.54930  0.12460  1.0000
  C   C72       1.0  0.53780  0.04930  0.37540  1.0000
  H   H57       1.0  0.58480  0.46330  0.89880  1.0000
  H   H58       1.0  0.41520  0.96330  0.60120  1.0000
  H   H59       1.0  0.41520  0.53670  0.10120  1.0000
  H   H60       1.0  0.58480  0.03670  0.39880  1.0000
  C   C73       1.0  0.40570  0.47810  0.85800  1.0000
  C   C74       1.0  0.59430  0.97810  0.64200  1.0000
  C   C75       1.0  0.59430  0.52190  0.14200  1.0000
  C   C76       1.0  0.40570  0.02190  0.35800  1.0000
  H   H61       1.0  0.35750  0.50930  0.86880  1.0000
  H   H62       1.0  0.64250  0.00930  0.63120  1.0000
  H   H63       1.0  0.64250  0.49070  0.13120  1.0000
  H   H64       1.0  0.35750  0.99070  0.36880  1.0000
  C   C77       1.0  0.40510  0.41270  0.80930  1.0000
  C   C78       1.0  0.59490  0.91270  0.69070  1.0000
  C   C79       1.0  0.59490  0.58730  0.19070  1.0000
  C   C80       1.0  0.40510  0.08730  0.30930  1.0000
  H   H65       1.0  0.35710  0.40100  0.78680  1.0000
  H   H66       1.0  0.64290  0.90100  0.71320  1.0000
  H   H67       1.0  0.64290  0.59900  0.21320  1.0000
  H   H68       1.0  0.35710  0.09900  0.28680  1.0000
  N   N1        1.0  0.47430  0.70470  0.52275  1.0000
  N   N2        1.0  0.52570  0.20470  0.97725  1.0000
  N   N3        1.0  0.52570  0.29530  0.47725  1.0000
  N   N4        1.0  0.47430  0.79530  0.02275  1.0000
  N   N5        1.0  0.47100  0.49970  0.89091  1.0000
  N   N6        1.0  0.52900  0.99970  0.60909  1.0000
  N   N7        1.0  0.52900  0.50030  0.10909  1.0000
  N   N8        1.0  0.47100  0.00030  0.39091  1.0000
  O   O1        1.0  0.23890  0.14140  0.46551  1.0000
  O   O2        1.0  0.76110  0.64140  0.03449  1.0000
  O   O3        1.0  0.76110  0.85860  0.53449  1.0000
  O   O4        1.0  0.23890  0.35860  0.96551  1.0000
  O   O5        1.0  0.26980  0.87830  0.47300  1.0000
  O   O6        1.0  0.73020  0.37830  0.02700  1.0000
  O   O7        1.0  0.73020  0.12170  0.52700  1.0000
  O   O8        1.0  0.26980  0.62170  0.97300  1.0000
  O   O9        1.0  0.37000  0.06270  0.49762  1.0000
  O   O10       1.0  0.63000  0.56270  0.00238  1.0000
  O   O11       1.0  0.63000  0.93730  0.50238  1.0000
  O   O12       1.0  0.37000  0.43730  0.99762  1.0000
  O   O13       1.0  0.26320  0.43590  0.64413  1.0000
  O   O14       1.0  0.73680  0.93590  0.85587  1.0000
  O   O15       1.0  0.73680  0.56410  0.35587  1.0000
  O   O16       1.0  0.26320  0.06410  0.14413  1.0000
  O   O17       1.0  0.25200  0.30900  0.71766  1.0000
  O   O18       1.0  0.74800  0.80900  0.78234  1.0000
  O   O19       1.0  0.74800  0.69100  0.28234  1.0000
  O   O20       1.0  0.25200  0.19100  0.21766  1.0000
  H   H69       1.0  0.24030  0.22000  0.72600  1.0000
  H   H70       1.0  0.75970  0.72000  0.77400  1.0000
  H   H71       1.0  0.75970  0.78000  0.27400  1.0000
  H   H72       1.0  0.24030  0.28000  0.22600  1.0000
  O   O21       1.0  0.23690  0.03210  0.71783  1.0000
  O   O22       1.0  0.76310  0.53210  0.78217  1.0000
  O   O23       1.0  0.76310  0.96790  0.28217  1.0000
  O   O24       1.0  0.23690  0.46790  0.21783  1.0000
  S   S1        1.0  0.28816  0.02732  0.49398  1.0000
  S   S2        1.0  0.71184  0.52732  0.00602  1.0000
  S   S3        1.0  0.71184  0.97268  0.50602  1.0000
  S   S4        1.0  0.28816  0.47268  0.99398  1.0000
