data_image0
_chemical_formula_structural       Tb4S8O32C8H4C4H4C20H4C4H4C12
_chemical_formula_sum              "Tb4 S8 O32 C48 H16"
_cell_length_a       11.6017
_cell_length_b       16.2188
_cell_length_c       12.0231
_cell_angle_alpha    90
_cell_angle_beta     112.571
_cell_angle_gamma    90

_space_group_name_H-M_alt    "P 1"
_space_group_IT_number       1

loop_
  _space_group_symop_operation_xyz
  'x, y, z'

loop_
  _atom_site_type_symbol
  _atom_site_label
  _atom_site_symmetry_multiplicity
  _atom_site_fract_x
  _atom_site_fract_y
  _atom_site_fract_z
  _atom_site_occupancy
  Tb  Tb1       1.0  0.19438  0.02751  0.07881  1.0000
  Tb  Tb2       1.0  0.80562  0.52751  0.42119  1.0000
  Tb  Tb3       1.0  0.80562  0.97249  0.92119  1.0000
  Tb  Tb4       1.0  0.19438  0.47249  0.57881  1.0000
  S   S1        1.0  0.05305  0.21923  0.71255  1.0000
  S   S2        1.0  0.94695  0.71923  0.78745  1.0000
  S   S3        1.0  0.94695  0.78077  0.28745  1.0000
  S   S4        1.0  0.05305  0.28077  0.21255  1.0000
  S   S5        1.0  0.49007  0.28327  0.25105  1.0000
  S   S6        1.0  0.50993  0.78327  0.24895  1.0000
  S   S7        1.0  0.50993  0.71673  0.74895  1.0000
  S   S8        1.0  0.49007  0.21673  0.75105  1.0000
  O   O1        1.0  0.13060  0.07680  0.87950  1.0000
  O   O2        1.0  0.86940  0.57680  0.62050  1.0000
  O   O3        1.0  0.86940  0.92320  0.12050  1.0000
  O   O4        1.0  0.13060  0.42320  0.37950  1.0000
  O   O5        1.0  0.93830  0.03050  0.84370  1.0000
  O   O6        1.0  0.06170  0.53050  0.65630  1.0000
  O   O7        1.0  0.06170  0.96950  0.15630  1.0000
  O   O8        1.0  0.93830  0.46950  0.34370  1.0000
  O   O9        1.0  0.05680  0.36430  0.56920  1.0000
  O   O10       1.0  0.94320  0.86430  0.93080  1.0000
  O   O11       1.0  0.94320  0.63570  0.43080  1.0000
  O   O12       1.0  0.05680  0.13570  0.06920  1.0000
  O   O13       1.0  0.85890  0.40110  0.52470  1.0000
  O   O14       1.0  0.14110  0.90110  0.97530  1.0000
  O   O15       1.0  0.14110  0.59890  0.47530  1.0000
  O   O16       1.0  0.85890  0.09890  0.02470  1.0000
  O   O17       1.0  0.27510  0.10410  0.28010  1.0000
  O   O18       1.0  0.72490  0.60410  0.21990  1.0000
  O   O19       1.0  0.72490  0.89590  0.71990  1.0000
  O   O20       1.0  0.27510  0.39590  0.78010  1.0000
  O   O21       1.0  0.33730  0.14030  0.13530  1.0000
  O   O22       1.0  0.66270  0.64030  0.36470  1.0000
  O   O23       1.0  0.66270  0.85970  0.86470  1.0000
  O   O24       1.0  0.33730  0.35970  0.63530  1.0000
  O   O25       1.0  0.64830  0.43370  0.29270  1.0000
  O   O26       1.0  0.35170  0.93370  0.20730  1.0000
  O   O27       1.0  0.35170  0.56630  0.70730  1.0000
  O   O28       1.0  0.64830  0.06630  0.79270  1.0000
  O   O29       1.0  0.62360  0.47690  0.45740  1.0000
  O   O30       1.0  0.37640  0.97690  0.04260  1.0000
  O   O31       1.0  0.37640  0.52310  0.54260  1.0000
  O   O32       1.0  0.62360  0.02310  0.95740  1.0000
  C   C1        1.0  0.95780  0.15250  0.74940  1.0000
  C   C2        1.0  0.04220  0.65250  0.75060  1.0000
  C   C3        1.0  0.04220  0.84750  0.25060  1.0000
  C   C4        1.0  0.95780  0.34750  0.24940  1.0000
  C   C5        1.0  0.83610  0.17800  0.70040  1.0000
  C   C6        1.0  0.16390  0.67800  0.79960  1.0000
  C   C7        1.0  0.16390  0.82200  0.29960  1.0000
  C   C8        1.0  0.83610  0.32200  0.20040  1.0000
  H   H1        1.0  0.77120  0.15010  0.71130  1.0000
  H   H2        1.0  0.22880  0.65010  0.78870  1.0000
  H   H3        1.0  0.22880  0.84990  0.28870  1.0000
  H   H4        1.0  0.77120  0.34990  0.21130  1.0000
  C   C9        1.0  0.81940  0.24980  0.63270  1.0000
  C   C10       1.0  0.18060  0.74980  0.86730  1.0000
  C   C11       1.0  0.18060  0.75020  0.36730  1.0000
  C   C12       1.0  0.81940  0.25020  0.13270  1.0000
  H   H5        1.0  0.74230  0.27510  0.59380  1.0000
  H   H6        1.0  0.25770  0.77510  0.90620  1.0000
  H   H7        1.0  0.25770  0.72490  0.40620  1.0000
  H   H8        1.0  0.74230  0.22490  0.09380  1.0000
  C   C13       1.0  0.92830  0.27910  0.62940  1.0000
  C   C14       1.0  0.07170  0.77910  0.87060  1.0000
  C   C15       1.0  0.07170  0.72090  0.37060  1.0000
  C   C16       1.0  0.92830  0.22090  0.12940  1.0000
  C   C17       1.0  0.01300  0.08180  0.82900  1.0000
  C   C18       1.0  0.98700  0.58180  0.67100  1.0000
  C   C19       1.0  0.98700  0.91820  0.17100  1.0000
  C   C20       1.0  0.01300  0.41820  0.32900  1.0000
  C   C21       1.0  0.95000  0.35450  0.56950  1.0000
  C   C22       1.0  0.05000  0.85450  0.93050  1.0000
  C   C23       1.0  0.05000  0.64550  0.43050  1.0000
  C   C24       1.0  0.95000  0.14550  0.06950  1.0000
  C   C25       1.0  0.39340  0.22840  0.30220  1.0000
  C   C26       1.0  0.60660  0.72840  0.19780  1.0000
  C   C27       1.0  0.60660  0.77160  0.69780  1.0000
  C   C28       1.0  0.39340  0.27160  0.80220  1.0000
  C   C29       1.0  0.38280  0.26510  0.40000  1.0000
  C   C30       1.0  0.61720  0.76510  0.10000  1.0000
  C   C31       1.0  0.61720  0.73490  0.60000  1.0000
  C   C32       1.0  0.38280  0.23490  0.90000  1.0000
  H   H9        1.0  0.33460  0.24430  0.44000  1.0000
  H   H10       1.0  0.66540  0.74430  0.06000  1.0000
  H   H11       1.0  0.66540  0.75570  0.56000  1.0000
  H   H12       1.0  0.33460  0.25570  0.94000  1.0000
  C   C33       1.0  0.45330  0.33830  0.43360  1.0000
  C   C34       1.0  0.54670  0.83830  0.06640  1.0000
  C   C35       1.0  0.54670  0.66170  0.56640  1.0000
  C   C36       1.0  0.45330  0.16170  0.93360  1.0000
  H   H13       1.0  0.45530  0.37170  0.49720  1.0000
  H   H14       1.0  0.54470  0.87170  0.00280  1.0000
  H   H15       1.0  0.54470  0.62830  0.50280  1.0000
  H   H16       1.0  0.45530  0.12830  0.99720  1.0000
  C   C37       1.0  0.51780  0.35500  0.36310  1.0000
  C   C38       1.0  0.48220  0.85500  0.13690  1.0000
  C   C39       1.0  0.48220  0.64500  0.63690  1.0000
  C   C40       1.0  0.51780  0.14500  0.86310  1.0000
  C   C41       1.0  0.33150  0.15290  0.23610  1.0000
  C   C42       1.0  0.66850  0.65290  0.26390  1.0000
  C   C43       1.0  0.66850  0.84710  0.76390  1.0000
  C   C44       1.0  0.33150  0.34710  0.73610  1.0000
  C   C45       1.0  0.60000  0.42630  0.37110  1.0000
  C   C46       1.0  0.40000  0.92630  0.12890  1.0000
  C   C47       1.0  0.40000  0.57370  0.62890  1.0000
  C   C48       1.0  0.60000  0.07370  0.87110  1.0000
