data_image0
_chemical_formula_structural       Nd4S8O32C8H4C4H4C20H4C4H4C12
_chemical_formula_sum              "Nd4 S8 O32 C48 H16"
_cell_length_a       11.6005
_cell_length_b       16.4488
_cell_length_c       12.0828
_cell_angle_alpha    90
_cell_angle_beta     112.295
_cell_angle_gamma    90

_space_group_name_H-M_alt    "P 1"
_space_group_IT_number       1

loop_
  _space_group_symop_operation_xyz
  'x, y, z'

loop_
  _atom_site_type_symbol
  _atom_site_label
  _atom_site_symmetry_multiplicity
  _atom_site_fract_x
  _atom_site_fract_y
  _atom_site_fract_z
  _atom_site_occupancy
  Nd  Nd1       1.0  0.19376  0.02640  0.57694  1.0000
  Nd  Nd2       1.0  0.80624  0.52640  0.92306  1.0000
  Nd  Nd3       1.0  0.80624  0.97360  0.42306  1.0000
  Nd  Nd4       1.0  0.19376  0.47360  0.07694  1.0000
  S   S1        1.0  0.05450  0.21759  0.21010  1.0000
  S   S2        1.0  0.94550  0.71759  0.28990  1.0000
  S   S3        1.0  0.94550  0.78241  0.78990  1.0000
  S   S4        1.0  0.05450  0.28241  0.71010  1.0000
  S   S5        1.0  0.48990  0.28146  0.75360  1.0000
  S   S6        1.0  0.51010  0.78146  0.74640  1.0000
  S   S7        1.0  0.51010  0.71854  0.24640  1.0000
  S   S8        1.0  0.48990  0.21854  0.25360  1.0000
  O   O1        1.0  0.13730  0.07940  0.37410  1.0000
  O   O2        1.0  0.86270  0.57940  0.12590  1.0000
  O   O3        1.0  0.86270  0.92060  0.62590  1.0000
  O   O4        1.0  0.13730  0.42060  0.87410  1.0000
  O   O5        1.0  0.95020  0.03190  0.34990  1.0000
  O   O6        1.0  0.04980  0.53190  0.15010  1.0000
  O   O7        1.0  0.04980  0.96810  0.65010  1.0000
  O   O8        1.0  0.95020  0.46810  0.84990  1.0000
  O   O9        1.0  0.05480  0.36120  0.06800  1.0000
  O   O10       1.0  0.94520  0.86120  0.43200  1.0000
  O   O11       1.0  0.94520  0.63880  0.93200  1.0000
  O   O12       1.0  0.05480  0.13880  0.56800  1.0000
  O   O13       1.0  0.85510  0.39750  0.02430  1.0000
  O   O14       1.0  0.14490  0.89750  0.47570  1.0000
  O   O15       1.0  0.14490  0.60250  0.97570  1.0000
  O   O16       1.0  0.85510  0.10250  0.52430  1.0000
  O   O17       1.0  0.27520  0.10420  0.78130  1.0000
  O   O18       1.0  0.72480  0.60420  0.71870  1.0000
  O   O19       1.0  0.72480  0.89580  0.21870  1.0000
  O   O20       1.0  0.27520  0.39580  0.28130  1.0000
  O   O21       1.0  0.34580  0.13840  0.64150  1.0000
  O   O22       1.0  0.65420  0.63840  0.85850  1.0000
  O   O23       1.0  0.65420  0.86160  0.35850  1.0000
  O   O24       1.0  0.34580  0.36160  0.14150  1.0000
  O   O25       1.0  0.64460  0.43200  0.79080  1.0000
  O   O26       1.0  0.35540  0.93200  0.70920  1.0000
  O   O27       1.0  0.35540  0.56800  0.20920  1.0000
  O   O28       1.0  0.64460  0.06800  0.29080  1.0000
  O   O29       1.0  0.61960  0.47330  0.95600  1.0000
  O   O30       1.0  0.38040  0.97330  0.54400  1.0000
  O   O31       1.0  0.38040  0.52670  0.04400  1.0000
  O   O32       1.0  0.61960  0.02670  0.45600  1.0000
  C   C1        1.0  0.96130  0.15240  0.24960  1.0000
  C   C2        1.0  0.03870  0.65240  0.25040  1.0000
  C   C3        1.0  0.03870  0.84760  0.75040  1.0000
  C   C4        1.0  0.96130  0.34760  0.74960  1.0000
  C   C5        1.0  0.84040  0.17610  0.20460  1.0000
  C   C6        1.0  0.15960  0.67610  0.29540  1.0000
  C   C7        1.0  0.15960  0.82390  0.79540  1.0000
  C   C8        1.0  0.84040  0.32390  0.70460  1.0000
  H   H1        1.0  0.77730  0.14860  0.21870  1.0000
  H   H2        1.0  0.22270  0.64860  0.28130  1.0000
  H   H3        1.0  0.22270  0.85140  0.78130  1.0000
  H   H4        1.0  0.77730  0.35140  0.71870  1.0000
  C   C9        1.0  0.82070  0.24650  0.13470  1.0000
  C   C10       1.0  0.17930  0.74650  0.36530  1.0000
  C   C11       1.0  0.17930  0.75350  0.86530  1.0000
  C   C12       1.0  0.82070  0.25350  0.63470  1.0000
  H   H5        1.0  0.74300  0.27050  0.09620  1.0000
  H   H6        1.0  0.25700  0.77050  0.40380  1.0000
  H   H7        1.0  0.25700  0.72950  0.90380  1.0000
  H   H8        1.0  0.74300  0.22950  0.59620  1.0000
  C   C13       1.0  0.92890  0.27600  0.12940  1.0000
  C   C14       1.0  0.07110  0.77600  0.37060  1.0000
  C   C15       1.0  0.07110  0.72400  0.87060  1.0000
  C   C16       1.0  0.92890  0.22400  0.62940  1.0000
  C   C17       1.0  0.02090  0.08330  0.32970  1.0000
  C   C18       1.0  0.97910  0.58330  0.17030  1.0000
  C   C19       1.0  0.97910  0.91670  0.67030  1.0000
  C   C20       1.0  0.02090  0.41670  0.82970  1.0000
  C   C21       1.0  0.94810  0.35090  0.07000  1.0000
  C   C22       1.0  0.05190  0.85090  0.43000  1.0000
  C   C23       1.0  0.05190  0.64910  0.93000  1.0000
  C   C24       1.0  0.94810  0.14910  0.57000  1.0000
  C   C25       1.0  0.39520  0.22570  0.80520  1.0000
  C   C26       1.0  0.60480  0.72570  0.69480  1.0000
  C   C27       1.0  0.60480  0.77430  0.19480  1.0000
  C   C28       1.0  0.39520  0.27430  0.30520  1.0000
  C   C29       1.0  0.38370  0.26310  0.90320  1.0000
  C   C30       1.0  0.61630  0.76310  0.59680  1.0000
  C   C31       1.0  0.61630  0.73690  0.09680  1.0000
  C   C32       1.0  0.38370  0.23690  0.40320  1.0000
  H   H9        1.0  0.33510  0.24280  0.94290  1.0000
  H   H10       1.0  0.66490  0.74280  0.55710  1.0000
  H   H11       1.0  0.66490  0.75720  0.05710  1.0000
  H   H12       1.0  0.33510  0.25720  0.44290  1.0000
  C   C33       1.0  0.45390  0.33550  0.93620  1.0000
  C   C34       1.0  0.54610  0.83550  0.56380  1.0000
  C   C35       1.0  0.54610  0.66450  0.06380  1.0000
  C   C36       1.0  0.45390  0.16450  0.43620  1.0000
  H   H13       1.0  0.45770  0.36760  0.00100  1.0000
  H   H14       1.0  0.54230  0.86760  0.49900  1.0000
  H   H15       1.0  0.54230  0.63240  0.99900  1.0000
  H   H16       1.0  0.45770  0.13240  0.50100  1.0000
  C   C37       1.0  0.51570  0.35350  0.86300  1.0000
  C   C38       1.0  0.48430  0.85350  0.63700  1.0000
  C   C39       1.0  0.48430  0.64650  0.13700  1.0000
  C   C40       1.0  0.51570  0.14650  0.36300  1.0000
  C   C41       1.0  0.33500  0.15100  0.73960  1.0000
  C   C42       1.0  0.66500  0.65100  0.76040  1.0000
  C   C43       1.0  0.66500  0.84900  0.26040  1.0000
  C   C44       1.0  0.33500  0.34900  0.23960  1.0000
  C   C45       1.0  0.59890  0.42390  0.86990  1.0000
  C   C46       1.0  0.40110  0.92390  0.63010  1.0000
  C   C47       1.0  0.40110  0.57610  0.13010  1.0000
  C   C48       1.0  0.59890  0.07610  0.36990  1.0000
