data_image0
_chemical_formula_structural       Eu4S8O32C8H4C4H4C20H4C4H4C12
_chemical_formula_sum              "Eu4 S8 O32 C48 H16"
_cell_length_a       11.5776
_cell_length_b       16.2984
_cell_length_c       12.0326
_cell_angle_alpha    90
_cell_angle_beta     112.5
_cell_angle_gamma    90

_space_group_name_H-M_alt    "P 1"
_space_group_IT_number       1

loop_
  _space_group_symop_operation_xyz
  'x, y, z'

loop_
  _atom_site_type_symbol
  _atom_site_label
  _atom_site_symmetry_multiplicity
  _atom_site_fract_x
  _atom_site_fract_y
  _atom_site_fract_z
  _atom_site_occupancy
  Eu  Eu1       1.0  0.19420  0.02722  0.57810  1.0000
  Eu  Eu2       1.0  0.80580  0.52722  0.92190  1.0000
  Eu  Eu3       1.0  0.80580  0.97278  0.42190  1.0000
  Eu  Eu4       1.0  0.19420  0.47278  0.07810  1.0000
  S   S1        1.0  0.05370  0.21823  0.21141  1.0000
  S   S2        1.0  0.94630  0.71823  0.28859  1.0000
  S   S3        1.0  0.94630  0.78177  0.78859  1.0000
  S   S4        1.0  0.05370  0.28177  0.71141  1.0000
  S   S5        1.0  0.48969  0.28276  0.75153  1.0000
  S   S6        1.0  0.51031  0.78276  0.74847  1.0000
  S   S7        1.0  0.51031  0.71724  0.24847  1.0000
  S   S8        1.0  0.48969  0.21724  0.25153  1.0000
  O   O1        1.0  0.13290  0.07810  0.37720  1.0000
  O   O2        1.0  0.86710  0.57810  0.12280  1.0000
  O   O3        1.0  0.86710  0.92190  0.62280  1.0000
  O   O4        1.0  0.13290  0.42190  0.87720  1.0000
  O   O5        1.0  0.94240  0.03090  0.34600  1.0000
  O   O6        1.0  0.05760  0.53090  0.15400  1.0000
  O   O7        1.0  0.05760  0.96910  0.65400  1.0000
  O   O8        1.0  0.94240  0.46910  0.84600  1.0000
  O   O9        1.0  0.05590  0.36290  0.06760  1.0000
  O   O10       1.0  0.94410  0.86290  0.43240  1.0000
  O   O11       1.0  0.94410  0.63710  0.93240  1.0000
  O   O12       1.0  0.05590  0.13710  0.56760  1.0000
  O   O13       1.0  0.85660  0.39950  0.02270  1.0000
  O   O14       1.0  0.14340  0.89950  0.47730  1.0000
  O   O15       1.0  0.14340  0.60050  0.97730  1.0000
  O   O16       1.0  0.85660  0.10050  0.52270  1.0000
  O   O17       1.0  0.27510  0.10420  0.78100  1.0000
  O   O18       1.0  0.72490  0.60420  0.71900  1.0000
  O   O19       1.0  0.72490  0.89580  0.21900  1.0000
  O   O20       1.0  0.27510  0.39580  0.28100  1.0000
  O   O21       1.0  0.34140  0.13940  0.63870  1.0000
  O   O22       1.0  0.65860  0.63940  0.86130  1.0000
  O   O23       1.0  0.65860  0.86060  0.36130  1.0000
  O   O24       1.0  0.34140  0.36060  0.13870  1.0000
  O   O25       1.0  0.64580  0.43320  0.79160  1.0000
  O   O26       1.0  0.35420  0.93320  0.70840  1.0000
  O   O27       1.0  0.35420  0.56680  0.20840  1.0000
  O   O28       1.0  0.64580  0.06680  0.29160  1.0000
  O   O29       1.0  0.62130  0.47590  0.95670  1.0000
  O   O30       1.0  0.37870  0.97590  0.54330  1.0000
  O   O31       1.0  0.37870  0.52410  0.04330  1.0000
  O   O32       1.0  0.62130  0.02410  0.45670  1.0000
  C   C1        1.0  0.95850  0.15220  0.24890  1.0000
  C   C2        1.0  0.04150  0.65220  0.25110  1.0000
  C   C3        1.0  0.04150  0.84780  0.75110  1.0000
  C   C4        1.0  0.95850  0.34780  0.74890  1.0000
  C   C5        1.0  0.83630  0.17620  0.20170  1.0000
  C   C6        1.0  0.16370  0.67620  0.29830  1.0000
  C   C7        1.0  0.16370  0.82380  0.79830  1.0000
  C   C8        1.0  0.83630  0.32380  0.70170  1.0000
  H   H1        1.0  0.77210  0.14820  0.21370  1.0000
  H   H2        1.0  0.22790  0.64820  0.28630  1.0000
  H   H3        1.0  0.22790  0.85180  0.78630  1.0000
  H   H4        1.0  0.77210  0.35180  0.71370  1.0000
  C   C9        1.0  0.81890  0.24830  0.13300  1.0000
  C   C10       1.0  0.18110  0.74830  0.36700  1.0000
  C   C11       1.0  0.18110  0.75170  0.86700  1.0000
  C   C12       1.0  0.81890  0.25170  0.63300  1.0000
  H   H5        1.0  0.74160  0.27320  0.09430  1.0000
  H   H6        1.0  0.25840  0.77320  0.40570  1.0000
  H   H7        1.0  0.25840  0.72680  0.90570  1.0000
  H   H8        1.0  0.74160  0.22680  0.59430  1.0000
  C   C13       1.0  0.92860  0.27800  0.12920  1.0000
  C   C14       1.0  0.07140  0.77800  0.37080  1.0000
  C   C15       1.0  0.07140  0.72200  0.87080  1.0000
  C   C16       1.0  0.92860  0.22200  0.62920  1.0000
  C   C17       1.0  0.01550  0.08280  0.32830  1.0000
  C   C18       1.0  0.98450  0.58280  0.17170  1.0000
  C   C19       1.0  0.98450  0.91720  0.67170  1.0000
  C   C20       1.0  0.01550  0.41720  0.82830  1.0000
  C   C21       1.0  0.94880  0.35270  0.06870  1.0000
  C   C22       1.0  0.05120  0.85270  0.43130  1.0000
  C   C23       1.0  0.05120  0.64730  0.93130  1.0000
  C   C24       1.0  0.94880  0.14730  0.56870  1.0000
  C   C25       1.0  0.39400  0.22770  0.80320  1.0000
  C   C26       1.0  0.60600  0.72770  0.69680  1.0000
  C   C27       1.0  0.60600  0.77230  0.19680  1.0000
  C   C28       1.0  0.39400  0.27230  0.30320  1.0000
  C   C29       1.0  0.38350  0.26480  0.90240  1.0000
  C   C30       1.0  0.61650  0.76480  0.59760  1.0000
  C   C31       1.0  0.61650  0.73520  0.09760  1.0000
  C   C32       1.0  0.38350  0.23520  0.40240  1.0000
  H   H9        1.0  0.33660  0.24370  0.94360  1.0000
  H   H10       1.0  0.66340  0.74370  0.55640  1.0000
  H   H11       1.0  0.66340  0.75630  0.05640  1.0000
  H   H12       1.0  0.33660  0.25630  0.44360  1.0000
  C   C33       1.0  0.45200  0.33780  0.93320  1.0000
  C   C34       1.0  0.54800  0.83780  0.56680  1.0000
  C   C35       1.0  0.54800  0.66220  0.06680  1.0000
  C   C36       1.0  0.45200  0.16220  0.43320  1.0000
  H   H13       1.0  0.45330  0.37150  0.99600  1.0000
  H   H14       1.0  0.54670  0.87150  0.50400  1.0000
  H   H15       1.0  0.54670  0.62850  0.00400  1.0000
  H   H16       1.0  0.45330  0.12850  0.49600  1.0000
  C   C37       1.0  0.51570  0.35420  0.86270  1.0000
  C   C38       1.0  0.48430  0.85420  0.63730  1.0000
  C   C39       1.0  0.48430  0.64580  0.13730  1.0000
  C   C40       1.0  0.51570  0.14580  0.36270  1.0000
  C   C41       1.0  0.33220  0.15230  0.73790  1.0000
  C   C42       1.0  0.66780  0.65230  0.76210  1.0000
  C   C43       1.0  0.66780  0.84770  0.26210  1.0000
  C   C44       1.0  0.33220  0.34770  0.23790  1.0000
  C   C45       1.0  0.59890  0.42550  0.87070  1.0000
  C   C46       1.0  0.40110  0.92550  0.62930  1.0000
  C   C47       1.0  0.40110  0.57450  0.12930  1.0000
  C   C48       1.0  0.59890  0.07450  0.37070  1.0000
