data_image0
_chemical_formula_structural       Dy4S8O32C8H4C4H4C20H4C4H4C12
_chemical_formula_sum              "Dy4 S8 O32 C48 H16"
_cell_length_a       11.5408
_cell_length_b       16.159
_cell_length_c       12.0019
_cell_angle_alpha    90
_cell_angle_beta     112.733
_cell_angle_gamma    90

_space_group_name_H-M_alt    "P 1"
_space_group_IT_number       1

loop_
  _space_group_symop_operation_xyz
  'x, y, z'

loop_
  _atom_site_type_symbol
  _atom_site_label
  _atom_site_symmetry_multiplicity
  _atom_site_fract_x
  _atom_site_fract_y
  _atom_site_fract_z
  _atom_site_occupancy
  Dy  Dy1       1.0  0.19449  0.02781  0.07877  1.0000
  Dy  Dy2       1.0  0.80551  0.52781  0.42123  1.0000
  Dy  Dy3       1.0  0.80551  0.97219  0.92122  1.0000
  Dy  Dy4       1.0  0.19449  0.47219  0.57878  1.0000
  S   S1        1.0  0.05294  0.21891  0.71243  1.0000
  S   S2        1.0  0.94706  0.71891  0.78757  1.0000
  S   S3        1.0  0.94706  0.78109  0.28757  1.0000
  S   S4        1.0  0.05294  0.28109  0.21243  1.0000
  S   S5        1.0  0.48925  0.28359  0.25072  1.0000
  S   S6        1.0  0.51075  0.78359  0.24928  1.0000
  S   S7        1.0  0.51075  0.71641  0.74928  1.0000
  S   S8        1.0  0.48925  0.21641  0.75072  1.0000
  O   O1        1.0  0.12931  0.07623  0.87958  1.0000
  O   O2        1.0  0.87069  0.57623  0.62042  1.0000
  O   O3        1.0  0.87069  0.92377  0.12042  1.0000
  O   O4        1.0  0.12931  0.42377  0.37958  1.0000
  O   O5        1.0  0.93691  0.02949  0.84311  1.0000
  O   O6        1.0  0.06309  0.52949  0.65689  1.0000
  O   O7        1.0  0.06309  0.97051  0.15689  1.0000
  O   O8        1.0  0.93691  0.47051  0.34311  1.0000
  O   O9        1.0  0.05675  0.36373  0.56788  1.0000
  O   O10       1.0  0.94325  0.86373  0.93212  1.0000
  O   O11       1.0  0.94325  0.63627  0.43212  1.0000
  O   O12       1.0  0.05675  0.13627  0.06788  1.0000
  O   O13       1.0  0.85725  0.40206  0.52329  1.0000
  O   O14       1.0  0.14275  0.90206  0.97671  1.0000
  O   O15       1.0  0.14275  0.59794  0.47671  1.0000
  O   O16       1.0  0.85725  0.09794  0.02329  1.0000
  O   O17       1.0  0.27470  0.10433  0.27988  1.0000
  O   O18       1.0  0.72530  0.60433  0.22012  1.0000
  O   O19       1.0  0.72530  0.89567  0.72012  1.0000
  O   O20       1.0  0.27470  0.39567  0.77988  1.0000
  O   O21       1.0  0.33740  0.13971  0.13568  1.0000
  O   O22       1.0  0.66260  0.63971  0.36432  1.0000
  O   O23       1.0  0.66260  0.86029  0.86432  1.0000
  O   O24       1.0  0.33740  0.36029  0.63568  1.0000
  O   O25       1.0  0.64768  0.43479  0.29265  1.0000
  O   O26       1.0  0.35232  0.93479  0.20735  1.0000
  O   O27       1.0  0.35232  0.56521  0.70735  1.0000
  O   O28       1.0  0.64768  0.06521  0.79265  1.0000
  O   O29       1.0  0.62348  0.47735  0.45693  1.0000
  O   O30       1.0  0.37652  0.97735  0.04307  1.0000
  O   O31       1.0  0.37652  0.52265  0.54307  1.0000
  O   O32       1.0  0.62348  0.02265  0.95693  1.0000
  C   C1        1.0  0.95670  0.15240  0.74820  1.0000
  C   C2        1.0  0.04330  0.65240  0.75180  1.0000
  C   C3        1.0  0.04330  0.84760  0.25180  1.0000
  C   C4        1.0  0.95670  0.34760  0.24820  1.0000
  C   C5        1.0  0.83380  0.17670  0.69870  1.0000
  C   C6        1.0  0.16620  0.67670  0.80130  1.0000
  C   C7        1.0  0.16620  0.82330  0.30130  1.0000
  C   C8        1.0  0.83380  0.32330  0.19870  1.0000
  H   H1        1.0  0.76850  0.14830  0.70890  1.0000
  H   H2        1.0  0.23150  0.64830  0.79110  1.0000
  H   H3        1.0  0.23150  0.85170  0.29110  1.0000
  H   H4        1.0  0.76850  0.35170  0.20890  1.0000
  C   C9        1.0  0.81780  0.24951  0.63080  1.0000
  C   C10       1.0  0.18220  0.74951  0.86920  1.0000
  C   C11       1.0  0.18220  0.75049  0.36920  1.0000
  C   C12       1.0  0.81780  0.25049  0.13080  1.0000
  H   H5        1.0  0.74030  0.27490  0.59140  1.0000
  H   H6        1.0  0.25970  0.77490  0.90860  1.0000
  H   H7        1.0  0.25970  0.72510  0.40860  1.0000
  H   H8        1.0  0.74030  0.22510  0.09140  1.0000
  C   C13       1.0  0.92760  0.27939  0.62820  1.0000
  C   C14       1.0  0.07240  0.77939  0.87180  1.0000
  C   C15       1.0  0.07240  0.72061  0.37180  1.0000
  C   C16       1.0  0.92760  0.22061  0.12820  1.0000
  C   C17       1.0  0.01160  0.08146  0.82880  1.0000
  C   C18       1.0  0.98840  0.58146  0.67120  1.0000
  C   C19       1.0  0.98840  0.91854  0.17120  1.0000
  C   C20       1.0  0.01160  0.41854  0.32880  1.0000
  C   C21       1.0  0.94910  0.35410  0.56860  1.0000
  C   C22       1.0  0.05090  0.85410  0.93140  1.0000
  C   C23       1.0  0.05090  0.64590  0.43140  1.0000
  C   C24       1.0  0.94910  0.14590  0.06860  1.0000
  C   C25       1.0  0.39290  0.22804  0.30340  1.0000
  C   C26       1.0  0.60710  0.72804  0.19660  1.0000
  C   C27       1.0  0.60710  0.77196  0.69660  1.0000
  C   C28       1.0  0.39290  0.27196  0.80340  1.0000
  C   C29       1.0  0.38290  0.26540  0.40080  1.0000
  C   C30       1.0  0.61710  0.76540  0.09920  1.0000
  C   C31       1.0  0.61710  0.73460  0.59920  1.0000
  C   C32       1.0  0.38290  0.23460  0.90080  1.0000
  H   H9        1.0  0.33480  0.24430  0.44120  1.0000
  H   H10       1.0  0.66520  0.74430  0.05880  1.0000
  H   H11       1.0  0.66520  0.75570  0.55880  1.0000
  H   H12       1.0  0.33480  0.25570  0.94120  1.0000
  C   C33       1.0  0.45210  0.33871  0.43410  1.0000
  C   C34       1.0  0.54790  0.83871  0.06590  1.0000
  C   C35       1.0  0.54790  0.66129  0.56590  1.0000
  C   C36       1.0  0.45210  0.16129  0.93410  1.0000
  H   H13       1.0  0.45440  0.37190  0.49820  1.0000
  H   H14       1.0  0.54560  0.87190  0.00180  1.0000
  H   H15       1.0  0.54560  0.62810  0.50180  1.0000
  H   H16       1.0  0.45440  0.12810  0.99820  1.0000
  C   C37       1.0  0.51620  0.35627  0.36210  1.0000
  C   C38       1.0  0.48380  0.85627  0.13790  1.0000
  C   C39       1.0  0.48380  0.64373  0.63790  1.0000
  C   C40       1.0  0.51620  0.14373  0.86210  1.0000
  C   C41       1.0  0.33120  0.15247  0.23730  1.0000
  C   C42       1.0  0.66880  0.65247  0.26270  1.0000
  C   C43       1.0  0.66880  0.84753  0.76270  1.0000
  C   C44       1.0  0.33120  0.34753  0.73730  1.0000
  C   C45       1.0  0.60010  0.42727  0.37090  1.0000
  C   C46       1.0  0.39990  0.92727  0.12910  1.0000
  C   C47       1.0  0.39990  0.57273  0.62910  1.0000
  C   C48       1.0  0.60010  0.07273  0.87090  1.0000
