data_image0
_chemical_formula_structural       Co4K4O32N8C16H8C8H8C8H8C24
_chemical_formula_sum              "Co4 K4 O32 N8 C56 H24"
_cell_length_a       14.473
_cell_length_b       11.075
_cell_length_c       11.441
_cell_angle_alpha    90
_cell_angle_beta     90
_cell_angle_gamma    90

_space_group_name_H-M_alt    "P 1"
_space_group_IT_number       1

loop_
  _space_group_symop_operation_xyz
  'x, y, z'

loop_
  _atom_site_type_symbol
  _atom_site_label
  _atom_site_symmetry_multiplicity
  _atom_site_fract_x
  _atom_site_fract_y
  _atom_site_fract_z
  _atom_site_occupancy
  Co  Co1       1.0  0.48055  0.75000  0.75000  1.0000
  Co  Co2       1.0  0.01945  0.25000  0.75000  1.0000
  Co  Co3       1.0  0.51945  0.25000  0.25000  1.0000
  Co  Co4       1.0  0.98055  0.75000  0.25000  1.0000
  K   K1        1.0  0.25427  0.75000  0.25000  1.0000
  K   K2        1.0  0.24573  0.25000  0.25000  1.0000
  K   K3        1.0  0.74573  0.25000  0.75000  1.0000
  K   K4        1.0  0.75427  0.75000  0.75000  1.0000
  O   O1        1.0  0.59036  0.63450  0.81876  1.0000
  O   O2        1.0  0.90964  0.36550  0.81876  1.0000
  O   O3        1.0  0.90964  0.13450  0.68124  1.0000
  O   O4        1.0  0.59036  0.86550  0.68124  1.0000
  O   O5        1.0  0.40964  0.36550  0.18124  1.0000
  O   O6        1.0  0.09036  0.63450  0.18124  1.0000
  O   O7        1.0  0.09036  0.86550  0.31876  1.0000
  O   O8        1.0  0.40964  0.13450  0.31876  1.0000
  O   O9        1.0  0.63875  0.44135  0.82087  1.0000
  O   O10       1.0  0.86125  0.55865  0.82087  1.0000
  O   O11       1.0  0.86125  0.94135  0.67913  1.0000
  O   O12       1.0  0.63875  0.05865  0.67913  1.0000
  O   O13       1.0  0.36125  0.55865  0.17913  1.0000
  O   O14       1.0  0.13875  0.44135  0.17913  1.0000
  O   O15       1.0  0.13875  0.05865  0.32087  1.0000
  O   O16       1.0  0.36125  0.94135  0.32087  1.0000
  O   O17       1.0  0.38306  0.79029  0.61412  1.0000
  O   O18       1.0  0.11694  0.20971  0.61412  1.0000
  O   O19       1.0  0.11694  0.29029  0.88588  1.0000
  O   O20       1.0  0.38306  0.70971  0.88588  1.0000
  O   O21       1.0  0.61694  0.20971  0.38588  1.0000
  O   O22       1.0  0.88306  0.79029  0.38588  1.0000
  O   O23       1.0  0.88306  0.70971  0.11412  1.0000
  O   O24       1.0  0.61694  0.29029  0.11412  1.0000
  O   O25       1.0  0.29433  0.70434  0.47642  1.0000
  O   O26       1.0  0.20567  0.29566  0.47642  1.0000
  O   O27       1.0  0.20567  0.20434  0.02358  1.0000
  O   O28       1.0  0.29433  0.79566  0.02358  1.0000
  O   O29       1.0  0.70567  0.29566  0.52358  1.0000
  O   O30       1.0  0.79433  0.70434  0.52358  1.0000
  O   O31       1.0  0.79433  0.79566  0.97642  1.0000
  O   O32       1.0  0.70567  0.20434  0.97642  1.0000
  N   N1        1.0  0.46008  0.58853  0.67082  1.0000
  N   N2        1.0  0.03992  0.41147  0.67082  1.0000
  N   N3        1.0  0.03992  0.08853  0.82918  1.0000
  N   N4        1.0  0.46008  0.91147  0.82918  1.0000
  N   N5        1.0  0.53992  0.41147  0.32918  1.0000
  N   N6        1.0  0.96008  0.58853  0.32918  1.0000
  N   N7        1.0  0.96008  0.91147  0.17082  1.0000
  N   N8        1.0  0.53992  0.08853  0.17082  1.0000
  C   C1        1.0  0.50977  0.49265  0.70323  1.0000
  C   C2        1.0  0.99023  0.50735  0.70323  1.0000
  C   C3        1.0  0.99023  0.99265  0.79677  1.0000
  C   C4        1.0  0.50977  0.00735  0.79677  1.0000
  C   C5        1.0  0.49023  0.50735  0.29677  1.0000
  C   C6        1.0  0.00977  0.49265  0.29677  1.0000
  C   C7        1.0  0.00977  0.00735  0.20323  1.0000
  C   C8        1.0  0.49023  0.99265  0.20323  1.0000
  C   C9        1.0  0.49346  0.37962  0.65465  1.0000
  C   C10       1.0  0.00654  0.62038  0.65465  1.0000
  C   C11       1.0  0.00654  0.87962  0.84535  1.0000
  C   C12       1.0  0.49346  0.12038  0.84535  1.0000
  C   C13       1.0  0.50654  0.62038  0.34535  1.0000
  C   C14       1.0  0.99346  0.37962  0.34535  1.0000
  C   C15       1.0  0.99346  0.12038  0.15465  1.0000
  C   C16       1.0  0.50654  0.87962  0.15465  1.0000
  H   H1        1.0  0.52864  0.31311  0.67659  1.0000
  H   H2        1.0  0.97136  0.68689  0.67659  1.0000
  H   H3        1.0  0.97136  0.81311  0.82341  1.0000
  H   H4        1.0  0.52864  0.18689  0.82341  1.0000
  H   H5        1.0  0.47136  0.68689  0.32341  1.0000
  H   H6        1.0  0.02864  0.31311  0.32341  1.0000
  H   H7        1.0  0.02864  0.18689  0.17659  1.0000
  H   H8        1.0  0.47136  0.81311  0.17659  1.0000
  C   C17       1.0  0.42323  0.36846  0.57242  1.0000
  C   C18       1.0  0.07677  0.63154  0.57242  1.0000
  C   C19       1.0  0.07677  0.86846  0.92758  1.0000
  C   C20       1.0  0.42323  0.13154  0.92758  1.0000
  C   C21       1.0  0.57677  0.63154  0.42758  1.0000
  C   C22       1.0  0.92323  0.36846  0.42758  1.0000
  C   C23       1.0  0.92323  0.13154  0.07242  1.0000
  C   C24       1.0  0.57677  0.86846  0.07242  1.0000
  H   H9        1.0  0.41014  0.29350  0.53973  1.0000
  H   H10       1.0  0.08986  0.70650  0.53973  1.0000
  H   H11       1.0  0.08986  0.79350  0.96027  1.0000
  H   H12       1.0  0.41014  0.20650  0.96027  1.0000
  H   H13       1.0  0.58986  0.70650  0.46027  1.0000
  H   H14       1.0  0.91014  0.29350  0.46027  1.0000
  H   H15       1.0  0.91014  0.20650  0.03973  1.0000
  H   H16       1.0  0.58986  0.79350  0.03973  1.0000
  C   C25       1.0  0.37257  0.46946  0.53909  1.0000
  C   C26       1.0  0.12743  0.53054  0.53909  1.0000
  C   C27       1.0  0.12743  0.96946  0.96091  1.0000
  C   C28       1.0  0.37257  0.03054  0.96091  1.0000
  C   C29       1.0  0.62743  0.53054  0.46091  1.0000
  C   C30       1.0  0.87257  0.46946  0.46091  1.0000
  C   C31       1.0  0.87257  0.03054  0.03909  1.0000
  C   C32       1.0  0.62743  0.96946  0.03909  1.0000
  H   H17       1.0  0.32546  0.46321  0.48414  1.0000
  H   H18       1.0  0.17454  0.53679  0.48414  1.0000
  H   H19       1.0  0.17454  0.96321  0.01586  1.0000
  H   H20       1.0  0.32546  0.03679  0.01586  1.0000
  H   H21       1.0  0.67454  0.53679  0.51586  1.0000
  H   H22       1.0  0.82546  0.46321  0.51586  1.0000
  H   H23       1.0  0.82546  0.03679  0.98414  1.0000
  H   H24       1.0  0.67454  0.96321  0.98414  1.0000
  C   C33       1.0  0.39400  0.57982  0.58980  1.0000
  C   C34       1.0  0.10600  0.42018  0.58980  1.0000
  C   C35       1.0  0.10600  0.07982  0.91020  1.0000
  C   C36       1.0  0.39400  0.92018  0.91020  1.0000
  C   C37       1.0  0.60600  0.42018  0.41020  1.0000
  C   C38       1.0  0.89400  0.57982  0.41020  1.0000
  C   C39       1.0  0.89400  0.92018  0.08980  1.0000
  C   C40       1.0  0.60600  0.07982  0.08980  1.0000
  C   C41       1.0  0.58612  0.52358  0.78914  1.0000
  C   C42       1.0  0.91388  0.47642  0.78914  1.0000
  C   C43       1.0  0.91388  0.02358  0.71086  1.0000
  C   C44       1.0  0.58612  0.97642  0.71086  1.0000
  C   C45       1.0  0.41388  0.47642  0.21086  1.0000
  C   C46       1.0  0.08612  0.52358  0.21086  1.0000
  C   C47       1.0  0.08612  0.97642  0.28914  1.0000
  C   C48       1.0  0.41388  0.02358  0.28914  1.0000
  C   C49       1.0  0.35234  0.70095  0.55665  1.0000
  C   C50       1.0  0.14766  0.29905  0.55665  1.0000
  C   C51       1.0  0.14766  0.20095  0.94335  1.0000
  C   C52       1.0  0.35234  0.79905  0.94335  1.0000
  C   C53       1.0  0.64766  0.29905  0.44335  1.0000
  C   C54       1.0  0.85234  0.70095  0.44335  1.0000
  C   C55       1.0  0.85234  0.79905  0.05665  1.0000
  C   C56       1.0  0.64766  0.20095  0.05665  1.0000
