data_image0
_chemical_formula_structural       Zn8K2O48N16C4H2C2H2C16H2C8H2C2H2C2H2C4H2C4H2C4H2C6H2C2H2C2H2C10H2C4H2C2H2C2H2C6H2C2H2C2H2C4H2C2H2C6H2C4H2C2H2C6H2C2H2C2H4C4H2C4H2C6H2C2H4C2H4C4H2C2H2C4H2C2H2C2H2C2H2C8H2C2H2C2H2C4H2C4H2C2H4C2H2C2H2C2H2C4H2C2H4C2H2C2H4C2H2C4H2C2H2C2H4C2H2C4H2C2H2C2H2C4H2C2H2C4H2C2H2C2H2C2H4C2H2C2H2C2H2C2H2C2H4C4H2C4H2C4H2C2H2C2H2C2H4C4H2C2H2C6H2C2H2C2H4C2H2C2H2C2H2C4H2C2H2C4H2C2H4C2H2C2H2C2H2C2H2C2H2C6H2C2H2C2H2C2H2C2H2C2H2C4H2C2H2C6H2C2H2C2H2C6H2C2H2C2H2C2H2K2
_chemical_formula_sum              "Zn8 K4 O48 N16 C336 H240"
_cell_length_a       21.1565
_cell_length_b       21.6297
_cell_length_c       34.339
_cell_angle_alpha    86.156
_cell_angle_beta     85.309
_cell_angle_gamma    61.408

_space_group_name_H-M_alt    "P 1"
_space_group_IT_number       1

loop_
  _space_group_symop_operation_xyz
  'x, y, z'

loop_
  _atom_site_type_symbol
  _atom_site_label
  _atom_site_symmetry_multiplicity
  _atom_site_fract_x
  _atom_site_fract_y
  _atom_site_fract_z
  _atom_site_occupancy
  Zn  Zn1       1.0  0.90305  0.39274  0.16068  1.0000
  Zn  Zn2       1.0  0.09695  0.60726  0.83932  1.0000
  Zn  Zn3       1.0  0.89706  0.22342  0.33959  1.0000
  Zn  Zn4       1.0  0.10294  0.77658  0.66041  1.0000
  Zn  Zn5       1.0  0.86979  0.14976  0.53368  1.0000
  Zn  Zn6       1.0  0.13021  0.85024  0.46632  1.0000
  Zn  Zn7       1.0  0.91411  0.44261  0.96414  1.0000
  Zn  Zn8       1.0  0.08589  0.55739  0.03586  1.0000
  K   K1        1.0  0.93165  0.35641  0.26560  1.0000
  K   K2        1.0  0.06835  0.64359  0.73440  1.0000
  O   O1        1.0  0.99760  0.34240  0.18137  1.0000
  O   O2        1.0  0.00240  0.65760  0.81863  1.0000
  O   O3        1.0  0.82894  0.36410  0.16264  1.0000
  O   O4        1.0  0.17106  0.63590  0.83736  1.0000
  O   O5        1.0  0.86750  0.49205  0.16959  1.0000
  O   O6        1.0  0.13250  0.50795  0.83041  1.0000
  O   O7        1.0  0.86590  0.32339  0.33268  1.0000
  O   O8        1.0  0.13410  0.67661  0.66732  1.0000
  O   O9        1.0  0.00130  0.17750  0.33866  1.0000
  O   O10       1.0  0.99870  0.82250  0.66134  1.0000
  O   O11       1.0  0.85160  0.18030  0.31355  1.0000
  O   O12       1.0  0.14840  0.81970  0.68645  1.0000
  O   O13       1.0  0.97060  0.11690  0.53764  1.0000
  O   O14       1.0  0.02940  0.88310  0.46236  1.0000
  O   O15       1.0  0.81527  0.09993  0.54423  1.0000
  O   O16       1.0  0.18473  0.90007  0.45577  1.0000
  O   O17       1.0  0.80660  0.24856  0.54415  1.0000
  O   O18       1.0  0.19340  0.75144  0.45585  1.0000
  O   O19       1.0  0.01380  0.40260  0.94587  1.0000
  O   O20       1.0  0.98620  0.59740  0.05413  1.0000
  O   O21       1.0  0.87120  0.54220  0.96648  1.0000
  O   O22       1.0  0.12880  0.45780  0.03352  1.0000
  O   O23       1.0  0.84730  0.40820  0.95843  1.0000
  O   O24       1.0  0.15270  0.59180  0.04157  1.0000
  O   O25       1.0  0.89240  0.54660  0.90670  1.0000
  O   O26       1.0  0.10760  0.45340  0.09330  1.0000
  O   O27       1.0  0.79210  0.23870  0.60730  1.0000
  O   O28       1.0  0.20790  0.76130  0.39270  1.0000
  O   O29       1.0  0.86370  0.31520  0.22127  1.0000
  O   O30       1.0  0.13630  0.68480  0.77873  1.0000
  O   O31       1.0  0.84880  0.41980  0.89570  1.0000
  O   O32       1.0  0.15120  0.58020  0.10430  1.0000
  O   O33       1.0  0.96220  0.10550  0.60209  1.0000
  O   O34       1.0  0.03780  0.89450  0.39791  1.0000
  O   O35       1.0  0.00300  0.24380  0.16268  1.0000
  O   O36       1.0  0.99700  0.75620  0.83732  1.0000
  O   O37       1.0  0.75860  0.33110  0.34687  1.0000
  O   O38       1.0  0.24140  0.66890  0.65313  1.0000
  O   O39       1.0  0.90820  0.00280  0.56652  1.0000
  O   O40       1.0  0.09180  0.99720  0.43348  1.0000
  O   O41       1.0  0.93970  0.09600  0.28070  1.0000
  O   O42       1.0  0.06030  0.90400  0.71930  1.0000
  O   O43       1.0  0.01160  0.21530  0.27762  1.0000
  O   O44       1.0  0.98840  0.78470  0.72238  1.0000
  O   O45       1.0  0.01710  0.29820  0.94588  1.0000
  O   O46       1.0  0.98290  0.70180  0.05412  1.0000
  O   O47       1.0  0.85620  0.48680  0.23398  1.0000
  O   O48       1.0  0.14380  0.51320  0.76602  1.0000
  N   N1        1.0  0.58290  0.10430  0.92855  1.0000
  N   N2        1.0  0.41710  0.89570  0.07145  1.0000
  N   N3        1.0  0.53500  0.80120  0.57642  1.0000
  N   N4        1.0  0.46500  0.19880  0.42358  1.0000
  N   N5        1.0  0.57290  0.88540  0.31992  1.0000
  N   N6        1.0  0.42710  0.11460  0.68008  1.0000
  N   N7        1.0  0.56770  0.04550  0.18170  1.0000
  N   N8        1.0  0.43230  0.95450  0.81830  1.0000
  N   N9        1.0  0.91310  0.40550  0.09969  1.0000
  N   N10       1.0  0.08690  0.59450  0.90031  1.0000
  N   N11       1.0  0.91660  0.42440  0.02488  1.0000
  N   N12       1.0  0.08340  0.57560  0.97512  1.0000
  N   N13       1.0  0.88620  0.19590  0.39810  1.0000
  N   N14       1.0  0.11380  0.80410  0.60190  1.0000
  N   N15       1.0  0.87670  0.16810  0.47285  1.0000
  N   N16       1.0  0.12330  0.83190  0.52715  1.0000
  C   C1        1.0  0.78830  0.36040  0.92700  1.0000
  C   C2        1.0  0.21170  0.63960  0.07300  1.0000
  C   C3        1.0  0.76500  0.35240  0.89270  1.0000
  C   C4        1.0  0.23500  0.64760  0.10730  1.0000
  H   H1        1.0  0.77290  0.37370  0.86980  1.0000
  H   H2        1.0  0.22710  0.62630  0.13020  1.0000
  C   C5        1.0  0.72880  0.31180  0.89160  1.0000
  C   C6        1.0  0.27120  0.68820  0.10840  1.0000
  H   H3        1.0  0.71290  0.30640  0.86830  1.0000
  H   H4        1.0  0.28710  0.69360  0.13170  1.0000
  C   C7        1.0  0.80050  0.00050  0.55796  1.0000
  C   C8        1.0  0.19950  0.99950  0.44204  1.0000
  C   C9        1.0  0.30920  0.92630  0.57007  1.0000
  C   C10       1.0  0.69080  0.07370  0.42993  1.0000
  C   C11       1.0  0.60410  0.81160  0.32283  1.0000
  C   C12       1.0  0.39590  0.18840  0.67717  1.0000
  C   C13       1.0  0.07930  0.05530  0.57060  1.0000
  C   C14       1.0  0.92070  0.94470  0.42940  1.0000
  C   C15       1.0  0.11830  0.14000  0.30920  1.0000
  C   C16       1.0  0.88170  0.86000  0.69080  1.0000
  C   C17       1.0  0.71380  0.93180  0.56375  1.0000
  C   C18       1.0  0.28620  0.06820  0.43625  1.0000
  C   C19       1.0  0.69010  0.82340  0.19265  1.0000
  C   C20       1.0  0.30990  0.17660  0.80735  1.0000
  C   C21       1.0  0.71920  0.86490  0.17435  1.0000
  C   C22       1.0  0.28080  0.13510  0.82565  1.0000
  H   H5        1.0  0.76680  0.84310  0.16430  1.0000
  H   H6        1.0  0.23320  0.15690  0.83570  1.0000
  C   C23       1.0  0.76280  0.43970  0.33655  1.0000
  C   C24       1.0  0.23720  0.56030  0.66345  1.0000
  C   C25       1.0  0.74740  0.01990  0.30296  1.0000
  C   C26       1.0  0.25260  0.98010  0.69704  1.0000
  C   C27       1.0  0.73330  0.74590  0.19771  1.0000
  C   C28       1.0  0.26670  0.25410  0.80229  1.0000
  C   C29       1.0  0.67930  0.93660  0.17102  1.0000
  C   C30       1.0  0.32070  0.06340  0.82898  1.0000
  H   H7        1.0  0.69980  0.96260  0.15830  1.0000
  H   H8        1.0  0.30020  0.03740  0.84170  1.0000
  C   C31       1.0  0.68270  0.00560  0.56281  1.0000
  C   C32       1.0  0.31730  0.99440  0.43719  1.0000
  H   H9        1.0  0.63270  0.03260  0.56430  1.0000
  H   H10       1.0  0.36730  0.96740  0.43570  1.0000
  C   C33       1.0  0.72780  0.71000  0.23097  1.0000
  C   C34       1.0  0.27220  0.29000  0.76903  1.0000
  H   H11       1.0  0.69860  0.73460  0.25230  1.0000
  H   H12       1.0  0.30140  0.26540  0.74770  1.0000
  C   C35       1.0  0.49670  0.92910  0.31920  1.0000
  C   C36       1.0  0.50330  0.07090  0.68080  1.0000
  C   C37       1.0  0.33910  0.86270  0.59356  1.0000
  C   C38       1.0  0.66090  0.13730  0.40644  1.0000
  H   H13       1.0  0.30880  0.84870  0.60820  1.0000
  H   H14       1.0  0.69120  0.15130  0.39180  1.0000
  C   C39       1.0  0.69930  0.58610  0.33200  1.0000
  C   C40       1.0  0.30070  0.41390  0.66800  1.0000
  C   C41       1.0  0.72510  0.03930  0.55977  1.0000
  C   C42       1.0  0.27490  0.96070  0.44023  1.0000
  H   H15       1.0  0.70300  0.08830  0.55890  1.0000
  H   H16       1.0  0.29700  0.91170  0.44110  1.0000
  C   C43       1.0  0.78120  0.29190  0.18970  1.0000
  C   C44       1.0  0.21880  0.70810  0.81030  1.0000
  C   C45       1.0  0.61950  0.85920  0.20729  1.0000
  C   C46       1.0  0.38050  0.14080  0.79271  1.0000
  H   H17       1.0  0.59860  0.83330  0.21960  1.0000
  H   H18       1.0  0.40140  0.16670  0.78040  1.0000
  C   C47       1.0  0.45880  0.84160  0.57490  1.0000
  C   C48       1.0  0.54120  0.15840  0.42510  1.0000
  C   C49       1.0  0.66660  0.66350  0.32860  1.0000
  C   C50       1.0  0.33340  0.33650  0.67140  1.0000
  C   C51       1.0  0.67870  0.89180  0.29029  1.0000
  C   C52       1.0  0.32130  0.10820  0.70971  1.0000
  H   H19       1.0  0.69120  0.85260  0.27560  1.0000
  H   H20       1.0  0.30880  0.14740  0.72440  1.0000
  C   C53       1.0  0.19630  0.00970  0.53775  1.0000
  C   C54       1.0  0.80370  0.99030  0.46225  1.0000
  H   H21       1.0  0.22410  0.01060  0.51550  1.0000
  H   H22       1.0  0.77590  0.98940  0.48450  1.0000
  C   C55       1.0  0.76710  0.63430  0.23300  1.0000
  C   C56       1.0  0.23290  0.36570  0.76700  1.0000
  H   H23       1.0  0.76300  0.61010  0.25560  1.0000
  H   H24       1.0  0.23700  0.38990  0.74440  1.0000
  C   C57       1.0  0.26160  0.17240  0.18679  1.0000
  C   C58       1.0  0.73840  0.82760  0.81321  1.0000
  C   C59       1.0  0.60010  0.08790  0.18444  1.0000
  C   C60       1.0  0.39990  0.91210  0.81556  1.0000
  C   C61       1.0  0.49210  0.07810  0.18306  1.0000
  C   C62       1.0  0.50790  0.92190  0.81694  1.0000
  C   C63       1.0  0.66510  0.17690  0.18566  1.0000
  C   C64       1.0  0.33490  0.82310  0.81434  1.0000
  C   C65       1.0  0.82120  0.98320  0.29266  1.0000
  C   C66       1.0  0.17880  0.01680  0.70734  1.0000
  H   H25       1.0  0.84250  0.93550  0.28770  1.0000
  H   H26       1.0  0.15750  0.06450  0.71230  1.0000
  C   C67       1.0  0.70190  0.21810  0.18720  1.0000
  C   C68       1.0  0.29810  0.78190  0.81280  1.0000
  C   C69       1.0  0.18570  0.97690  0.60486  1.0000
  C   C70       1.0  0.81430  0.02310  0.39514  1.0000
  H   H27       1.0  0.20670  0.95280  0.62770  1.0000
  H   H28       1.0  0.79330  0.04720  0.37230  1.0000
  C   C71       1.0  0.22340  0.05860  0.34480  1.0000
  C   C72       1.0  0.77660  0.94140  0.65520  1.0000
  H   H29       1.0  0.24320  0.03250  0.36740  1.0000
  H   H30       1.0  0.75680  0.96750  0.63260  1.0000
  C   C73       1.0  0.71950  0.08940  0.31078  1.0000
  C   C74       1.0  0.28050  0.91060  0.68922  1.0000
  H   H31       1.0  0.67050  0.11490  0.31780  1.0000
  H   H32       1.0  0.32950  0.88510  0.68220  1.0000
  C   C75       1.0  0.66850  0.89730  0.56777  1.0000
  C   C76       1.0  0.33150  0.10270  0.43223  1.0000
  C   C77       1.0  0.61830  0.91700  0.31549  1.0000
  C   C78       1.0  0.38170  0.08300  0.68451  1.0000
  C   C79       1.0  0.71960  0.92470  0.28720  1.0000
  C   C80       1.0  0.28040  0.07530  0.71280  1.0000
  H   H33       1.0  0.76040  0.90650  0.27020  1.0000
  H   H34       1.0  0.23960  0.09350  0.72980  1.0000
  C   C81       1.0  0.76090  0.12410  0.30870  1.0000
  C   C82       1.0  0.23910  0.87590  0.69130  1.0000
  H   H35       1.0  0.73970  0.17130  0.31480  1.0000
  H   H36       1.0  0.26030  0.82870  0.68520  1.0000
  C   C83       1.0  0.60450  0.70290  0.30891  1.0000
  C   C84       1.0  0.39550  0.29710  0.69109  1.0000
  H   H37       1.0  0.58280  0.68040  0.29760  1.0000
  H   H38       1.0  0.41720  0.31960  0.70240  1.0000
  C   C85       1.0  0.56920  0.72470  0.57800  1.0000
  C   C86       1.0  0.43080  0.27530  0.42200  1.0000
  C   C87       1.0  0.60310  0.92550  0.58979  1.0000
  C   C88       1.0  0.39690  0.07450  0.41021  1.0000
  H   H39       1.0  0.58780  0.96720  0.60270  1.0000
  H   H40       1.0  0.41220  0.03280  0.39730  1.0000
  C   C89       1.0  0.37720  0.94900  0.33709  1.0000
  C   C90       1.0  0.62280  0.05100  0.66291  1.0000
  H   H41       1.0  0.34690  0.93430  0.35100  1.0000
  H   H42       1.0  0.65310  0.06570  0.64900  1.0000
  C   C91       1.0  0.81050  0.59770  0.20174  1.0000
  C   C92       1.0  0.18950  0.40230  0.79826  1.0000
  C   C93       1.0  0.57920  0.83210  0.57290  1.0000
  C   C94       1.0  0.42080  0.16790  0.42710  1.0000
  C   C95       1.0  0.44940  0.90950  0.33795  1.0000
  C   C96       1.0  0.55060  0.09050  0.66205  1.0000
  H   H43       1.0  0.46790  0.86680  0.35200  1.0000
  H   H44       1.0  0.53210  0.13320  0.64800  1.0000
  C   C97       1.0  0.79640  0.35800  0.34000  1.0000
  C   C98       1.0  0.20360  0.64200  0.66000  1.0000
  C   C99       1.0  0.65940  0.55160  0.33260  1.0000
  C   C100      1.0  0.34060  0.44840  0.66740  1.0000
  H   H45       1.0  0.60960  0.57800  0.33130  1.0000
  H   H46       1.0  0.39040  0.42200  0.66870  1.0000
  C   C101      1.0  0.38290  0.08950  0.16094  1.0000
  C   C102      1.0  0.61710  0.91050  0.83906  1.0000
  H   H47       1.0  0.36100  0.07360  0.14470  1.0000
  H   H48       1.0  0.63900  0.92640  0.85530  1.0000
  C   C103      1.0  0.34040  0.14010  0.18511  1.0000
  C   C104      1.0  0.65960  0.85990  0.81489  1.0000
  C   C105      1.0  0.26810  0.05780  0.31200  1.0000
  C   C106      1.0  0.73190  0.94220  0.68800  1.0000
  C   C107      1.0  0.78840  0.89360  0.56126  1.0000
  C   C108      1.0  0.21160  0.10640  0.43874  1.0000
  H   H49       1.0  0.81070  0.84470  0.56150  1.0000
  H   H50       1.0  0.18930  0.15530  0.43850  1.0000
  C   C109      1.0  0.11110  0.01880  0.60503  1.0000
  C   C110      1.0  0.88890  0.98120  0.39497  1.0000
  H   H51       1.0  0.08270  0.02260  0.62780  1.0000
  H   H52       1.0  0.91730  0.97740  0.37220  1.0000
  C   C111      1.0  0.96020  0.43580  0.08778  1.0000
  C   C112      1.0  0.03980  0.56420  0.91222  1.0000
  H   H53       1.0  0.00780  0.40580  0.09720  1.0000
  H   H54       1.0  0.99220  0.59420  0.90280  1.0000
  H   H55       1.0  0.94120  0.48170  0.09900  1.0000
  H   H56       1.0  0.05880  0.51830  0.90100  1.0000
  C   C113      1.0  0.60890  0.97090  0.18638  1.0000
  C   C114      1.0  0.39110  0.02910  0.81362  1.0000
  C   C115      1.0  0.57450  0.77440  0.30590  1.0000
  C   C116      1.0  0.42550  0.22560  0.69410  1.0000
  H   H57       1.0  0.53300  0.79950  0.29220  1.0000
  H   H58       1.0  0.46700  0.20050  0.70780  1.0000
  C   C117      1.0  0.23010  0.97030  0.57060  1.0000
  C   C118      1.0  0.76990  0.02970  0.42940  1.0000
  C   C119      1.0  0.23710  0.30930  0.93141  1.0000
  C   C120      1.0  0.76290  0.69070  0.06859  1.0000
  H   H59       1.0  0.25940  0.33740  0.93050  1.0000
  H   H60       1.0  0.74060  0.66260  0.06950  1.0000
  C   C121      1.0  0.27820  0.23740  0.92831  1.0000
  C   C122      1.0  0.72180  0.76260  0.07169  1.0000
  C   C123      1.0  0.34790  0.01310  0.31484  1.0000
  C   C124      1.0  0.65210  0.98690  0.68516  1.0000
  C   C125      1.0  0.45740  0.05840  0.15801  1.0000
  C   C126      1.0  0.54260  0.94160  0.84199  1.0000
  H   H61       1.0  0.48380  0.02470  0.13940  1.0000
  H   H62       1.0  0.51620  0.97530  0.86060  1.0000
  C   C127      1.0  0.92870  0.10440  0.45253  1.0000
  C   C128      1.0  0.07130  0.89560  0.54747  1.0000
  H   H63       1.0  0.91110  0.07020  0.45450  1.0000
  H   H64       1.0  0.08890  0.92980  0.54550  1.0000
  H   H65       1.0  0.97430  0.08370  0.46490  1.0000
  H   H66       1.0  0.02570  0.91630  0.53510  1.0000
  C   C129      1.0  0.89810  0.24350  0.42310  1.0000
  C   C130      1.0  0.10190  0.75650  0.57690  1.0000
  H   H67       1.0  0.94320  0.24280  0.41450  1.0000
  H   H68       1.0  0.05680  0.75720  0.58550  1.0000
  H   H69       1.0  0.85970  0.29130  0.41980  1.0000
  H   H70       1.0  0.14030  0.70870  0.58020  1.0000
  C   C131      1.0  0.70460  0.98480  0.30807  1.0000
  C   C132      1.0  0.29540  0.01520  0.69193  1.0000
  C   C133      1.0  0.80520  0.47130  0.33585  1.0000
  C   C134      1.0  0.19480  0.52870  0.66415  1.0000
  H   H71       1.0  0.85500  0.44410  0.33650  1.0000
  H   H72       1.0  0.14500  0.55590  0.66350  1.0000
  C   C135      1.0  0.35610  0.94330  0.55036  1.0000
  C   C136      1.0  0.64390  0.05670  0.44964  1.0000
  H   H73       1.0  0.33860  0.98470  0.53510  1.0000
  H   H74       1.0  0.66140  0.01530  0.46490  1.0000
  C   C137      1.0  0.70530  0.88160  0.93860  1.0000
  C   C138      1.0  0.29470  0.11840  0.06140  1.0000
  C   C139      1.0  0.56210  0.89350  0.59262  1.0000
  C   C140      1.0  0.43790  0.10650  0.40738  1.0000
  H   H75       1.0  0.51990  0.91310  0.60860  1.0000
  H   H76       1.0  0.48010  0.08690  0.39140  1.0000
  C   C141      1.0  0.65410  0.07340  0.20955  1.0000
  C   C142      1.0  0.34590  0.92660  0.79045  1.0000
  H   H77       1.0  0.66880  0.03430  0.22650  1.0000
  H   H78       1.0  0.33120  0.96570  0.77350  1.0000
  C   C143      1.0  0.68640  0.11550  0.20991  1.0000
  C   C144      1.0  0.31360  0.88450  0.79009  1.0000
  H   H79       1.0  0.72340  0.10320  0.22660  1.0000
  H   H80       1.0  0.27660  0.89680  0.77340  1.0000
  C   C145      1.0  0.69670  0.69830  0.34567  1.0000
  C   C146      1.0  0.30330  0.30170  0.65433  1.0000
  H   H81       1.0  0.73820  0.67260  0.35940  1.0000
  H   H82       1.0  0.26180  0.32740  0.64060  1.0000
  C   C147      1.0  0.74360  0.35260  0.57880  1.0000
  C   C148      1.0  0.25640  0.64740  0.42120  1.0000
  C   C149      1.0  0.12900  0.30250  0.93611  1.0000
  C   C150      1.0  0.87100  0.69750  0.06389  1.0000
  C   C151      1.0  0.84810  0.51870  0.20260  1.0000
  C   C152      1.0  0.15190  0.48130  0.79740  1.0000
  C   C153      1.0  0.21860  0.24330  0.19692  1.0000
  C   C154      1.0  0.78140  0.75670  0.80308  1.0000
  H   H83       1.0  0.24030  0.26840  0.20500  1.0000
  H   H84       1.0  0.75970  0.73160  0.79500  1.0000
  C   C155      1.0  0.81690  0.63430  0.16890  1.0000
  C   C156      1.0  0.18310  0.36570  0.83110  1.0000
  H   H85       1.0  0.84650  0.60970  0.14770  1.0000
  H   H86       1.0  0.15350  0.39030  0.85230  1.0000
  C   C157      1.0  0.12220  0.04740  0.53760  1.0000
  C   C158      1.0  0.87780  0.95260  0.46240  1.0000
  H   H87       1.0  0.10100  0.06810  0.51430  1.0000
  H   H88       1.0  0.89900  0.93190  0.48570  1.0000
  C   C159      1.0  0.74510  0.80460  0.94000  1.0000
  C   C160      1.0  0.25490  0.19540  0.06000  1.0000
  C   C161      1.0  0.14740  0.10030  0.34280  1.0000
  C   C162      1.0  0.85260  0.89970  0.65720  1.0000
  H   H89       1.0  0.11700  0.10080  0.36410  1.0000
  H   H90       1.0  0.88300  0.89920  0.63590  1.0000
  C   C163      1.0  0.83510  0.08700  0.29730  1.0000
  C   C164      1.0  0.16490  0.91300  0.70270  1.0000
  C   C165      1.0  0.57850  0.93120  0.20464  1.0000
  C   C166      1.0  0.42150  0.06880  0.79536  1.0000
  H   H91       1.0  0.53110  0.95310  0.21490  1.0000
  H   H92       1.0  0.46890  0.04690  0.78510  1.0000
  C   C167      1.0  0.96540  0.44300  0.04172  1.0000
  C   C168      1.0  0.03460  0.55700  0.95828  1.0000
  H   H93       1.0  0.95340  0.49120  0.03390  1.0000
  H   H94       1.0  0.04660  0.50880  0.96610  1.0000
  H   H95       1.0  0.01430  0.41240  0.03200  1.0000
  H   H96       1.0  0.98570  0.58760  0.96800  1.0000
  C   C169      1.0  0.57810  0.15040  0.15899  1.0000
  C   C170      1.0  0.42190  0.84960  0.84101  1.0000
  H   H97       1.0  0.54190  0.16240  0.14180  1.0000
  H   H98       1.0  0.45810  0.83760  0.85820  1.0000
  C   C171      1.0  0.46860  0.99210  0.29728  1.0000
  C   C172      1.0  0.53140  0.00790  0.70272  1.0000
  H   H99       1.0  0.49980  0.00640  0.28400  1.0000
  H   H100      1.0  0.50020  0.99360  0.71600  1.0000
  C   C173      1.0  0.42980  0.90130  0.55193  1.0000
  C   C174      1.0  0.57020  0.09870  0.44807  1.0000
  H   H101      1.0  0.46040  0.91430  0.53690  1.0000
  H   H102      1.0  0.53960  0.08570  0.46310  1.0000
  C   C175      1.0  0.62490  0.03020  0.93150  1.0000
  C   C176      1.0  0.37510  0.96980  0.06850  1.0000
  C   C177      1.0  0.86340  0.01720  0.28970  1.0000
  C   C178      1.0  0.13660  0.98280  0.71030  1.0000
  H   H103      1.0  0.91210  0.99160  0.28230  1.0000
  H   H104      1.0  0.08790  0.00840  0.71770  1.0000
  C   C179      1.0  0.90020  0.22180  0.46555  1.0000
  C   C180      1.0  0.09980  0.77820  0.53445  1.0000
  H   H105      1.0  0.94890  0.20330  0.47380  1.0000
  H   H106      1.0  0.05110  0.79670  0.52620  1.0000
  H   H107      1.0  0.86900  0.26270  0.48090  1.0000
  H   H108      1.0  0.13100  0.73730  0.51910  1.0000
  C   C181      1.0  0.66640  0.77110  0.34279  1.0000
  C   C182      1.0  0.33360  0.22890  0.65721  1.0000
  H   H109      1.0  0.68800  0.79330  0.35440  1.0000
  H   H110      1.0  0.31200  0.20670  0.64560  1.0000
  C   C183      1.0  0.80460  0.19420  0.45570  1.0000
  C   C184      1.0  0.19540  0.80580  0.54430  1.0000
  H   H111      1.0  0.76970  0.23830  0.46730  1.0000
  H   H112      1.0  0.23030  0.76170  0.53270  1.0000
  H   H113      1.0  0.78730  0.16010  0.46120  1.0000
  H   H114      1.0  0.21270  0.83990  0.53880  1.0000
  C   C185      1.0  0.77440  0.54300  0.33422  1.0000
  C   C186      1.0  0.22560  0.45700  0.66578  1.0000
  H   H115      1.0  0.80360  0.56410  0.33460  1.0000
  H   H116      1.0  0.19640  0.43590  0.66540  1.0000
  C   C187      1.0  0.84630  0.03460  0.55529  1.0000
  C   C188      1.0  0.15370  0.96540  0.44471  1.0000
  C   C189      1.0  0.16510  0.13730  0.27832  1.0000
  C   C190      1.0  0.83490  0.86270  0.72168  1.0000
  H   H117      1.0  0.14600  0.16410  0.25580  1.0000
  H   H118      1.0  0.85400  0.83590  0.74420  1.0000
  C   C191      1.0  0.41370  0.82160  0.59448  1.0000
  C   C192      1.0  0.58630  0.17840  0.40552  1.0000
  H   H119      1.0  0.43270  0.77940  0.60910  1.0000
  H   H120      1.0  0.56730  0.22060  0.39090  1.0000
  C   C193      1.0  0.84260  0.46850  0.04300  1.0000
  C   C194      1.0  0.15740  0.53150  0.95700  1.0000
  H   H121      1.0  0.80880  0.45730  0.03180  1.0000
  H   H122      1.0  0.19120  0.54270  0.96820  1.0000
  H   H123      1.0  0.82780  0.51790  0.03740  1.0000
  H   H124      1.0  0.17220  0.48210  0.96260  1.0000
  C   C195      1.0  0.14370  0.27650  0.19500  1.0000
  C   C196      1.0  0.85630  0.72350  0.80500  1.0000
  H   H125      1.0  0.11590  0.32350  0.20140  1.0000
  H   H126      1.0  0.88410  0.67650  0.79860  1.0000
  C   C197      1.0  0.63550  0.57700  0.57950  1.0000
  C   C198      1.0  0.36450  0.42300  0.42050  1.0000
  C   C199      1.0  0.72720  0.22520  0.22120  1.0000
  C   C200      1.0  0.27280  0.77480  0.77880  1.0000
  H   H127      1.0  0.71780  0.20520  0.24420  1.0000
  H   H128      1.0  0.28220  0.79480  0.75580  1.0000
  C   C201      1.0  0.16050  0.34060  0.93593  1.0000
  C   C202      1.0  0.83950  0.65940  0.06407  1.0000
  H   H129      1.0  0.13320  0.38900  0.93880  1.0000
  H   H130      1.0  0.86680  0.61100  0.06120  1.0000
  C   C203      1.0  0.83000  0.92720  0.55851  1.0000
  C   C204      1.0  0.17000  0.07280  0.44149  1.0000
  H   H131      1.0  0.87990  0.89990  0.55690  1.0000
  H   H132      1.0  0.12010  0.10010  0.44310  1.0000
  C   C205      1.0  0.03740  0.18100  0.30850  1.0000
  C   C206      1.0  0.96260  0.81900  0.69150  1.0000
  C   C207      1.0  0.39610  0.03320  0.29506  1.0000
  C   C208      1.0  0.60390  0.96680  0.70494  1.0000
  H   H133      1.0  0.37840  0.07500  0.28020  1.0000
  H   H134      1.0  0.62160  0.92500  0.71980  1.0000
  C   C209      1.0  0.54650  0.69030  0.55460  1.0000
  C   C210      1.0  0.45350  0.30970  0.44540  1.0000
  H   H135      1.0  0.50840  0.71630  0.53860  1.0000
  H   H136      1.0  0.49160  0.28370  0.46140  1.0000
  C   C211      1.0  0.50850  0.13720  0.92750  1.0000
  C   C212      1.0  0.49150  0.86280  0.07250  1.0000
  C   C213      1.0  0.22750  0.13450  0.17857  1.0000
  C   C214      1.0  0.77250  0.86550  0.82143  1.0000
  H   H137      1.0  0.25430  0.08630  0.17490  1.0000
  H   H138      1.0  0.74570  0.91370  0.82510  1.0000
  C   C215      1.0  0.68750  0.83520  0.54853  1.0000
  C   C216      1.0  0.31250  0.16480  0.45147  1.0000
  H   H139      1.0  0.73020  0.81540  0.53310  1.0000
  H   H140      1.0  0.26980  0.18460  0.46690  1.0000
  C   C217      1.0  0.24330  0.19890  0.92818  1.0000
  C   C218      1.0  0.75670  0.80110  0.07182  1.0000
  H   H141      1.0  0.27020  0.15050  0.92510  1.0000
  H   H142      1.0  0.72980  0.84950  0.07490  1.0000
  C   C219      1.0  0.94010  0.12200  0.40883  1.0000
  C   C220      1.0  0.05990  0.87800  0.59117  1.0000
  H   H143      1.0  0.98840  0.11620  0.40400  1.0000
  H   H144      1.0  0.01160  0.88380  0.59600  1.0000
  H   H145      1.0  0.93530  0.08960  0.39260  1.0000
  H   H146      1.0  0.06470  0.91040  0.60740  1.0000
  C   C221      1.0  0.61160  0.19250  0.16040  1.0000
  C   C222      1.0  0.38840  0.80750  0.83960  1.0000
  H   H147      1.0  0.59740  0.23210  0.14380  1.0000
  H   H148      1.0  0.40260  0.76790  0.85620  1.0000
  C   C223      1.0  0.37680  0.16120  0.20990  1.0000
  C   C224      1.0  0.62320  0.83880  0.79010  1.0000
  H   H149      1.0  0.34980  0.19660  0.22750  1.0000
  H   H150      1.0  0.65020  0.80340  0.77250  1.0000
  C   C225      1.0  0.64520  0.00730  0.33434  1.0000
  C   C226      1.0  0.35480  0.99270  0.66566  1.0000
  H   H151      1.0  0.63340  0.04610  0.34930  1.0000
  H   H152      1.0  0.36660  0.95390  0.65070  1.0000
  C   C227      1.0  0.40080  0.14630  0.90510  1.0000
  C   C228      1.0  0.59920  0.85370  0.09490  1.0000
  H   H153      1.0  0.37940  0.12910  0.88940  1.0000
  H   H154      1.0  0.62060  0.87090  0.11060  1.0000
  C   C229      1.0  0.81370  0.20530  0.41030  1.0000
  C   C230      1.0  0.18630  0.79470  0.58970  1.0000
  H   H155      1.0  0.80530  0.17200  0.39700  1.0000
  H   H156      1.0  0.19470  0.82800  0.60300  1.0000
  H   H157      1.0  0.77780  0.25240  0.40260  1.0000
  H   H158      1.0  0.22220  0.74760  0.59740  1.0000
  C   C231      1.0  0.35640  0.20340  0.92760  1.0000
  C   C232      1.0  0.64360  0.79660  0.07240  1.0000
  C   C233      1.0  0.23830  0.09740  0.27903  1.0000
  C   C234      1.0  0.76170  0.90260  0.72097  1.0000
  H   H159      1.0  0.26770  0.09720  0.25730  1.0000
  H   H160      1.0  0.73230  0.90280  0.74270  1.0000
  C   C235      1.0  0.67040  0.50120  0.57930  1.0000
  C   C236      1.0  0.32960  0.49880  0.42070  1.0000
  C   C237      1.0  0.76710  0.26220  0.22240  1.0000
  C   C238      1.0  0.23290  0.73780  0.77760  1.0000
  H   H161      1.0  0.78360  0.26570  0.24600  1.0000
  H   H162      1.0  0.21640  0.73430  0.75400  1.0000
  C   C239      1.0  0.99640  0.09590  0.56910  1.0000
  C   C240      1.0  0.00360  0.90410  0.43090  1.0000
  C   C241      1.0  0.75570  0.28860  0.15460  1.0000
  C   C242      1.0  0.24430  0.71140  0.84540  1.0000
  H   H163      1.0  0.76450  0.31030  0.13210  1.0000
  H   H164      1.0  0.23550  0.68970  0.86790  1.0000
  C   C243      1.0  0.69420  0.99500  0.91581  1.0000
  C   C244      1.0  0.30580  0.00500  0.08419  1.0000
  H   H165      1.0  0.71490  0.02070  0.90300  1.0000
  H   H166      1.0  0.28510  0.97930  0.09700  1.0000
  C   C245      1.0  0.71620  0.25180  0.15355  1.0000
  C   C246      1.0  0.28380  0.74820  0.84645  1.0000
  H   H167      1.0  0.69880  0.24970  0.12990  1.0000
  H   H168      1.0  0.30120  0.75030  0.87010  1.0000
  C   C247      1.0  0.94000  0.33630  0.08085  1.0000
  C   C248      1.0  0.06000  0.66370  0.91915  1.0000
  H   H169      1.0  0.90980  0.31510  0.08970  1.0000
  H   H170      1.0  0.09020  0.68490  0.91030  1.0000
  H   H171      1.0  0.98890  0.30440  0.08780  1.0000
  H   H172      1.0  0.01110  0.69560  0.91220  1.0000
  C   C249      1.0  0.87870  0.12140  0.29750  1.0000
  C   C250      1.0  0.12130  0.87860  0.70250  1.0000
  C   C251      1.0  0.72090  0.39180  0.54610  1.0000
  C   C252      1.0  0.27910  0.60820  0.45390  1.0000
  H   H173      1.0  0.73060  0.36920  0.52260  1.0000
  H   H174      1.0  0.26940  0.63080  0.47740  1.0000
  C   C253      1.0  0.77960  0.70850  0.16664  1.0000
  C   C254      1.0  0.22040  0.29150  0.83336  1.0000
  H   H175      1.0  0.78600  0.73250  0.14440  1.0000
  H   H176      1.0  0.21400  0.26750  0.85560  1.0000
  C   C255      1.0  0.61730  0.14950  0.92640  1.0000
  C   C256      1.0  0.38270  0.85050  0.07360  1.0000
  C   C257      1.0  0.83030  0.32590  0.19170  1.0000
  C   C258      1.0  0.16970  0.67410  0.80830  1.0000
  C   C259      1.0  0.62120  0.68630  0.60310  1.0000
  C   C260      1.0  0.37880  0.31370  0.39690  1.0000
  H   H177      1.0  0.63490  0.70890  0.62010  1.0000
  H   H178      1.0  0.36510  0.29110  0.37990  1.0000
  C   C261      1.0  0.44990  0.13110  0.20872  1.0000
  C   C262      1.0  0.55010  0.86890  0.79128  1.0000
  H   H179      1.0  0.47180  0.14630  0.22540  1.0000
  H   H180      1.0  0.52820  0.85370  0.77460  1.0000
  C   C263      1.0  0.93770  0.34920  0.03680  1.0000
  C   C264      1.0  0.06230  0.65080  0.96320  1.0000
  H   H181      1.0  0.98490  0.31880  0.02470  1.0000
  H   H182      1.0  0.01510  0.68120  0.97530  1.0000
  H   H183      1.0  0.90360  0.33680  0.02710  1.0000
  H   H184      1.0  0.09640  0.66320  0.97290  1.0000
  C   C265      1.0  0.65380  0.61400  0.60360  1.0000
  C   C266      1.0  0.34620  0.38600  0.39640  1.0000
  H   H185      1.0  0.68980  0.58880  0.62100  1.0000
  H   H186      1.0  0.31020  0.41120  0.37900  1.0000
  C   C267      1.0  0.64530  0.80240  0.55167  1.0000
  C   C268      1.0  0.35470  0.19760  0.44833  1.0000
  H   H187      1.0  0.66110  0.75990  0.53950  1.0000
  H   H188      1.0  0.33890  0.24010  0.46050  1.0000
  C   C269      1.0  0.57990  0.61840  0.55490  1.0000
  C   C270      1.0  0.42010  0.38160  0.44510  1.0000
  H   H189      1.0  0.56510  0.59630  0.53820  1.0000
  H   H190      1.0  0.43490  0.40370  0.46180  1.0000
  C   C271      1.0  0.11130  0.23870  0.18360  1.0000
  C   C272      1.0  0.88870  0.76130  0.81640  1.0000
  C   C273      1.0  0.60210  0.97400  0.33940  1.0000
  C   C274      1.0  0.39790  0.02600  0.66060  1.0000
  H   H191      1.0  0.56370  0.98920  0.35800  1.0000
  H   H192      1.0  0.43630  0.01080  0.64200  1.0000
  C   C275      1.0  0.67010  0.13560  0.95170  1.0000
  C   C276      1.0  0.32990  0.86440  0.04830  1.0000
  H   H193      1.0  0.68390  0.09710  0.96910  1.0000
  H   H194      1.0  0.31610  0.90290  0.03090  1.0000
  C   C277      1.0  0.04800  0.33570  0.94210  1.0000
  C   C278      1.0  0.95200  0.66430  0.05790  1.0000
  C   C279      1.0  0.39170  0.22670  0.95000  1.0000
  C   C280      1.0  0.60830  0.77330  0.05000  1.0000
  H   H195      1.0  0.36430  0.26580  0.96520  1.0000
  H   H196      1.0  0.63570  0.73420  0.03480  1.0000
  C   C281      1.0  0.84120  0.45510  0.08720  1.0000
  C   C282      1.0  0.15880  0.54490  0.91280  1.0000
  H   H197      1.0  0.82370  0.49920  0.10030  1.0000
  H   H198      1.0  0.17630  0.50080  0.89970  1.0000
  H   H199      1.0  0.80840  0.43620  0.09460  1.0000
  H   H200      1.0  0.19160  0.56380  0.90540  1.0000
  C   C283      1.0  0.16910  0.22920  0.93250  1.0000
  C   C284      1.0  0.83090  0.77080  0.06750  1.0000
  H   H201      1.0  0.14620  0.20170  0.93300  1.0000
  H   H202      1.0  0.85380  0.79830  0.06700  1.0000
  C   C285      1.0  0.69100  0.47670  0.33520  1.0000
  C   C286      1.0  0.30900  0.52330  0.66480  1.0000
  H   H203      1.0  0.66270  0.45430  0.33600  1.0000
  H   H204      1.0  0.33730  0.54570  0.66400  1.0000
  C   C287      1.0  0.63460  0.91630  0.95560  1.0000
  C   C288      1.0  0.36540  0.08370  0.04440  1.0000
  H   H205      1.0  0.61430  0.89070  0.96900  1.0000
  H   H206      1.0  0.38570  0.10930  0.03100  1.0000
  C   C289      1.0  0.68250  0.46690  0.54570  1.0000
  C   C290      1.0  0.31750  0.53310  0.45430  1.0000
  H   H207      1.0  0.66580  0.49210  0.52240  1.0000
  H   H208      1.0  0.33420  0.50790  0.47760  1.0000
  C   C291      1.0  0.47320  0.11410  0.90450  1.0000
  C   C292      1.0  0.52680  0.88590  0.09550  1.0000
  H   H209      1.0  0.50000  0.07600  0.88850  1.0000
  H   H210      1.0  0.50000  0.92400  0.11150  1.0000
  C   C293      1.0  0.68240  0.23250  0.92820  1.0000
  C   C294      1.0  0.31760  0.76750  0.07180  1.0000
  C   C295      1.0  0.82330  0.65660  0.94020  1.0000
  C   C296      1.0  0.17670  0.34340  0.05980  1.0000
  C   C297      1.0  0.62870  0.24700  0.90150  1.0000
  C   C298      1.0  0.37130  0.75300  0.09850  1.0000
  H   H211      1.0  0.61560  0.28490  0.88370  1.0000
  H   H212      1.0  0.38440  0.71510  0.11630  1.0000
  C   C299      1.0  0.15120  0.16890  0.17560  1.0000
  C   C300      1.0  0.84880  0.83110  0.82440  1.0000
  H   H213      1.0  0.12870  0.14390  0.16830  1.0000
  H   H214      1.0  0.87130  0.85610  0.83170  1.0000
  C   C301      1.0  0.79610  0.76780  0.90610  1.0000
  C   C302      1.0  0.20390  0.23220  0.09390  1.0000
  H   H215      1.0  0.80270  0.79430  0.88530  1.0000
  H   H216      1.0  0.19730  0.20570  0.11470  1.0000
  C   C303      1.0  0.77540  0.33090  0.95770  1.0000
  C   C304      1.0  0.22460  0.66910  0.04230  1.0000
  H   H217      1.0  0.79010  0.33780  0.98110  1.0000
  H   H218      1.0  0.20990  0.66220  0.01890  1.0000
  C   C305      1.0  0.59420  0.99150  0.95200  1.0000
  C   C306      1.0  0.40580  0.00850  0.04800  1.0000
  H   H219      1.0  0.54760  0.01490  0.96330  1.0000
  H   H220      1.0  0.45240  0.98510  0.03670  1.0000
  C   C307      1.0  0.46700  0.19400  0.95080  1.0000
  C   C308      1.0  0.53300  0.80600  0.04920  1.0000
  H   H221      1.0  0.48870  0.21040  0.96690  1.0000
  H   H222      1.0  0.51130  0.78960  0.03310  1.0000
  C   C309      1.0  0.03030  0.27880  0.17490  1.0000
  C   C310      1.0  0.96970  0.72120  0.82510  1.0000
  C   C311      1.0  0.59640  0.20600  0.90190  1.0000
  C   C312      1.0  0.40360  0.79400  0.09810  1.0000
  H   H223      1.0  0.55970  0.21690  0.88530  1.0000
  H   H224      1.0  0.44030  0.78310  0.11470  1.0000
  C   C313      1.0  0.73450  0.92170  0.91850  1.0000
  C   C314      1.0  0.26550  0.07830  0.08150  1.0000
  H   H225      1.0  0.78100  0.89920  0.90690  1.0000
  H   H226      1.0  0.21900  0.10080  0.09310  1.0000
  C   C315      1.0  0.83410  0.39680  0.92610  1.0000
  C   C316      1.0  0.16590  0.60320  0.07390  1.0000
  C   C317      1.0  0.86310  0.57650  0.93910  1.0000
  C   C318      1.0  0.13690  0.42350  0.06090  1.0000
  C   C319      1.0  0.69390  0.46040  0.61250  1.0000
  C   C320      1.0  0.30610  0.53960  0.38750  1.0000
  H   H227      1.0  0.68550  0.48230  0.63610  1.0000
  H   H228      1.0  0.31450  0.51770  0.36390  1.0000
  C   C321      1.0  0.70290  0.17670  0.95200  1.0000
  C   C322      1.0  0.29710  0.82330  0.04800  1.0000
  H   H229      1.0  0.73940  0.16550  0.96890  1.0000
  H   H230      1.0  0.26060  0.83450  0.03110  1.0000
  C   C323      1.0  0.83470  0.69290  0.90540  1.0000
  C   C324      1.0  0.16530  0.30710  0.09460  1.0000
  H   H231      1.0  0.86490  0.66900  0.88420  1.0000
  H   H232      1.0  0.13510  0.33100  0.11580  1.0000
  C   C325      1.0  0.78350  0.27150  0.57690  1.0000
  C   C326      1.0  0.21650  0.72850  0.42310  1.0000
  C   C327      1.0  0.71710  0.27950  0.92700  1.0000
  C   C328      1.0  0.28290  0.72050  0.07300  1.0000
  C   C329      1.0  0.73010  0.38690  0.61220  1.0000
  C   C330      1.0  0.26990  0.61310  0.38780  1.0000
  H   H233      1.0  0.74520  0.36130  0.63560  1.0000
  H   H234      1.0  0.25480  0.63870  0.36440  1.0000
  C   C331      1.0  0.78540  0.68550  0.96850  1.0000
  C   C332      1.0  0.21460  0.31450  0.03150  1.0000
  H   H235      1.0  0.78210  0.65890  0.99030  1.0000
  H   H236      1.0  0.21790  0.34110  0.00970  1.0000
  C   C333      1.0  0.74300  0.76560  0.96880  1.0000
  C   C334      1.0  0.25700  0.23440  0.03120  1.0000
  H   H237      1.0  0.71440  0.78690  0.99100  1.0000
  H   H238      1.0  0.28560  0.21310  0.00900  1.0000
  C   C335      1.0  0.74190  0.28970  0.95950  1.0000
  C   C336      1.0  0.25810  0.71030  0.04050  1.0000
  H   H239      1.0  0.73640  0.26890  0.98320  1.0000
  H   H240      1.0  0.26360  0.73110  0.01680  1.0000
  K   K3        1.0  0.96893  0.16763  0.22110  1.0000
  K   K4        1.0  0.03107  0.83237  0.77890  1.0000
