data_image0
_chemical_formula_structural       Zn4O24K8C8O24C16Zn8C24O8C8N8O8C8H8C8H8O8C24N8C16H16C24H8C8H8C40H8C8H8C8H16C8H32C24H16C8H32C8H8C32H8C8H8C16H8C8H8C8N4C8H8C8H8C8H16C12H16N8C16H8C24H8C4H8C16H8C12H16C16H8C28H8C8H16C12H8C8H8C8
_chemical_formula_sum              "Zn12 O72 K8 C508 N28 H344"
_cell_length_a       21.6847
_cell_length_b       36.8675
_cell_length_c       27.338
_cell_angle_alpha    90
_cell_angle_beta     98.212
_cell_angle_gamma    90

_space_group_name_H-M_alt    "P 1"
_space_group_IT_number       1

loop_
  _space_group_symop_operation_xyz
  'x, y, z'

loop_
  _atom_site_type_symbol
  _atom_site_label
  _atom_site_symmetry_multiplicity
  _atom_site_fract_x
  _atom_site_fract_y
  _atom_site_fract_z
  _atom_site_occupancy
  Zn  Zn1       1.0  0.50000  0.21579  0.25000  1.0000
  Zn  Zn2       1.0  0.00000  0.71579  0.25000  1.0000
  Zn  Zn3       1.0  0.50000  0.78421  0.75000  1.0000
  Zn  Zn4       1.0  0.00000  0.28421  0.75000  1.0000
  O   O1        1.0  0.43050  0.24210  0.27250  1.0000
  O   O2        1.0  0.56950  0.24210  0.22750  1.0000
  O   O3        1.0  0.93050  0.74210  0.27250  1.0000
  O   O4        1.0  0.06950  0.74210  0.22750  1.0000
  O   O5        1.0  0.56950  0.75790  0.72750  1.0000
  O   O6        1.0  0.43050  0.75790  0.77250  1.0000
  O   O7        1.0  0.06950  0.25790  0.72750  1.0000
  O   O8        1.0  0.93050  0.25790  0.77250  1.0000
  O   O9        1.0  0.42300  0.25089  0.19510  1.0000
  O   O10       1.0  0.57700  0.25089  0.30490  1.0000
  O   O11       1.0  0.92300  0.75089  0.19510  1.0000
  O   O12       1.0  0.07700  0.75089  0.30490  1.0000
  O   O13       1.0  0.57700  0.74911  0.80490  1.0000
  O   O14       1.0  0.42300  0.74911  0.69510  1.0000
  O   O15       1.0  0.07700  0.24911  0.80490  1.0000
  O   O16       1.0  0.92300  0.24911  0.69510  1.0000
  O   O17       1.0  0.46160  0.16730  0.21870  1.0000
  O   O18       1.0  0.53840  0.16730  0.28130  1.0000
  O   O19       1.0  0.96160  0.66730  0.21870  1.0000
  O   O20       1.0  0.03840  0.66730  0.28130  1.0000
  O   O21       1.0  0.53840  0.83270  0.78130  1.0000
  O   O22       1.0  0.46160  0.83270  0.71870  1.0000
  O   O23       1.0  0.03840  0.33270  0.78130  1.0000
  O   O24       1.0  0.96160  0.33270  0.71870  1.0000
  K   K1        1.0  0.48836  0.27286  0.35828  1.0000
  K   K2        1.0  0.51164  0.27286  0.14172  1.0000
  K   K3        1.0  0.98836  0.77286  0.35828  1.0000
  K   K4        1.0  0.01164  0.77286  0.14172  1.0000
  K   K5        1.0  0.51164  0.72714  0.64172  1.0000
  K   K6        1.0  0.48836  0.72714  0.85828  1.0000
  K   K7        1.0  0.01164  0.22714  0.64172  1.0000
  K   K8        1.0  0.98836  0.22714  0.85828  1.0000
  C   C1        1.0  0.40260  0.25520  0.23300  1.0000
  C   C2        1.0  0.59740  0.25520  0.26700  1.0000
  C   C3        1.0  0.90260  0.75520  0.23300  1.0000
  C   C4        1.0  0.09740  0.75520  0.26700  1.0000
  C   C5        1.0  0.59740  0.74480  0.76700  1.0000
  C   C6        1.0  0.40260  0.74480  0.73300  1.0000
  C   C7        1.0  0.09740  0.24480  0.76700  1.0000
  C   C8        1.0  0.90260  0.24480  0.73300  1.0000
  O   O25       1.0  0.39600  0.30090  0.40070  1.0000
  O   O26       1.0  0.60400  0.30090  0.09930  1.0000
  O   O27       1.0  0.89600  0.80090  0.40070  1.0000
  O   O28       1.0  0.10400  0.80090  0.09930  1.0000
  O   O29       1.0  0.60400  0.69910  0.59930  1.0000
  O   O30       1.0  0.39600  0.69910  0.90070  1.0000
  O   O31       1.0  0.10400  0.19910  0.59930  1.0000
  O   O32       1.0  0.89600  0.19910  0.90070  1.0000
  O   O33       1.0  0.52680  0.27714  0.45940  1.0000
  O   O34       1.0  0.47320  0.27714  0.04060  1.0000
  O   O35       1.0  0.02680  0.77714  0.45940  1.0000
  O   O36       1.0  0.97320  0.77714  0.04060  1.0000
  O   O37       1.0  0.47320  0.72286  0.54060  1.0000
  O   O38       1.0  0.52680  0.72286  0.95940  1.0000
  O   O39       1.0  0.97320  0.22286  0.54060  1.0000
  O   O40       1.0  0.02680  0.22286  0.95940  1.0000
  O   O41       1.0  0.47030  0.20488  0.39350  1.0000
  O   O42       1.0  0.52970  0.20488  0.10650  1.0000
  O   O43       1.0  0.97030  0.70488  0.39350  1.0000
  O   O44       1.0  0.02970  0.70488  0.10650  1.0000
  O   O45       1.0  0.52970  0.79512  0.60650  1.0000
  O   O46       1.0  0.47030  0.79512  0.89350  1.0000
  O   O47       1.0  0.02970  0.29512  0.60650  1.0000
  O   O48       1.0  0.97030  0.29512  0.89350  1.0000
  C   C9        1.0  0.34220  0.27380  0.23530  1.0000
  C   C10       1.0  0.65780  0.27380  0.26470  1.0000
  C   C11       1.0  0.84220  0.77380  0.23530  1.0000
  C   C12       1.0  0.15780  0.77380  0.26470  1.0000
  C   C13       1.0  0.65780  0.72620  0.76470  1.0000
  C   C14       1.0  0.34220  0.72620  0.73530  1.0000
  C   C15       1.0  0.15780  0.22620  0.76470  1.0000
  C   C16       1.0  0.84220  0.22620  0.73530  1.0000
  C   C17       1.0  0.36130  0.29390  0.43210  1.0000
  C   C18       1.0  0.63870  0.29390  0.06790  1.0000
  C   C19       1.0  0.86130  0.79390  0.43210  1.0000
  C   C20       1.0  0.13870  0.79390  0.06790  1.0000
  C   C21       1.0  0.63870  0.70610  0.56790  1.0000
  C   C22       1.0  0.36130  0.70610  0.93210  1.0000
  C   C23       1.0  0.13870  0.20610  0.56790  1.0000
  C   C24       1.0  0.86130  0.20610  0.93210  1.0000
  Zn  Zn5       1.0  0.45526  0.25155  0.48042  1.0000
  Zn  Zn6       1.0  0.54474  0.25155  0.01958  1.0000
  Zn  Zn7       1.0  0.95526  0.75155  0.48042  1.0000
  Zn  Zn8       1.0  0.04474  0.75155  0.01958  1.0000
  Zn  Zn9       1.0  0.54474  0.74845  0.51958  1.0000
  Zn  Zn10      1.0  0.45526  0.74845  0.98042  1.0000
  Zn  Zn11      1.0  0.04474  0.24845  0.51958  1.0000
  Zn  Zn12      1.0  0.95526  0.24845  0.98042  1.0000
  C   C25       1.0  0.31010  0.28950  0.19460  1.0000
  C   C26       1.0  0.68990  0.28950  0.30540  1.0000
  C   C27       1.0  0.81010  0.78950  0.19460  1.0000
  C   C28       1.0  0.18990  0.78950  0.30540  1.0000
  C   C29       1.0  0.68990  0.71050  0.80540  1.0000
  C   C30       1.0  0.31010  0.71050  0.69460  1.0000
  C   C31       1.0  0.18990  0.21050  0.80540  1.0000
  C   C32       1.0  0.81010  0.21050  0.69460  1.0000
  C   C33       1.0  0.32030  0.27640  0.28080  1.0000
  C   C34       1.0  0.67970  0.27640  0.21920  1.0000
  C   C35       1.0  0.82030  0.77640  0.28080  1.0000
  C   C36       1.0  0.17970  0.77640  0.21920  1.0000
  C   C37       1.0  0.67970  0.72360  0.71920  1.0000
  C   C38       1.0  0.32030  0.72360  0.78080  1.0000
  C   C39       1.0  0.17970  0.22360  0.71920  1.0000
  C   C40       1.0  0.82030  0.22360  0.78080  1.0000
  C   C41       1.0  0.41990  0.26560  0.02760  1.0000
  C   C42       1.0  0.58010  0.26560  0.47240  1.0000
  C   C43       1.0  0.91990  0.76560  0.02760  1.0000
  C   C44       1.0  0.08010  0.76560  0.47240  1.0000
  C   C45       1.0  0.58010  0.73440  0.97240  1.0000
  C   C46       1.0  0.41990  0.73440  0.52760  1.0000
  C   C47       1.0  0.08010  0.23440  0.97240  1.0000
  C   C48       1.0  0.91990  0.23440  0.52760  1.0000
  O   O49       1.0  0.37520  0.27464  0.46730  1.0000
  O   O50       1.0  0.62480  0.27464  0.03270  1.0000
  O   O51       1.0  0.87520  0.77464  0.46730  1.0000
  O   O52       1.0  0.12480  0.77464  0.03270  1.0000
  O   O53       1.0  0.62480  0.72536  0.53270  1.0000
  O   O54       1.0  0.37520  0.72536  0.96730  1.0000
  O   O55       1.0  0.12480  0.22536  0.53270  1.0000
  O   O56       1.0  0.87520  0.22536  0.96730  1.0000
  C   C49       1.0  0.30000  0.31340  0.42300  1.0000
  C   C50       1.0  0.70000  0.31340  0.07700  1.0000
  C   C51       1.0  0.80000  0.81340  0.42300  1.0000
  C   C52       1.0  0.20000  0.81340  0.07700  1.0000
  C   C53       1.0  0.70000  0.68660  0.57700  1.0000
  C   C54       1.0  0.30000  0.68660  0.92300  1.0000
  C   C55       1.0  0.20000  0.18660  0.57700  1.0000
  C   C56       1.0  0.80000  0.18660  0.92300  1.0000
  N   N1        1.0  0.47410  0.25160  0.55640  1.0000
  N   N2        1.0  0.52590  0.25160  0.94360  1.0000
  N   N3        1.0  0.97410  0.75160  0.55640  1.0000
  N   N4        1.0  0.02590  0.75160  0.94360  1.0000
  N   N5        1.0  0.52590  0.74840  0.44360  1.0000
  N   N6        1.0  0.47410  0.74840  0.05640  1.0000
  N   N7        1.0  0.02590  0.24840  0.44360  1.0000
  N   N8        1.0  0.97410  0.24840  0.05640  1.0000
  O   O57       1.0  0.44690  0.19987  0.46910  1.0000
  O   O58       1.0  0.55310  0.19987  0.03090  1.0000
  O   O59       1.0  0.94690  0.69987  0.46910  1.0000
  O   O60       1.0  0.05310  0.69987  0.03090  1.0000
  O   O61       1.0  0.55310  0.80013  0.53090  1.0000
  O   O62       1.0  0.44690  0.80013  0.96910  1.0000
  O   O63       1.0  0.05310  0.30013  0.53090  1.0000
  O   O64       1.0  0.94690  0.30013  0.96910  1.0000
  C   C57       1.0  0.25240  0.30510  0.19710  1.0000
  C   C58       1.0  0.74760  0.30510  0.30290  1.0000
  C   C59       1.0  0.75240  0.80510  0.19710  1.0000
  C   C60       1.0  0.24760  0.80510  0.30290  1.0000
  C   C61       1.0  0.74760  0.69490  0.80290  1.0000
  C   C62       1.0  0.25240  0.69490  0.69710  1.0000
  C   C63       1.0  0.24760  0.19490  0.80290  1.0000
  C   C64       1.0  0.75240  0.19490  0.69710  1.0000
  H   H1        1.0  0.32680  0.28990  0.16510  1.0000
  H   H2        1.0  0.67320  0.28990  0.33490  1.0000
  H   H3        1.0  0.82680  0.78990  0.16510  1.0000
  H   H4        1.0  0.17320  0.78990  0.33490  1.0000
  H   H5        1.0  0.67320  0.71010  0.83490  1.0000
  H   H6        1.0  0.32680  0.71010  0.66510  1.0000
  H   H7        1.0  0.17320  0.21010  0.83490  1.0000
  H   H8        1.0  0.82680  0.21010  0.66510  1.0000
  C   C65       1.0  0.26230  0.29290  0.28280  1.0000
  C   C66       1.0  0.73770  0.29290  0.21720  1.0000
  C   C67       1.0  0.76230  0.79290  0.28280  1.0000
  C   C68       1.0  0.23770  0.79290  0.21720  1.0000
  C   C69       1.0  0.73770  0.70710  0.71720  1.0000
  C   C70       1.0  0.26230  0.70710  0.78280  1.0000
  C   C71       1.0  0.23770  0.20710  0.71720  1.0000
  C   C72       1.0  0.76230  0.20710  0.78280  1.0000
  H   H9        1.0  0.34370  0.26740  0.30940  1.0000
  H   H10       1.0  0.65630  0.26740  0.19060  1.0000
  H   H11       1.0  0.84370  0.76740  0.30940  1.0000
  H   H12       1.0  0.15630  0.76740  0.19060  1.0000
  H   H13       1.0  0.65630  0.73260  0.69060  1.0000
  H   H14       1.0  0.34370  0.73260  0.80940  1.0000
  H   H15       1.0  0.15630  0.23260  0.69060  1.0000
  H   H16       1.0  0.84370  0.23260  0.80940  1.0000
  O   O65       1.0  0.40550  0.23800  0.00380  1.0000
  O   O66       1.0  0.59450  0.23800  0.49620  1.0000
  O   O67       1.0  0.90550  0.73800  0.00380  1.0000
  O   O68       1.0  0.09450  0.73800  0.49620  1.0000
  O   O69       1.0  0.59450  0.76200  0.99620  1.0000
  O   O70       1.0  0.40550  0.76200  0.50380  1.0000
  O   O71       1.0  0.09450  0.26200  0.99620  1.0000
  O   O72       1.0  0.90550  0.26200  0.50380  1.0000
  C   C73       1.0  0.36660  0.28890  0.04240  1.0000
  C   C74       1.0  0.63340  0.28890  0.45760  1.0000
  C   C75       1.0  0.86660  0.78890  0.04240  1.0000
  C   C76       1.0  0.13340  0.78890  0.45760  1.0000
  C   C77       1.0  0.63340  0.71110  0.95760  1.0000
  C   C78       1.0  0.36660  0.71110  0.54240  1.0000
  C   C79       1.0  0.13340  0.21110  0.95760  1.0000
  C   C80       1.0  0.86660  0.21110  0.54240  1.0000
  C   C81       1.0  0.28850  0.34170  0.39560  1.0000
  C   C82       1.0  0.71150  0.34170  0.10440  1.0000
  C   C83       1.0  0.78850  0.84170  0.39560  1.0000
  C   C84       1.0  0.21150  0.84170  0.10440  1.0000
  C   C85       1.0  0.71150  0.65830  0.60440  1.0000
  C   C86       1.0  0.28850  0.65830  0.89560  1.0000
  C   C87       1.0  0.21150  0.15830  0.60440  1.0000
  C   C88       1.0  0.78850  0.15830  0.89560  1.0000
  C   C89       1.0  0.25330  0.30140  0.45040  1.0000
  C   C90       1.0  0.74670  0.30140  0.04960  1.0000
  C   C91       1.0  0.75330  0.80140  0.45040  1.0000
  C   C92       1.0  0.24670  0.80140  0.04960  1.0000
  C   C93       1.0  0.74670  0.69860  0.54960  1.0000
  C   C94       1.0  0.25330  0.69860  0.95040  1.0000
  C   C95       1.0  0.24670  0.19860  0.54960  1.0000
  C   C96       1.0  0.75330  0.19860  0.95040  1.0000
  N   N9        1.0  0.53050  0.23740  0.57600  1.0000
  N   N10       1.0  0.46950  0.23740  0.92400  1.0000
  N   N11       1.0  0.03050  0.73740  0.57600  1.0000
  N   N12       1.0  0.96950  0.73740  0.92400  1.0000
  N   N13       1.0  0.46950  0.76260  0.42400  1.0000
  N   N14       1.0  0.53050  0.76260  0.07600  1.0000
  N   N15       1.0  0.96950  0.26260  0.42400  1.0000
  N   N16       1.0  0.03050  0.26260  0.07600  1.0000
  C   C97       1.0  0.44160  0.25980  0.59410  1.0000
  C   C98       1.0  0.55840  0.25980  0.90590  1.0000
  C   C99       1.0  0.94160  0.75980  0.59410  1.0000
  C   C100      1.0  0.05840  0.75980  0.90590  1.0000
  C   C101      1.0  0.55840  0.74020  0.40590  1.0000
  C   C102      1.0  0.44160  0.74020  0.09410  1.0000
  C   C103      1.0  0.05840  0.24020  0.40590  1.0000
  C   C104      1.0  0.94160  0.24020  0.09410  1.0000
  C   C105      1.0  0.22980  0.30870  0.24140  1.0000
  C   C106      1.0  0.77020  0.30870  0.25860  1.0000
  C   C107      1.0  0.72980  0.80870  0.24140  1.0000
  C   C108      1.0  0.27020  0.80870  0.25860  1.0000
  C   C109      1.0  0.77020  0.69130  0.75860  1.0000
  C   C110      1.0  0.22980  0.69130  0.74140  1.0000
  C   C111      1.0  0.27020  0.19130  0.75860  1.0000
  C   C112      1.0  0.72980  0.19130  0.74140  1.0000
  H   H17       1.0  0.22850  0.31320  0.16820  1.0000
  H   H18       1.0  0.77150  0.31320  0.33180  1.0000
  H   H19       1.0  0.72850  0.81320  0.16820  1.0000
  H   H20       1.0  0.27150  0.81320  0.33180  1.0000
  H   H21       1.0  0.77150  0.68680  0.83180  1.0000
  H   H22       1.0  0.22850  0.68680  0.66820  1.0000
  H   H23       1.0  0.27150  0.18680  0.83180  1.0000
  H   H24       1.0  0.72850  0.18680  0.66820  1.0000
  H   H25       1.0  0.24570  0.29310  0.31230  1.0000
  H   H26       1.0  0.75430  0.29310  0.18770  1.0000
  H   H27       1.0  0.74570  0.79310  0.31230  1.0000
  H   H28       1.0  0.25430  0.79310  0.18770  1.0000
  H   H29       1.0  0.75430  0.70690  0.68770  1.0000
  H   H30       1.0  0.24570  0.70690  0.81230  1.0000
  H   H31       1.0  0.25430  0.20690  0.68770  1.0000
  H   H32       1.0  0.74570  0.20690  0.81230  1.0000
  C   C113      1.0  0.30750  0.27330  0.04120  1.0000
  C   C114      1.0  0.69250  0.27330  0.45880  1.0000
  C   C115      1.0  0.80750  0.77330  0.04120  1.0000
  C   C116      1.0  0.19250  0.77330  0.45880  1.0000
  C   C117      1.0  0.69250  0.72670  0.95880  1.0000
  C   C118      1.0  0.30750  0.72670  0.54120  1.0000
  C   C119      1.0  0.19250  0.22670  0.95880  1.0000
  C   C120      1.0  0.80750  0.22670  0.54120  1.0000
  C   C121      1.0  0.37580  0.32280  0.05900  1.0000
  C   C122      1.0  0.62420  0.32280  0.44100  1.0000
  C   C123      1.0  0.87580  0.82280  0.05900  1.0000
  C   C124      1.0  0.12420  0.82280  0.44100  1.0000
  C   C125      1.0  0.62420  0.67720  0.94100  1.0000
  C   C126      1.0  0.37580  0.67720  0.55900  1.0000
  C   C127      1.0  0.12420  0.17720  0.94100  1.0000
  C   C128      1.0  0.87580  0.17720  0.55900  1.0000
  C   C129      1.0  0.22930  0.35980  0.39130  1.0000
  C   C130      1.0  0.77070  0.35980  0.10870  1.0000
  C   C131      1.0  0.72930  0.85980  0.39130  1.0000
  C   C132      1.0  0.27070  0.85980  0.10870  1.0000
  C   C133      1.0  0.77070  0.64020  0.60870  1.0000
  C   C134      1.0  0.22930  0.64020  0.89130  1.0000
  C   C135      1.0  0.27070  0.14020  0.60870  1.0000
  C   C136      1.0  0.72930  0.14020  0.89130  1.0000
  H   H33       1.0  0.31920  0.35070  0.37830  1.0000
  H   H34       1.0  0.68080  0.35070  0.12170  1.0000
  H   H35       1.0  0.81920  0.85070  0.37830  1.0000
  H   H36       1.0  0.18080  0.85070  0.12170  1.0000
  H   H37       1.0  0.68080  0.64930  0.62170  1.0000
  H   H38       1.0  0.31920  0.64930  0.87830  1.0000
  H   H39       1.0  0.18080  0.14930  0.62170  1.0000
  H   H40       1.0  0.81920  0.14930  0.87830  1.0000
  C   C137      1.0  0.19670  0.31800  0.44360  1.0000
  C   C138      1.0  0.80330  0.31800  0.05640  1.0000
  C   C139      1.0  0.69670  0.81800  0.44360  1.0000
  C   C140      1.0  0.30330  0.81800  0.05640  1.0000
  C   C141      1.0  0.80330  0.68200  0.55640  1.0000
  C   C142      1.0  0.19670  0.68200  0.94360  1.0000
  C   C143      1.0  0.30330  0.18200  0.55640  1.0000
  C   C144      1.0  0.69670  0.18200  0.94360  1.0000
  H   H41       1.0  0.26110  0.28240  0.47270  1.0000
  H   H42       1.0  0.73890  0.28240  0.02730  1.0000
  H   H43       1.0  0.76110  0.78240  0.47270  1.0000
  H   H44       1.0  0.23890  0.78240  0.02730  1.0000
  H   H45       1.0  0.73890  0.71760  0.52730  1.0000
  H   H46       1.0  0.26110  0.71760  0.97270  1.0000
  H   H47       1.0  0.23890  0.21760  0.52730  1.0000
  H   H48       1.0  0.76110  0.21760  0.97270  1.0000
  C   C145      1.0  0.53330  0.23870  0.62610  1.0000
  C   C146      1.0  0.46670  0.23870  0.87390  1.0000
  C   C147      1.0  0.03330  0.73870  0.62610  1.0000
  C   C148      1.0  0.96670  0.73870  0.87390  1.0000
  C   C149      1.0  0.46670  0.76130  0.37390  1.0000
  C   C150      1.0  0.53330  0.76130  0.12610  1.0000
  C   C151      1.0  0.96670  0.26130  0.37390  1.0000
  C   C152      1.0  0.03330  0.26130  0.12610  1.0000
  C   C153      1.0  0.37700  0.27480  0.58730  1.0000
  C   C154      1.0  0.62300  0.27480  0.91270  1.0000
  C   C155      1.0  0.87700  0.77480  0.58730  1.0000
  C   C156      1.0  0.12300  0.77480  0.91270  1.0000
  C   C157      1.0  0.62300  0.72520  0.41270  1.0000
  C   C158      1.0  0.37700  0.72520  0.08730  1.0000
  C   C159      1.0  0.12300  0.22520  0.41270  1.0000
  C   C160      1.0  0.87700  0.22520  0.08730  1.0000
  C   C161      1.0  0.48240  0.25290  0.63750  1.0000
  C   C162      1.0  0.51760  0.25290  0.86250  1.0000
  C   C163      1.0  0.98240  0.75290  0.63750  1.0000
  C   C164      1.0  0.01760  0.75290  0.86250  1.0000
  C   C165      1.0  0.51760  0.74710  0.36250  1.0000
  C   C166      1.0  0.48240  0.74710  0.13750  1.0000
  C   C167      1.0  0.01760  0.24710  0.36250  1.0000
  C   C168      1.0  0.98240  0.24710  0.13750  1.0000
  C   C169      1.0  0.16790  0.32680  0.24400  1.0000
  C   C170      1.0  0.83210  0.32680  0.25600  1.0000
  C   C171      1.0  0.66790  0.82680  0.24400  1.0000
  C   C172      1.0  0.33210  0.82680  0.25600  1.0000
  C   C173      1.0  0.83210  0.67320  0.75600  1.0000
  C   C174      1.0  0.16790  0.67320  0.74400  1.0000
  C   C175      1.0  0.33210  0.17320  0.75600  1.0000
  C   C176      1.0  0.66790  0.17320  0.74400  1.0000
  C   C177      1.0  0.25860  0.29520  0.04760  1.0000
  C   C178      1.0  0.74140  0.29520  0.45240  1.0000
  C   C179      1.0  0.75860  0.79520  0.04760  1.0000
  C   C180      1.0  0.24140  0.79520  0.45240  1.0000
  C   C181      1.0  0.74140  0.70480  0.95240  1.0000
  C   C182      1.0  0.25860  0.70480  0.54760  1.0000
  C   C183      1.0  0.24140  0.20480  0.95240  1.0000
  C   C184      1.0  0.75860  0.20480  0.54760  1.0000
  H   H49       1.0  0.30170  0.24850  0.03600  1.0000
  H   H50       1.0  0.69830  0.24850  0.46400  1.0000
  H   H51       1.0  0.80170  0.74850  0.03600  1.0000
  H   H52       1.0  0.19830  0.74850  0.46400  1.0000
  H   H53       1.0  0.69830  0.75150  0.96400  1.0000
  H   H54       1.0  0.30170  0.75150  0.53600  1.0000
  H   H55       1.0  0.19830  0.25150  0.96400  1.0000
  H   H56       1.0  0.80170  0.25150  0.53600  1.0000
  C   C185      1.0  0.32560  0.34420  0.06480  1.0000
  C   C186      1.0  0.67440  0.34420  0.43520  1.0000
  C   C187      1.0  0.82560  0.84420  0.06480  1.0000
  C   C188      1.0  0.17440  0.84420  0.43520  1.0000
  C   C189      1.0  0.67440  0.65580  0.93520  1.0000
  C   C190      1.0  0.32560  0.65580  0.56480  1.0000
  C   C191      1.0  0.17440  0.15580  0.93520  1.0000
  C   C192      1.0  0.82560  0.15580  0.56480  1.0000
  H   H57       1.0  0.41600  0.33190  0.06650  1.0000
  H   H58       1.0  0.58400  0.33190  0.43350  1.0000
  H   H59       1.0  0.91600  0.83190  0.06650  1.0000
  H   H60       1.0  0.08400  0.83190  0.43350  1.0000
  H   H61       1.0  0.58400  0.66810  0.93350  1.0000
  H   H62       1.0  0.41600  0.66810  0.56650  1.0000
  H   H63       1.0  0.08400  0.16810  0.93350  1.0000
  H   H64       1.0  0.91600  0.16810  0.56650  1.0000
  C   C193      1.0  0.18210  0.34820  0.41450  1.0000
  C   C194      1.0  0.81790  0.34820  0.08550  1.0000
  C   C195      1.0  0.68210  0.84820  0.41450  1.0000
  C   C196      1.0  0.31790  0.84820  0.08550  1.0000
  C   C197      1.0  0.81790  0.65180  0.58550  1.0000
  C   C198      1.0  0.18210  0.65180  0.91450  1.0000
  C   C199      1.0  0.31790  0.15180  0.58550  1.0000
  C   C200      1.0  0.68210  0.15180  0.91450  1.0000
  H   H65       1.0  0.22330  0.38040  0.37160  1.0000
  H   H66       1.0  0.77670  0.38040  0.12840  1.0000
  H   H67       1.0  0.72330  0.88040  0.37160  1.0000
  H   H68       1.0  0.27670  0.88040  0.12840  1.0000
  H   H69       1.0  0.77670  0.61960  0.62840  1.0000
  H   H70       1.0  0.22330  0.61960  0.87160  1.0000
  H   H71       1.0  0.27670  0.11960  0.62840  1.0000
  H   H72       1.0  0.72330  0.11960  0.87160  1.0000
  H   H73       1.0  0.16570  0.30840  0.45990  1.0000
  H   H74       1.0  0.83430  0.30840  0.04010  1.0000
  H   H75       1.0  0.66570  0.80840  0.45990  1.0000
  H   H76       1.0  0.33430  0.80840  0.04010  1.0000
  H   H77       1.0  0.83430  0.69160  0.54010  1.0000
  H   H78       1.0  0.16570  0.69160  0.95990  1.0000
  H   H79       1.0  0.33430  0.19160  0.54010  1.0000
  H   H80       1.0  0.66570  0.19160  0.95990  1.0000
  C   C201      1.0  0.59200  0.22540  0.65830  1.0000
  C   C202      1.0  0.40800  0.22540  0.84170  1.0000
  C   C203      1.0  0.09200  0.72540  0.65830  1.0000
  C   C204      1.0  0.90800  0.72540  0.84170  1.0000
  C   C205      1.0  0.40800  0.77460  0.34170  1.0000
  C   C206      1.0  0.59200  0.77460  0.15830  1.0000
  C   C207      1.0  0.90800  0.27460  0.34170  1.0000
  C   C208      1.0  0.09200  0.27460  0.15830  1.0000
  H   H81       1.0  0.36380  0.27840  0.61900  1.0000
  H   H82       1.0  0.63620  0.27840  0.88100  1.0000
  H   H83       1.0  0.86380  0.77840  0.61900  1.0000
  H   H84       1.0  0.13620  0.77840  0.88100  1.0000
  H   H85       1.0  0.63620  0.72160  0.38100  1.0000
  H   H86       1.0  0.36380  0.72160  0.11900  1.0000
  H   H87       1.0  0.13620  0.22160  0.38100  1.0000
  H   H88       1.0  0.86380  0.22160  0.11900  1.0000
  H   H89       1.0  0.37630  0.29760  0.57010  1.0000
  H   H90       1.0  0.62370  0.29760  0.92990  1.0000
  H   H91       1.0  0.87630  0.79760  0.57010  1.0000
  H   H92       1.0  0.12370  0.79760  0.92990  1.0000
  H   H93       1.0  0.62370  0.70240  0.42990  1.0000
  H   H94       1.0  0.37630  0.70240  0.07010  1.0000
  H   H95       1.0  0.12370  0.20240  0.42990  1.0000
  H   H96       1.0  0.87630  0.20240  0.07010  1.0000
  H   H97       1.0  0.34930  0.25810  0.56830  1.0000
  H   H98       1.0  0.65070  0.25810  0.93170  1.0000
  H   H99       1.0  0.84930  0.75810  0.56830  1.0000
  H   H100      1.0  0.15070  0.75810  0.93170  1.0000
  H   H101      1.0  0.65070  0.74190  0.43170  1.0000
  H   H102      1.0  0.34930  0.74190  0.06830  1.0000
  H   H103      1.0  0.15070  0.24190  0.43170  1.0000
  H   H104      1.0  0.84930  0.24190  0.06830  1.0000
  H   H105      1.0  0.47440  0.25770  0.66940  1.0000
  H   H106      1.0  0.52560  0.25770  0.83060  1.0000
  H   H107      1.0  0.97440  0.75770  0.66940  1.0000
  H   H108      1.0  0.02560  0.75770  0.83060  1.0000
  H   H109      1.0  0.52560  0.74230  0.33060  1.0000
  H   H110      1.0  0.47440  0.74230  0.16940  1.0000
  H   H111      1.0  0.02560  0.24230  0.33060  1.0000
  H   H112      1.0  0.97440  0.24230  0.16940  1.0000
  C   C209      1.0  0.15140  0.35760  0.21500  1.0000
  C   C210      1.0  0.84860  0.35760  0.28500  1.0000
  C   C211      1.0  0.65140  0.85760  0.21500  1.0000
  C   C212      1.0  0.34860  0.85760  0.28500  1.0000
  C   C213      1.0  0.84860  0.64240  0.78500  1.0000
  C   C214      1.0  0.15140  0.64240  0.71500  1.0000
  C   C215      1.0  0.34860  0.14240  0.78500  1.0000
  C   C216      1.0  0.65140  0.14240  0.71500  1.0000
  C   C217      1.0  0.12660  0.31300  0.27310  1.0000
  C   C218      1.0  0.87340  0.31300  0.22690  1.0000
  C   C219      1.0  0.62660  0.81300  0.27310  1.0000
  C   C220      1.0  0.37340  0.81300  0.22690  1.0000
  C   C221      1.0  0.87340  0.68700  0.72690  1.0000
  C   C222      1.0  0.12660  0.68700  0.77310  1.0000
  C   C223      1.0  0.37340  0.18700  0.72690  1.0000
  C   C224      1.0  0.62660  0.18700  0.77310  1.0000
  C   C225      1.0  0.26570  0.33290  0.05830  1.0000
  C   C226      1.0  0.73430  0.33290  0.44170  1.0000
  C   C227      1.0  0.76570  0.83290  0.05830  1.0000
  C   C228      1.0  0.23430  0.83290  0.44170  1.0000
  C   C229      1.0  0.73430  0.66710  0.94170  1.0000
  C   C230      1.0  0.26570  0.66710  0.55830  1.0000
  C   C231      1.0  0.23430  0.16710  0.94170  1.0000
  C   C232      1.0  0.76570  0.16710  0.55830  1.0000
  H   H113      1.0  0.21900  0.28500  0.04500  1.0000
  H   H114      1.0  0.78100  0.28500  0.45500  1.0000
  H   H115      1.0  0.71900  0.78500  0.04500  1.0000
  H   H116      1.0  0.28100  0.78500  0.45500  1.0000
  H   H117      1.0  0.78100  0.71500  0.95500  1.0000
  H   H118      1.0  0.21900  0.71500  0.54500  1.0000
  H   H119      1.0  0.28100  0.21500  0.95500  1.0000
  H   H120      1.0  0.71900  0.21500  0.54500  1.0000
  H   H121      1.0  0.33330  0.36830  0.07380  1.0000
  H   H122      1.0  0.66670  0.36830  0.42620  1.0000
  H   H123      1.0  0.83330  0.86830  0.07380  1.0000
  H   H124      1.0  0.16670  0.86830  0.42620  1.0000
  H   H125      1.0  0.66670  0.63170  0.92620  1.0000
  H   H126      1.0  0.33330  0.63170  0.57380  1.0000
  H   H127      1.0  0.16670  0.13170  0.92620  1.0000
  H   H128      1.0  0.83330  0.13170  0.57380  1.0000
  C   C233      1.0  0.12090  0.36560  0.40940  1.0000
  C   C234      1.0  0.87910  0.36560  0.09060  1.0000
  C   C235      1.0  0.62090  0.86560  0.40940  1.0000
  C   C236      1.0  0.37910  0.86560  0.09060  1.0000
  C   C237      1.0  0.87910  0.63440  0.59060  1.0000
  C   C238      1.0  0.12090  0.63440  0.90940  1.0000
  C   C239      1.0  0.37910  0.13440  0.59060  1.0000
  C   C240      1.0  0.62090  0.13440  0.90940  1.0000
  H   H129      1.0  0.62090  0.21630  0.63770  1.0000
  H   H130      1.0  0.37910  0.21630  0.86230  1.0000
  H   H131      1.0  0.12090  0.71630  0.63770  1.0000
  H   H132      1.0  0.87910  0.71630  0.86230  1.0000
  H   H133      1.0  0.37910  0.78370  0.36230  1.0000
  H   H134      1.0  0.62090  0.78370  0.13770  1.0000
  H   H135      1.0  0.87910  0.28370  0.36230  1.0000
  H   H136      1.0  0.12090  0.28370  0.13770  1.0000
  H   H137      1.0  0.61070  0.24510  0.67810  1.0000
  H   H138      1.0  0.38930  0.24510  0.82190  1.0000
  H   H139      1.0  0.11070  0.74510  0.67810  1.0000
  H   H140      1.0  0.88930  0.74510  0.82190  1.0000
  H   H141      1.0  0.38930  0.75490  0.32190  1.0000
  H   H142      1.0  0.61070  0.75490  0.17810  1.0000
  H   H143      1.0  0.88930  0.25490  0.32190  1.0000
  H   H144      1.0  0.11070  0.25490  0.17810  1.0000
  H   H145      1.0  0.58140  0.20630  0.67950  1.0000
  H   H146      1.0  0.41860  0.20630  0.82050  1.0000
  H   H147      1.0  0.08140  0.70630  0.67950  1.0000
  H   H148      1.0  0.91860  0.70630  0.82050  1.0000
  H   H149      1.0  0.41860  0.79370  0.32050  1.0000
  H   H150      1.0  0.58140  0.79370  0.17950  1.0000
  H   H151      1.0  0.91860  0.29370  0.32050  1.0000
  H   H152      1.0  0.08140  0.29370  0.17950  1.0000
  H   H153      1.0  0.17790  0.36680  0.19410  1.0000
  H   H154      1.0  0.82210  0.36680  0.30590  1.0000
  H   H155      1.0  0.67790  0.86680  0.19410  1.0000
  H   H156      1.0  0.32210  0.86680  0.30590  1.0000
  H   H157      1.0  0.82210  0.63320  0.80590  1.0000
  H   H158      1.0  0.17790  0.63320  0.69410  1.0000
  H   H159      1.0  0.32210  0.13320  0.80590  1.0000
  H   H160      1.0  0.67790  0.13320  0.69410  1.0000
  C   C241      1.0  0.09760  0.37320  0.21800  1.0000
  C   C242      1.0  0.90240  0.37320  0.28200  1.0000
  C   C243      1.0  0.59760  0.87320  0.21800  1.0000
  C   C244      1.0  0.40240  0.87320  0.28200  1.0000
  C   C245      1.0  0.90240  0.62680  0.78200  1.0000
  C   C246      1.0  0.09760  0.62680  0.71800  1.0000
  C   C247      1.0  0.40240  0.12680  0.78200  1.0000
  C   C248      1.0  0.59760  0.12680  0.71800  1.0000
  H   H161      1.0  0.13560  0.29170  0.29080  1.0000
  H   H162      1.0  0.86440  0.29170  0.20920  1.0000
  H   H163      1.0  0.63560  0.79170  0.29080  1.0000
  H   H164      1.0  0.36440  0.79170  0.20920  1.0000
  H   H165      1.0  0.86440  0.70830  0.70920  1.0000
  H   H166      1.0  0.13560  0.70830  0.79080  1.0000
  H   H167      1.0  0.36440  0.20830  0.70920  1.0000
  H   H168      1.0  0.63560  0.20830  0.79080  1.0000
  C   C249      1.0  0.07270  0.33100  0.27550  1.0000
  C   C250      1.0  0.92730  0.33100  0.22450  1.0000
  C   C251      1.0  0.57270  0.83100  0.27550  1.0000
  C   C252      1.0  0.42730  0.83100  0.22450  1.0000
  C   C253      1.0  0.92730  0.66900  0.72450  1.0000
  C   C254      1.0  0.07270  0.66900  0.77550  1.0000
  C   C255      1.0  0.42730  0.16900  0.72450  1.0000
  C   C256      1.0  0.57270  0.16900  0.77550  1.0000
  C   C257      1.0  0.21170  0.35560  0.06530  1.0000
  C   C258      1.0  0.78830  0.35560  0.43470  1.0000
  C   C259      1.0  0.71170  0.85560  0.06530  1.0000
  C   C260      1.0  0.28830  0.85560  0.43470  1.0000
  C   C261      1.0  0.78830  0.64440  0.93470  1.0000
  C   C262      1.0  0.21170  0.64440  0.56530  1.0000
  C   C263      1.0  0.28830  0.14440  0.93470  1.0000
  C   C264      1.0  0.71170  0.14440  0.56530  1.0000
  C   C265      1.0  0.11550  0.40190  0.41370  1.0000
  C   C266      1.0  0.88450  0.40190  0.08630  1.0000
  C   C267      1.0  0.61550  0.90190  0.41370  1.0000
  C   C268      1.0  0.38450  0.90190  0.08630  1.0000
  C   C269      1.0  0.88450  0.59810  0.58630  1.0000
  C   C270      1.0  0.11550  0.59810  0.91370  1.0000
  C   C271      1.0  0.38450  0.09810  0.58630  1.0000
  C   C272      1.0  0.61550  0.09810  0.91370  1.0000
  C   C273      1.0  0.06770  0.34650  0.40130  1.0000
  C   C274      1.0  0.93230  0.34650  0.09870  1.0000
  C   C275      1.0  0.56770  0.84650  0.40130  1.0000
  C   C276      1.0  0.43230  0.84650  0.09870  1.0000
  C   C277      1.0  0.93230  0.65350  0.59870  1.0000
  C   C278      1.0  0.06770  0.65350  0.90130  1.0000
  C   C279      1.0  0.43230  0.15350  0.59870  1.0000
  C   C280      1.0  0.56770  0.15350  0.90130  1.0000
  H   H169      1.0  0.08720  0.39350  0.19830  1.0000
  H   H170      1.0  0.91280  0.39350  0.30170  1.0000
  H   H171      1.0  0.58720  0.89350  0.19830  1.0000
  H   H172      1.0  0.41280  0.89350  0.30170  1.0000
  H   H173      1.0  0.91280  0.60650  0.80170  1.0000
  H   H174      1.0  0.08720  0.60650  0.69830  1.0000
  H   H175      1.0  0.41280  0.10650  0.80170  1.0000
  H   H176      1.0  0.58720  0.10650  0.69830  1.0000
  C   C281      1.0  0.05760  0.36250  0.24650  1.0000
  C   C282      1.0  0.94240  0.36250  0.25350  1.0000
  C   C283      1.0  0.55760  0.86250  0.24650  1.0000
  C   C284      1.0  0.44240  0.86250  0.25350  1.0000
  C   C285      1.0  0.94240  0.63750  0.75350  1.0000
  C   C286      1.0  0.05760  0.63750  0.74650  1.0000
  C   C287      1.0  0.44240  0.13750  0.75350  1.0000
  C   C288      1.0  0.55760  0.13750  0.74650  1.0000
  H   H177      1.0  0.04550  0.32270  0.29630  1.0000
  H   H178      1.0  0.95450  0.32270  0.20370  1.0000
  H   H179      1.0  0.54550  0.82270  0.29630  1.0000
  H   H180      1.0  0.45450  0.82270  0.20370  1.0000
  H   H181      1.0  0.95450  0.67730  0.70370  1.0000
  H   H182      1.0  0.04550  0.67730  0.79630  1.0000
  H   H183      1.0  0.45450  0.17730  0.70370  1.0000
  H   H184      1.0  0.54550  0.17730  0.79630  1.0000
  C   C289      1.0  0.21620  0.38510  0.09550  1.0000
  C   C290      1.0  0.78380  0.38510  0.40450  1.0000
  C   C291      1.0  0.71620  0.88510  0.09550  1.0000
  C   C292      1.0  0.28380  0.88510  0.40450  1.0000
  C   C293      1.0  0.78380  0.61490  0.90450  1.0000
  C   C294      1.0  0.21620  0.61490  0.59550  1.0000
  C   C295      1.0  0.28380  0.11490  0.90450  1.0000
  C   C296      1.0  0.71620  0.11490  0.59550  1.0000
  C   C297      1.0  0.15130  0.34640  0.04160  1.0000
  C   C298      1.0  0.84870  0.34640  0.45840  1.0000
  C   C299      1.0  0.65130  0.84640  0.04160  1.0000
  C   C300      1.0  0.34870  0.84640  0.45840  1.0000
  C   C301      1.0  0.84870  0.65360  0.95840  1.0000
  C   C302      1.0  0.15130  0.65360  0.54160  1.0000
  C   C303      1.0  0.34870  0.15360  0.95840  1.0000
  C   C304      1.0  0.65130  0.15360  0.54160  1.0000
  H   H185      1.0  0.15170  0.41570  0.41660  1.0000
  H   H186      1.0  0.84830  0.41570  0.08340  1.0000
  H   H187      1.0  0.65170  0.91570  0.41660  1.0000
  H   H188      1.0  0.34830  0.91570  0.08340  1.0000
  H   H189      1.0  0.84830  0.58430  0.58340  1.0000
  H   H190      1.0  0.15170  0.58430  0.91660  1.0000
  H   H191      1.0  0.34830  0.08430  0.58340  1.0000
  H   H192      1.0  0.65170  0.08430  0.91660  1.0000
  C   C305      1.0  0.05950  0.41990  0.41410  1.0000
  C   C306      1.0  0.94050  0.41990  0.08590  1.0000
  C   C307      1.0  0.55950  0.91990  0.41410  1.0000
  C   C308      1.0  0.44050  0.91990  0.08590  1.0000
  C   C309      1.0  0.94050  0.58010  0.58590  1.0000
  C   C310      1.0  0.05950  0.58010  0.91410  1.0000
  C   C311      1.0  0.44050  0.08010  0.58590  1.0000
  C   C312      1.0  0.55950  0.08010  0.91410  1.0000
  H   H193      1.0  0.07000  0.32150  0.39730  1.0000
  H   H194      1.0  0.93000  0.32150  0.10270  1.0000
  H   H195      1.0  0.57000  0.82150  0.39730  1.0000
  H   H196      1.0  0.43000  0.82150  0.10270  1.0000
  H   H197      1.0  0.93000  0.67850  0.60270  1.0000
  H   H198      1.0  0.07000  0.67850  0.89730  1.0000
  H   H199      1.0  0.43000  0.17850  0.60270  1.0000
  H   H200      1.0  0.57000  0.17850  0.89730  1.0000
  C   C313      1.0  0.01020  0.36230  0.39860  1.0000
  C   C314      1.0  0.98980  0.36230  0.10140  1.0000
  C   C315      1.0  0.51020  0.86230  0.39860  1.0000
  C   C316      1.0  0.48980  0.86230  0.10140  1.0000
  C   C317      1.0  0.98980  0.63770  0.60140  1.0000
  C   C318      1.0  0.01020  0.63770  0.89860  1.0000
  C   C319      1.0  0.48980  0.13770  0.60140  1.0000
  C   C320      1.0  0.51020  0.13770  0.89860  1.0000
  N   N17       1.0  0.00000  0.38050  0.25000  1.0000
  N   N18       1.0  0.50000  0.88050  0.25000  1.0000
  N   N19       1.0  0.00000  0.61950  0.75000  1.0000
  N   N20       1.0  0.50000  0.11950  0.75000  1.0000
  C   C321      1.0  0.16480  0.40500  0.10380  1.0000
  C   C322      1.0  0.83520  0.40500  0.39620  1.0000
  C   C323      1.0  0.66480  0.90500  0.10380  1.0000
  C   C324      1.0  0.33520  0.90500  0.39620  1.0000
  C   C325      1.0  0.83520  0.59500  0.89620  1.0000
  C   C326      1.0  0.16480  0.59500  0.60380  1.0000
  C   C327      1.0  0.33520  0.09500  0.89620  1.0000
  C   C328      1.0  0.66480  0.09500  0.60380  1.0000
  H   H201      1.0  0.25530  0.39210  0.11120  1.0000
  H   H202      1.0  0.74470  0.39210  0.38880  1.0000
  H   H203      1.0  0.75530  0.89210  0.11120  1.0000
  H   H204      1.0  0.24470  0.89210  0.38880  1.0000
  H   H205      1.0  0.74470  0.60790  0.88880  1.0000
  H   H206      1.0  0.25530  0.60790  0.61120  1.0000
  H   H207      1.0  0.24470  0.10790  0.88880  1.0000
  H   H208      1.0  0.75530  0.10790  0.61120  1.0000
  C   C329      1.0  0.10120  0.36750  0.04820  1.0000
  C   C330      1.0  0.89880  0.36750  0.45180  1.0000
  C   C331      1.0  0.60120  0.86750  0.04820  1.0000
  C   C332      1.0  0.39880  0.86750  0.45180  1.0000
  C   C333      1.0  0.89880  0.63250  0.95180  1.0000
  C   C334      1.0  0.10120  0.63250  0.54820  1.0000
  C   C335      1.0  0.39880  0.13250  0.95180  1.0000
  C   C336      1.0  0.60120  0.13250  0.54820  1.0000
  H   H209      1.0  0.14570  0.32590  0.02150  1.0000
  H   H210      1.0  0.85430  0.32590  0.47850  1.0000
  H   H211      1.0  0.64570  0.82590  0.02150  1.0000
  H   H212      1.0  0.35430  0.82590  0.47850  1.0000
  H   H213      1.0  0.85430  0.67410  0.97850  1.0000
  H   H214      1.0  0.14570  0.67410  0.52150  1.0000
  H   H215      1.0  0.35430  0.17410  0.97850  1.0000
  H   H216      1.0  0.64570  0.17410  0.52150  1.0000
  C   C337      1.0  0.00500  0.39910  0.40700  1.0000
  C   C338      1.0  0.99500  0.39910  0.09300  1.0000
  C   C339      1.0  0.50500  0.89910  0.40700  1.0000
  C   C340      1.0  0.49500  0.89910  0.09300  1.0000
  C   C341      1.0  0.99500  0.60090  0.59300  1.0000
  C   C342      1.0  0.00500  0.60090  0.90700  1.0000
  C   C343      1.0  0.49500  0.10090  0.59300  1.0000
  C   C344      1.0  0.50500  0.10090  0.90700  1.0000
  H   H217      1.0  0.05830  0.44490  0.41900  1.0000
  H   H218      1.0  0.94170  0.44490  0.08100  1.0000
  H   H219      1.0  0.55830  0.94490  0.41900  1.0000
  H   H220      1.0  0.44170  0.94490  0.08100  1.0000
  H   H221      1.0  0.94170  0.55510  0.58100  1.0000
  H   H222      1.0  0.05830  0.55510  0.91900  1.0000
  H   H223      1.0  0.44170  0.05510  0.58100  1.0000
  H   H224      1.0  0.55830  0.05510  0.91900  1.0000
  H   H225      1.0  0.97450  0.34830  0.39120  1.0000
  H   H226      1.0  0.02550  0.34830  0.10880  1.0000
  H   H227      1.0  0.47450  0.84830  0.39120  1.0000
  H   H228      1.0  0.52550  0.84830  0.10880  1.0000
  H   H229      1.0  0.02550  0.65170  0.60880  1.0000
  H   H230      1.0  0.97450  0.65170  0.89120  1.0000
  H   H231      1.0  0.52550  0.15170  0.60880  1.0000
  H   H232      1.0  0.47450  0.15170  0.89120  1.0000
  C   C345      1.0  0.00000  0.41840  0.25000  1.0000
  C   C346      1.0  0.50000  0.91840  0.25000  1.0000
  C   C347      1.0  0.00000  0.58160  0.75000  1.0000
  C   C348      1.0  0.50000  0.08160  0.75000  1.0000
  C   C349      1.0  0.10670  0.39590  0.08120  1.0000
  C   C350      1.0  0.89330  0.39590  0.41880  1.0000
  C   C351      1.0  0.60670  0.89590  0.08120  1.0000
  C   C352      1.0  0.39330  0.89590  0.41880  1.0000
  C   C353      1.0  0.89330  0.60410  0.91880  1.0000
  C   C354      1.0  0.10670  0.60410  0.58120  1.0000
  C   C355      1.0  0.39330  0.10410  0.91880  1.0000
  C   C356      1.0  0.60670  0.10410  0.58120  1.0000
  H   H233      1.0  0.16990  0.42490  0.12490  1.0000
  H   H234      1.0  0.83010  0.42490  0.37510  1.0000
  H   H235      1.0  0.66990  0.92490  0.12490  1.0000
  H   H236      1.0  0.33010  0.92490  0.37510  1.0000
  H   H237      1.0  0.83010  0.57510  0.87510  1.0000
  H   H238      1.0  0.16990  0.57510  0.62490  1.0000
  H   H239      1.0  0.33010  0.07510  0.87510  1.0000
  H   H240      1.0  0.66990  0.07510  0.62490  1.0000
  H   H241      1.0  0.06260  0.36250  0.03010  1.0000
  H   H242      1.0  0.93740  0.36250  0.46990  1.0000
  H   H243      1.0  0.56260  0.86250  0.03010  1.0000
  H   H244      1.0  0.43740  0.86250  0.46990  1.0000
  H   H245      1.0  0.93740  0.63750  0.96990  1.0000
  H   H246      1.0  0.06260  0.63750  0.53010  1.0000
  H   H247      1.0  0.43740  0.13750  0.96990  1.0000
  H   H248      1.0  0.56260  0.13750  0.53010  1.0000
  N   N21       1.0  0.94620  0.41552  0.40810  1.0000
  N   N22       1.0  0.05380  0.41552  0.09190  1.0000
  N   N23       1.0  0.44620  0.91552  0.40810  1.0000
  N   N24       1.0  0.55380  0.91552  0.09190  1.0000
  N   N25       1.0  0.05380  0.58448  0.59190  1.0000
  N   N26       1.0  0.94620  0.58448  0.90810  1.0000
  N   N27       1.0  0.55380  0.08448  0.59190  1.0000
  N   N28       1.0  0.44620  0.08448  0.90810  1.0000
  C   C357      1.0  0.04660  0.43720  0.27670  1.0000
  C   C358      1.0  0.95340  0.43720  0.22330  1.0000
  C   C359      1.0  0.54660  0.93720  0.27670  1.0000
  C   C360      1.0  0.45340  0.93720  0.22330  1.0000
  C   C361      1.0  0.95340  0.56280  0.72330  1.0000
  C   C362      1.0  0.04660  0.56280  0.77670  1.0000
  C   C363      1.0  0.45340  0.06280  0.72330  1.0000
  C   C364      1.0  0.54660  0.06280  0.77670  1.0000
  C   C365      1.0  0.94250  0.45460  0.41020  1.0000
  C   C366      1.0  0.05750  0.45460  0.08980  1.0000
  C   C367      1.0  0.44250  0.95460  0.41020  1.0000
  C   C368      1.0  0.55750  0.95460  0.08980  1.0000
  C   C369      1.0  0.05750  0.54540  0.58980  1.0000
  C   C370      1.0  0.94250  0.54540  0.91020  1.0000
  C   C371      1.0  0.55750  0.04540  0.58980  1.0000
  C   C372      1.0  0.44250  0.04540  0.91020  1.0000
  H   H249      1.0  0.07920  0.42480  0.29540  1.0000
  H   H250      1.0  0.92080  0.42480  0.20460  1.0000
  H   H251      1.0  0.57920  0.92480  0.29540  1.0000
  H   H252      1.0  0.42080  0.92480  0.20460  1.0000
  H   H253      1.0  0.92080  0.57520  0.70460  1.0000
  H   H254      1.0  0.07920  0.57520  0.79540  1.0000
  H   H255      1.0  0.42080  0.07520  0.70460  1.0000
  H   H256      1.0  0.57920  0.07520  0.79540  1.0000
  C   C373      1.0  0.04600  0.47510  0.27630  1.0000
  C   C374      1.0  0.95400  0.47510  0.22370  1.0000
  C   C375      1.0  0.54600  0.97510  0.27630  1.0000
  C   C376      1.0  0.45400  0.97510  0.22370  1.0000
  C   C377      1.0  0.95400  0.52490  0.72370  1.0000
  C   C378      1.0  0.04600  0.52490  0.77630  1.0000
  C   C379      1.0  0.45400  0.02490  0.72370  1.0000
  C   C380      1.0  0.54600  0.02490  0.77630  1.0000
  C   C381      1.0  0.94950  0.47410  0.37130  1.0000
  C   C382      1.0  0.05050  0.47410  0.12870  1.0000
  C   C383      1.0  0.44950  0.97410  0.37130  1.0000
  C   C384      1.0  0.55050  0.97410  0.12870  1.0000
  C   C385      1.0  0.05050  0.52590  0.62870  1.0000
  C   C386      1.0  0.94950  0.52590  0.87130  1.0000
  C   C387      1.0  0.55050  0.02590  0.62870  1.0000
  C   C388      1.0  0.44950  0.02590  0.87130  1.0000
  C   C389      1.0  0.93230  0.47280  0.45020  1.0000
  C   C390      1.0  0.06770  0.47280  0.04980  1.0000
  C   C391      1.0  0.43230  0.97280  0.45020  1.0000
  C   C392      1.0  0.56770  0.97280  0.04980  1.0000
  C   C393      1.0  0.06770  0.52720  0.54980  1.0000
  C   C394      1.0  0.93230  0.52720  0.95020  1.0000
  C   C395      1.0  0.56770  0.02720  0.54980  1.0000
  C   C396      1.0  0.43230  0.02720  0.95020  1.0000
  H   H257      1.0  0.07840  0.48760  0.29500  1.0000
  H   H258      1.0  0.92160  0.48760  0.20500  1.0000
  H   H259      1.0  0.57840  0.98760  0.29500  1.0000
  H   H260      1.0  0.42160  0.98760  0.20500  1.0000
  H   H261      1.0  0.92160  0.51240  0.70500  1.0000
  H   H262      1.0  0.07840  0.51240  0.79500  1.0000
  H   H263      1.0  0.42160  0.01240  0.70500  1.0000
  H   H264      1.0  0.57840  0.01240  0.79500  1.0000
  C   C397      1.0  0.00000  0.49390  0.25000  1.0000
  C   C398      1.0  0.50000  0.99390  0.25000  1.0000
  C   C399      1.0  0.00000  0.50610  0.75000  1.0000
  C   C400      1.0  0.50000  0.00610  0.75000  1.0000
  H   H265      1.0  0.95540  0.46200  0.34250  1.0000
  H   H266      1.0  0.04460  0.46200  0.15750  1.0000
  H   H267      1.0  0.45540  0.96200  0.34250  1.0000
  H   H268      1.0  0.54460  0.96200  0.15750  1.0000
  H   H269      1.0  0.04460  0.53800  0.65750  1.0000
  H   H270      1.0  0.95540  0.53800  0.84250  1.0000
  H   H271      1.0  0.54460  0.03800  0.65750  1.0000
  H   H272      1.0  0.45540  0.03800  0.84250  1.0000
  C   C401      1.0  0.94850  0.51280  0.37070  1.0000
  C   C402      1.0  0.05150  0.51280  0.12930  1.0000
  C   C403      1.0  0.44850  0.01280  0.37070  1.0000
  C   C404      1.0  0.55150  0.01280  0.12930  1.0000
  C   C405      1.0  0.05150  0.48720  0.62930  1.0000
  C   C406      1.0  0.94850  0.48720  0.87070  1.0000
  C   C407      1.0  0.55150  0.98720  0.62930  1.0000
  C   C408      1.0  0.44850  0.98720  0.87070  1.0000
  C   C409      1.0  0.93240  0.51050  0.45250  1.0000
  C   C410      1.0  0.06760  0.51050  0.04750  1.0000
  C   C411      1.0  0.43240  0.01050  0.45250  1.0000
  C   C412      1.0  0.56760  0.01050  0.04750  1.0000
  C   C413      1.0  0.06760  0.48950  0.54750  1.0000
  C   C414      1.0  0.93240  0.48950  0.95250  1.0000
  C   C415      1.0  0.56760  0.98950  0.54750  1.0000
  C   C416      1.0  0.43240  0.98950  0.95250  1.0000
  H   H273      1.0  0.92480  0.45980  0.47780  1.0000
  H   H274      1.0  0.07520  0.45980  0.02220  1.0000
  H   H275      1.0  0.42480  0.95980  0.47780  1.0000
  H   H276      1.0  0.57520  0.95980  0.02220  1.0000
  H   H277      1.0  0.07520  0.54020  0.52220  1.0000
  H   H278      1.0  0.92480  0.54020  0.97780  1.0000
  H   H279      1.0  0.57520  0.04020  0.52220  1.0000
  H   H280      1.0  0.42480  0.04020  0.97780  1.0000
  C   C417      1.0  0.00000  0.53200  0.25000  1.0000
  C   C418      1.0  0.50000  0.03200  0.25000  1.0000
  C   C419      1.0  0.00000  0.46800  0.75000  1.0000
  C   C420      1.0  0.50000  0.96800  0.75000  1.0000
  C   C421      1.0  0.94050  0.53060  0.41190  1.0000
  C   C422      1.0  0.05950  0.53060  0.08810  1.0000
  C   C423      1.0  0.44050  0.03060  0.41190  1.0000
  C   C424      1.0  0.55950  0.03060  0.08810  1.0000
  C   C425      1.0  0.05950  0.46940  0.58810  1.0000
  C   C426      1.0  0.94050  0.46940  0.91190  1.0000
  C   C427      1.0  0.55950  0.96940  0.58810  1.0000
  C   C428      1.0  0.44050  0.96940  0.91190  1.0000
  H   H281      1.0  0.95340  0.52540  0.34200  1.0000
  H   H282      1.0  0.04660  0.52540  0.15800  1.0000
  H   H283      1.0  0.45340  0.02540  0.34200  1.0000
  H   H284      1.0  0.54660  0.02540  0.15800  1.0000
  H   H285      1.0  0.04660  0.47460  0.65800  1.0000
  H   H286      1.0  0.95340  0.47460  0.84200  1.0000
  H   H287      1.0  0.54660  0.97460  0.65800  1.0000
  H   H288      1.0  0.45340  0.97460  0.84200  1.0000
  H   H289      1.0  0.92700  0.52210  0.48180  1.0000
  H   H290      1.0  0.07300  0.52210  0.01820  1.0000
  H   H291      1.0  0.42700  0.02210  0.48180  1.0000
  H   H292      1.0  0.57300  0.02210  0.01820  1.0000
  H   H293      1.0  0.07300  0.47790  0.51820  1.0000
  H   H294      1.0  0.92700  0.47790  0.98180  1.0000
  H   H295      1.0  0.57300  0.97790  0.51820  1.0000
  H   H296      1.0  0.42700  0.97790  0.98180  1.0000
  C   C429      1.0  0.04860  0.55300  0.26780  1.0000
  C   C430      1.0  0.95140  0.55300  0.23220  1.0000
  C   C431      1.0  0.54860  0.05300  0.26780  1.0000
  C   C432      1.0  0.45140  0.05300  0.23220  1.0000
  C   C433      1.0  0.95140  0.44700  0.73220  1.0000
  C   C434      1.0  0.04860  0.44700  0.76780  1.0000
  C   C435      1.0  0.45140  0.94700  0.73220  1.0000
  C   C436      1.0  0.54860  0.94700  0.76780  1.0000
  C   C437      1.0  0.94080  0.57060  0.41460  1.0000
  C   C438      1.0  0.05920  0.57060  0.08540  1.0000
  C   C439      1.0  0.44080  0.07060  0.41460  1.0000
  C   C440      1.0  0.55920  0.07060  0.08540  1.0000
  C   C441      1.0  0.05920  0.42940  0.58540  1.0000
  C   C442      1.0  0.94080  0.42940  0.91460  1.0000
  C   C443      1.0  0.55920  0.92940  0.58540  1.0000
  C   C444      1.0  0.44080  0.92940  0.91460  1.0000
  H   H297      1.0  0.08480  0.54110  0.28130  1.0000
  H   H298      1.0  0.91520  0.54110  0.21870  1.0000
  H   H299      1.0  0.58480  0.04110  0.28130  1.0000
  H   H300      1.0  0.41520  0.04110  0.21870  1.0000
  H   H301      1.0  0.91520  0.45890  0.71870  1.0000
  H   H302      1.0  0.08480  0.45890  0.78130  1.0000
  H   H303      1.0  0.41520  0.95890  0.71870  1.0000
  H   H304      1.0  0.58480  0.95890  0.78130  1.0000
  C   C445      1.0  0.05060  0.59240  0.26810  1.0000
  C   C446      1.0  0.94940  0.59240  0.23190  1.0000
  C   C447      1.0  0.55060  0.09240  0.26810  1.0000
  C   C448      1.0  0.44940  0.09240  0.23190  1.0000
  C   C449      1.0  0.94940  0.40760  0.73190  1.0000
  C   C450      1.0  0.05060  0.40760  0.76810  1.0000
  C   C451      1.0  0.44940  0.90760  0.73190  1.0000
  C   C452      1.0  0.55060  0.90760  0.76810  1.0000
  C   C453      1.0  0.92850  0.58890  0.45570  1.0000
  C   C454      1.0  0.07150  0.58890  0.04430  1.0000
  C   C455      1.0  0.42850  0.08890  0.45570  1.0000
  C   C456      1.0  0.57150  0.08890  0.04430  1.0000
  C   C457      1.0  0.07150  0.41110  0.54430  1.0000
  C   C458      1.0  0.92850  0.41110  0.95570  1.0000
  C   C459      1.0  0.57150  0.91110  0.54430  1.0000
  C   C460      1.0  0.42850  0.91110  0.95570  1.0000
  C   C461      1.0  0.96090  0.59180  0.38030  1.0000
  C   C462      1.0  0.03910  0.59180  0.11970  1.0000
  C   C463      1.0  0.46090  0.09180  0.38030  1.0000
  C   C464      1.0  0.53910  0.09180  0.11970  1.0000
  C   C465      1.0  0.03910  0.40820  0.61970  1.0000
  C   C466      1.0  0.96090  0.40820  0.88030  1.0000
  C   C467      1.0  0.53910  0.90820  0.61970  1.0000
  C   C468      1.0  0.46090  0.90820  0.88030  1.0000
  C   C469      1.0  0.00000  0.60930  0.25000  1.0000
  C   C470      1.0  0.50000  0.10930  0.25000  1.0000
  C   C471      1.0  0.00000  0.39070  0.75000  1.0000
  C   C472      1.0  0.50000  0.89070  0.75000  1.0000
  H   H305      1.0  0.08660  0.60500  0.28060  1.0000
  H   H306      1.0  0.91340  0.60500  0.21940  1.0000
  H   H307      1.0  0.58660  0.10500  0.28060  1.0000
  H   H308      1.0  0.41340  0.10500  0.21940  1.0000
  H   H309      1.0  0.91340  0.39500  0.71940  1.0000
  H   H310      1.0  0.08660  0.39500  0.78060  1.0000
  H   H311      1.0  0.41340  0.89500  0.71940  1.0000
  H   H312      1.0  0.58660  0.89500  0.78060  1.0000
  C   C473      1.0  0.93440  0.62700  0.46070  1.0000
  C   C474      1.0  0.06560  0.62700  0.03930  1.0000
  C   C475      1.0  0.43440  0.12700  0.46070  1.0000
  C   C476      1.0  0.56560  0.12700  0.03930  1.0000
  C   C477      1.0  0.06560  0.37300  0.53930  1.0000
  C   C478      1.0  0.93440  0.37300  0.96070  1.0000
  C   C479      1.0  0.56560  0.87300  0.53930  1.0000
  C   C480      1.0  0.43440  0.87300  0.96070  1.0000
  H   H313      1.0  0.91580  0.57570  0.48150  1.0000
  H   H314      1.0  0.08420  0.57570  0.01850  1.0000
  H   H315      1.0  0.41580  0.07570  0.48150  1.0000
  H   H316      1.0  0.58420  0.07570  0.01850  1.0000
  H   H317      1.0  0.08420  0.42430  0.51850  1.0000
  H   H318      1.0  0.91580  0.42430  0.98150  1.0000
  H   H319      1.0  0.58420  0.92430  0.51850  1.0000
  H   H320      1.0  0.41580  0.92430  0.98150  1.0000
  H   H321      1.0  0.97430  0.58080  0.35310  1.0000
  H   H322      1.0  0.02570  0.58080  0.14690  1.0000
  H   H323      1.0  0.47430  0.08080  0.35310  1.0000
  H   H324      1.0  0.52570  0.08080  0.14690  1.0000
  H   H325      1.0  0.02570  0.41920  0.64690  1.0000
  H   H326      1.0  0.97430  0.41920  0.85310  1.0000
  H   H327      1.0  0.52570  0.91920  0.64690  1.0000
  H   H328      1.0  0.47430  0.91920  0.85310  1.0000
  C   C481      1.0  0.96280  0.63100  0.38340  1.0000
  C   C482      1.0  0.03720  0.63100  0.11660  1.0000
  C   C483      1.0  0.46280  0.13100  0.38340  1.0000
  C   C484      1.0  0.53720  0.13100  0.11660  1.0000
  C   C485      1.0  0.03720  0.36900  0.61660  1.0000
  C   C486      1.0  0.96280  0.36900  0.88340  1.0000
  C   C487      1.0  0.53720  0.86900  0.61660  1.0000
  C   C488      1.0  0.46280  0.86900  0.88340  1.0000
  C   C489      1.0  0.00000  0.65540  0.25000  1.0000
  C   C490      1.0  0.50000  0.15540  0.25000  1.0000
  C   C491      1.0  0.00000  0.34460  0.75000  1.0000
  C   C492      1.0  0.50000  0.84460  0.75000  1.0000
  H   H329      1.0  0.92690  0.63810  0.48980  1.0000
  H   H330      1.0  0.07310  0.63810  0.01020  1.0000
  H   H331      1.0  0.42690  0.13810  0.48980  1.0000
  H   H332      1.0  0.57310  0.13810  0.01020  1.0000
  H   H333      1.0  0.07310  0.36190  0.51020  1.0000
  H   H334      1.0  0.92690  0.36190  0.98980  1.0000
  H   H335      1.0  0.57310  0.86190  0.51020  1.0000
  H   H336      1.0  0.42690  0.86190  0.98980  1.0000
  C   C493      1.0  0.95040  0.64700  0.42430  1.0000
  C   C494      1.0  0.04960  0.64700  0.07570  1.0000
  C   C495      1.0  0.45040  0.14700  0.42430  1.0000
  C   C496      1.0  0.54960  0.14700  0.07570  1.0000
  C   C497      1.0  0.04960  0.35300  0.57570  1.0000
  C   C498      1.0  0.95040  0.35300  0.92430  1.0000
  C   C499      1.0  0.54960  0.85300  0.57570  1.0000
  C   C500      1.0  0.45040  0.85300  0.92430  1.0000
  H   H337      1.0  0.97270  0.64470  0.35710  1.0000
  H   H338      1.0  0.02730  0.64470  0.14290  1.0000
  H   H339      1.0  0.47270  0.14470  0.35710  1.0000
  H   H340      1.0  0.52730  0.14470  0.14290  1.0000
  H   H341      1.0  0.02730  0.35530  0.64290  1.0000
  H   H342      1.0  0.97270  0.35530  0.85710  1.0000
  H   H343      1.0  0.52730  0.85530  0.64290  1.0000
  H   H344      1.0  0.47270  0.85530  0.85710  1.0000
  C   C501      1.0  0.95810  0.68670  0.42660  1.0000
  C   C502      1.0  0.04190  0.68670  0.07340  1.0000
  C   C503      1.0  0.45810  0.18670  0.42660  1.0000
  C   C504      1.0  0.54190  0.18670  0.07340  1.0000
  C   C505      1.0  0.04190  0.31330  0.57340  1.0000
  C   C506      1.0  0.95810  0.31330  0.92660  1.0000
  C   C507      1.0  0.54190  0.81330  0.57340  1.0000
  C   C508      1.0  0.45810  0.81330  0.92660  1.0000
