data_image0
_chemical_formula_structural       Zn6O8C12H4C4H4O4C8O16C12H4C4H4C4O4C4O8
_chemical_formula_sum              "Zn6 O40 C48 H16"
_cell_length_a       9.2803
_cell_length_b       15.1916
_cell_length_c       17.7731
_cell_angle_alpha    90
_cell_angle_beta     96.4221
_cell_angle_gamma    90

_space_group_name_H-M_alt    "P 1"
_space_group_IT_number       1

loop_
  _space_group_symop_operation_xyz
  'x, y, z'

loop_
  _atom_site_type_symbol
  _atom_site_label
  _atom_site_symmetry_multiplicity
  _atom_site_fract_x
  _atom_site_fract_y
  _atom_site_fract_z
  _atom_site_occupancy
  Zn  Zn1       1.0  0.50000  0.50000  0.00000  1.0000
  Zn  Zn2       1.0  0.50000  0.00000  0.50000  1.0000
  Zn  Zn3       1.0  0.42599  0.61076  0.83985  1.0000
  Zn  Zn4       1.0  0.57401  0.11076  0.66015  1.0000
  Zn  Zn5       1.0  0.57401  0.38924  0.16015  1.0000
  Zn  Zn6       1.0  0.42599  0.88924  0.33985  1.0000
  O   O1        1.0  0.30260  0.46504  0.94902  1.0000
  O   O2        1.0  0.69740  0.96504  0.55098  1.0000
  O   O3        1.0  0.69740  0.53496  0.05098  1.0000
  O   O4        1.0  0.30260  0.03496  0.44902  1.0000
  O   O5        1.0  0.23260  0.57061  0.86327  1.0000
  O   O6        1.0  0.76740  0.07061  0.63673  1.0000
  O   O7        1.0  0.76740  0.42939  0.13673  1.0000
  O   O8        1.0  0.23260  0.92939  0.36327  1.0000
  C   C1        1.0  0.21010  0.50760  0.90644  1.0000
  C   C2        1.0  0.78990  0.00760  0.59356  1.0000
  C   C3        1.0  0.78990  0.49240  0.09356  1.0000
  C   C4        1.0  0.21010  0.99240  0.40644  1.0000
  C   C5        1.0  0.05720  0.47950  0.90756  1.0000
  C   C6        1.0  0.94280  0.97950  0.59244  1.0000
  C   C7        1.0  0.94280  0.52050  0.09244  1.0000
  C   C8        1.0  0.05720  0.02050  0.40756  1.0000
  C   C9        1.0  0.99770  0.40550  0.93325  1.0000
  C   C10       1.0  0.00230  0.90550  0.56675  1.0000
  C   C11       1.0  0.00230  0.59450  0.06675  1.0000
  C   C12       1.0  0.99770  0.09450  0.43325  1.0000
  H   H1        1.0  0.04794  0.35538  0.95473  1.0000
  H   H2        1.0  0.95206  0.85538  0.54527  1.0000
  H   H3        1.0  0.95206  0.64462  0.04527  1.0000
  H   H4        1.0  0.04794  0.14462  0.45473  1.0000
  C   C13       1.0  0.84470  0.41770  0.92162  1.0000
  C   C14       1.0  0.15530  0.91770  0.57838  1.0000
  C   C15       1.0  0.15530  0.58230  0.07838  1.0000
  C   C16       1.0  0.84470  0.08230  0.42162  1.0000
  H   H5        1.0  0.77241  0.37734  0.93354  1.0000
  H   H6        1.0  0.22759  0.87734  0.56646  1.0000
  H   H7        1.0  0.22759  0.62266  0.06646  1.0000
  H   H8        1.0  0.77241  0.12266  0.43354  1.0000
  O   O9        1.0  0.95200  0.53740  0.87952  1.0000
  O   O10       1.0  0.04800  0.03740  0.62048  1.0000
  O   O11       1.0  0.04800  0.46260  0.12048  1.0000
  O   O12       1.0  0.95200  0.96260  0.37952  1.0000
  C   C17       1.0  0.69130  0.55130  0.86701  1.0000
  C   C18       1.0  0.30870  0.05130  0.63299  1.0000
  C   C19       1.0  0.30870  0.44870  0.13299  1.0000
  C   C20       1.0  0.69130  0.94870  0.36701  1.0000
  C   C21       1.0  0.82280  0.49850  0.89015  1.0000
  C   C22       1.0  0.17720  0.99850  0.60985  1.0000
  C   C23       1.0  0.17720  0.50150  0.10985  1.0000
  C   C24       1.0  0.82280  0.00150  0.39015  1.0000
  O   O13       1.0  0.57010  0.52153  0.88787  1.0000
  O   O14       1.0  0.42990  0.02153  0.61213  1.0000
  O   O15       1.0  0.42990  0.47847  0.11213  1.0000
  O   O16       1.0  0.57010  0.97847  0.38787  1.0000
  O   O17       1.0  0.69630  0.61822  0.82919  1.0000
  O   O18       1.0  0.30370  0.11822  0.67081  1.0000
  O   O19       1.0  0.30370  0.38178  0.17081  1.0000
  O   O20       1.0  0.69630  0.88178  0.32919  1.0000
  O   O21       1.0  0.38710  0.52950  0.71541  1.0000
  O   O22       1.0  0.61290  0.02950  0.78459  1.0000
  O   O23       1.0  0.61290  0.47050  0.28459  1.0000
  O   O24       1.0  0.38710  0.97050  0.21541  1.0000
  O   O25       1.0  0.40310  0.67040  0.73894  1.0000
  O   O26       1.0  0.59690  0.17040  0.76106  1.0000
  O   O27       1.0  0.59690  0.32960  0.26106  1.0000
  O   O28       1.0  0.40310  0.82960  0.23894  1.0000
  C   C25       1.0  0.39400  0.60600  0.69386  1.0000
  C   C26       1.0  0.60600  0.10600  0.80614  1.0000
  C   C27       1.0  0.60600  0.39400  0.30614  1.0000
  C   C28       1.0  0.39400  0.89400  0.19386  1.0000
  C   C29       1.0  0.39490  0.62440  0.61219  1.0000
  C   C30       1.0  0.60510  0.12440  0.88781  1.0000
  C   C31       1.0  0.60510  0.37560  0.38781  1.0000
  C   C32       1.0  0.39490  0.87560  0.11219  1.0000
  C   C33       1.0  0.38480  0.57020  0.55220  1.0000
  C   C34       1.0  0.61520  0.07020  0.94780  1.0000
  C   C35       1.0  0.61520  0.42980  0.44780  1.0000
  C   C36       1.0  0.38480  0.92980  0.05220  1.0000
  H   H9        1.0  0.37036  0.50829  0.55233  1.0000
  H   H10       1.0  0.62964  0.00829  0.94767  1.0000
  H   H11       1.0  0.62964  0.49171  0.44767  1.0000
  H   H12       1.0  0.37036  0.99171  0.05233  1.0000
  C   C37       1.0  0.40020  0.62420  0.48841  1.0000
  C   C38       1.0  0.59980  0.12420  0.01159  1.0000
  C   C39       1.0  0.59980  0.37580  0.51159  1.0000
  C   C40       1.0  0.40020  0.87580  0.98841  1.0000
  H   H13       1.0  0.39757  0.60534  0.43731  1.0000
  H   H14       1.0  0.60243  0.10534  0.06269  1.0000
  H   H15       1.0  0.60243  0.39466  0.56269  1.0000
  H   H16       1.0  0.39757  0.89466  0.93731  1.0000
  C   C41       1.0  0.41940  0.70750  0.51421  1.0000
  C   C42       1.0  0.58060  0.20750  0.98579  1.0000
  C   C43       1.0  0.58060  0.29250  0.48579  1.0000
  C   C44       1.0  0.41940  0.79250  0.01421  1.0000
  O   O29       1.0  0.41600  0.70942  0.59083  1.0000
  O   O30       1.0  0.58400  0.20942  0.90917  1.0000
  O   O31       1.0  0.58400  0.29058  0.40917  1.0000
  O   O32       1.0  0.41600  0.79058  0.09083  1.0000
  C   C45       1.0  0.44010  0.79150  0.47440  1.0000
  C   C46       1.0  0.55990  0.29150  0.02560  1.0000
  C   C47       1.0  0.55990  0.20850  0.52560  1.0000
  C   C48       1.0  0.44010  0.70850  0.97440  1.0000
  O   O33       1.0  0.44520  0.78259  0.40358  1.0000
  O   O34       1.0  0.55480  0.28259  0.09642  1.0000
  O   O35       1.0  0.55480  0.21741  0.59642  1.0000
  O   O36       1.0  0.44520  0.71741  0.90358  1.0000
  O   O37       1.0  0.44730  0.86162  0.51109  1.0000
  O   O38       1.0  0.55270  0.36162  0.98891  1.0000
  O   O39       1.0  0.55270  0.13838  0.48891  1.0000
  O   O40       1.0  0.44730  0.63838  0.01109  1.0000
