data_image0
_chemical_formula_structural       Zn4O24C8H8C4H4
_chemical_formula_sum              "Zn4 O24 C12 H12"
_cell_length_a       8.3194
_cell_length_b       11.6703
_cell_length_c       8.1368
_cell_angle_alpha    90
_cell_angle_beta     90
_cell_angle_gamma    90

_space_group_name_H-M_alt    "P 1"
_space_group_IT_number       1

loop_
  _space_group_symop_operation_xyz
  'x, y, z'

loop_
  _atom_site_type_symbol
  _atom_site_label
  _atom_site_symmetry_multiplicity
  _atom_site_fract_x
  _atom_site_fract_y
  _atom_site_fract_z
  _atom_site_occupancy
  Zn  Zn1       1.0  0.00000  0.50000  0.00000  1.0000
  Zn  Zn2       1.0  0.50000  0.50000  0.50000  1.0000
  Zn  Zn3       1.0  0.00000  0.00000  0.00000  1.0000
  Zn  Zn4       1.0  0.50000  0.00000  0.50000  1.0000
  O   O1        1.0  0.09712  0.57017  0.21487  1.0000
  O   O2        1.0  0.40288  0.42983  0.71487  1.0000
  O   O3        1.0  0.90288  0.07017  0.78513  1.0000
  O   O4        1.0  0.59712  0.92983  0.28513  1.0000
  O   O5        1.0  0.90288  0.42983  0.78513  1.0000
  O   O6        1.0  0.59712  0.57017  0.28513  1.0000
  O   O7        1.0  0.09712  0.92983  0.21487  1.0000
  O   O8        1.0  0.40288  0.07017  0.71487  1.0000
  O   O9        1.0  0.27352  0.56001  0.41825  1.0000
  O   O10       1.0  0.22648  0.43999  0.91825  1.0000
  O   O11       1.0  0.72648  0.06001  0.58175  1.0000
  O   O12       1.0  0.77352  0.93999  0.08175  1.0000
  O   O13       1.0  0.72648  0.43999  0.58175  1.0000
  O   O14       1.0  0.77352  0.56001  0.08175  1.0000
  O   O15       1.0  0.27352  0.93999  0.41825  1.0000
  O   O16       1.0  0.22648  0.06001  0.91825  1.0000
  O   O17       1.0  0.97266  0.34460  0.12735  1.0000
  O   O18       1.0  0.52734  0.65540  0.62735  1.0000
  O   O19       1.0  0.02734  0.84460  0.87265  1.0000
  O   O20       1.0  0.47266  0.15540  0.37265  1.0000
  O   O21       1.0  0.02734  0.65540  0.87265  1.0000
  O   O22       1.0  0.47266  0.34460  0.37265  1.0000
  O   O23       1.0  0.97266  0.15540  0.12735  1.0000
  O   O24       1.0  0.52734  0.84460  0.62735  1.0000
  C   C1        1.0  0.21975  0.53003  0.27987  1.0000
  C   C2        1.0  0.28025  0.46997  0.77987  1.0000
  C   C3        1.0  0.78025  0.03003  0.72013  1.0000
  C   C4        1.0  0.71975  0.96997  0.22013  1.0000
  C   C5        1.0  0.78025  0.46997  0.72013  1.0000
  C   C6        1.0  0.71975  0.53003  0.22013  1.0000
  C   C7        1.0  0.21975  0.96997  0.27987  1.0000
  C   C8        1.0  0.28025  0.03003  0.77987  1.0000
  H   H1        1.0  0.27710  0.47270  0.22130  1.0000
  H   H2        1.0  0.22290  0.52730  0.72130  1.0000
  H   H3        1.0  0.72290  0.97270  0.77870  1.0000
  H   H4        1.0  0.77710  0.02730  0.27870  1.0000
  H   H5        1.0  0.72290  0.52730  0.77870  1.0000
  H   H6        1.0  0.77710  0.47270  0.27870  1.0000
  H   H7        1.0  0.27710  0.02730  0.22130  1.0000
  H   H8        1.0  0.22290  0.97270  0.72130  1.0000
  C   C9        1.0  0.98818  0.25000  0.05680  1.0000
  C   C10       1.0  0.51182  0.75000  0.55680  1.0000
  C   C11       1.0  0.01182  0.75000  0.94320  1.0000
  C   C12       1.0  0.48818  0.25000  0.44320  1.0000
  H   H9        1.0  0.01320  0.25000  0.94290  1.0000
  H   H10       1.0  0.48680  0.75000  0.44290  1.0000
  H   H11       1.0  0.98680  0.75000  0.05710  1.0000
  H   H12       1.0  0.51320  0.25000  0.55710  1.0000
