data_image0
_chemical_formula_structural       Cl36O36N72C36H18C18H18C18H18C18H18C36H18C18H36Fe3Mn18C18H36C18H18C36H18C18H18C18H18C18H18C54Nb18
_chemical_formula_sum              "Cl36 O36 N72 C324 H252 Fe3 Mn18 Nb18"
_cell_length_a       16.3466
_cell_length_b       16.3466
_cell_length_c       42.227
_cell_angle_alpha    90
_cell_angle_beta     90
_cell_angle_gamma    120

_space_group_name_H-M_alt    "P 1"
_space_group_IT_number       1

loop_
  _space_group_symop_operation_xyz
  'x, y, z'

loop_
  _atom_site_type_symbol
  _atom_site_label
  _atom_site_symmetry_multiplicity
  _atom_site_fract_x
  _atom_site_fract_y
  _atom_site_fract_z
  _atom_site_occupancy
  Cl  Cl1       1.0  0.44873  0.65492  0.23318  1.0000
  Cl  Cl2       1.0  0.34508  0.79381  0.23318  1.0000
  Cl  Cl3       1.0  0.20619  0.55127  0.23318  1.0000
  Cl  Cl4       1.0  0.11540  0.98825  0.56651  1.0000
  Cl  Cl5       1.0  0.01175  0.12714  0.56651  1.0000
  Cl  Cl6       1.0  0.87286  0.88460  0.56651  1.0000
  Cl  Cl7       1.0  0.78206  0.32159  0.89985  1.0000
  Cl  Cl8       1.0  0.67841  0.46048  0.89985  1.0000
  Cl  Cl9       1.0  0.53952  0.21794  0.89985  1.0000
  Cl  Cl10      1.0  0.55127  0.34508  0.76682  1.0000
  Cl  Cl11      1.0  0.65492  0.20619  0.76682  1.0000
  Cl  Cl12      1.0  0.79381  0.44873  0.76682  1.0000
  Cl  Cl13      1.0  0.88460  0.01175  0.43349  1.0000
  Cl  Cl14      1.0  0.98825  0.87286  0.43349  1.0000
  Cl  Cl15      1.0  0.12714  0.11540  0.43349  1.0000
  Cl  Cl16      1.0  0.21794  0.67841  0.10015  1.0000
  Cl  Cl17      1.0  0.32159  0.53952  0.10015  1.0000
  Cl  Cl18      1.0  0.46048  0.78206  0.10015  1.0000
  Cl  Cl19      1.0  0.57650  0.77253  0.16630  1.0000
  Cl  Cl20      1.0  0.22747  0.80397  0.16630  1.0000
  Cl  Cl21      1.0  0.19603  0.42350  0.16630  1.0000
  Cl  Cl22      1.0  0.24317  0.10586  0.49963  1.0000
  Cl  Cl23      1.0  0.89414  0.13730  0.49963  1.0000
  Cl  Cl24      1.0  0.86270  0.75683  0.49963  1.0000
  Cl  Cl25      1.0  0.90983  0.43920  0.83297  1.0000
  Cl  Cl26      1.0  0.56080  0.47064  0.83297  1.0000
  Cl  Cl27      1.0  0.52936  0.09017  0.83297  1.0000
  Cl  Cl28      1.0  0.42350  0.22747  0.83370  1.0000
  Cl  Cl29      1.0  0.77253  0.19603  0.83370  1.0000
  Cl  Cl30      1.0  0.80397  0.57650  0.83370  1.0000
  Cl  Cl31      1.0  0.75683  0.89414  0.50037  1.0000
  Cl  Cl32      1.0  0.10586  0.86270  0.50037  1.0000
  Cl  Cl33      1.0  0.13730  0.24317  0.50037  1.0000
  Cl  Cl34      1.0  0.09017  0.56080  0.16703  1.0000
  Cl  Cl35      1.0  0.43920  0.52936  0.16703  1.0000
  Cl  Cl36      1.0  0.47064  0.90983  0.16703  1.0000
  O   O1        1.0  0.74420  0.03230  0.29864  1.0000
  O   O2        1.0  0.96770  0.71190  0.29864  1.0000
  O   O3        1.0  0.28810  0.25580  0.29864  1.0000
  O   O4        1.0  0.41087  0.36563  0.63197  1.0000
  O   O5        1.0  0.63437  0.04523  0.63197  1.0000
  O   O6        1.0  0.95477  0.58913  0.63197  1.0000
  O   O7        1.0  0.07753  0.69897  0.96531  1.0000
  O   O8        1.0  0.30103  0.37857  0.96531  1.0000
  O   O9        1.0  0.62143  0.92247  0.96531  1.0000
  O   O10       1.0  0.25580  0.96770  0.70136  1.0000
  O   O11       1.0  0.03230  0.28810  0.70136  1.0000
  O   O12       1.0  0.71190  0.74420  0.70136  1.0000
  O   O13       1.0  0.58913  0.63437  0.36803  1.0000
  O   O14       1.0  0.36563  0.95477  0.36803  1.0000
  O   O15       1.0  0.04523  0.41087  0.36803  1.0000
  O   O16       1.0  0.92247  0.30103  0.03469  1.0000
  O   O17       1.0  0.69897  0.62143  0.03469  1.0000
  O   O18       1.0  0.37857  0.07753  0.03469  1.0000
  O   O19       1.0  0.79750  0.13050  0.24280  1.0000
  O   O20       1.0  0.86950  0.66700  0.24280  1.0000
  O   O21       1.0  0.33300  0.20250  0.24280  1.0000
  O   O22       1.0  0.46417  0.46383  0.57613  1.0000
  O   O23       1.0  0.53617  0.00033  0.57613  1.0000
  O   O24       1.0  0.99967  0.53583  0.57613  1.0000
  O   O25       1.0  0.13083  0.79717  0.90947  1.0000
  O   O26       1.0  0.20283  0.33367  0.90947  1.0000
  O   O27       1.0  0.66633  0.86917  0.90947  1.0000
  O   O28       1.0  0.20250  0.86950  0.75720  1.0000
  O   O29       1.0  0.13050  0.33300  0.75720  1.0000
  O   O30       1.0  0.66700  0.79750  0.75720  1.0000
  O   O31       1.0  0.53583  0.53617  0.42387  1.0000
  O   O32       1.0  0.46383  0.99967  0.42387  1.0000
  O   O33       1.0  0.00033  0.46417  0.42387  1.0000
  O   O34       1.0  0.86917  0.20283  0.09053  1.0000
  O   O35       1.0  0.79717  0.66633  0.09053  1.0000
  O   O36       1.0  0.33367  0.13083  0.09053  1.0000
  N   N1        1.0  0.57200  0.02710  0.29421  1.0000
  N   N2        1.0  0.97290  0.54490  0.29421  1.0000
  N   N3        1.0  0.45510  0.42800  0.29421  1.0000
  N   N4        1.0  0.23867  0.36043  0.62754  1.0000
  N   N5        1.0  0.63957  0.87823  0.62754  1.0000
  N   N6        1.0  0.12177  0.76133  0.62754  1.0000
  N   N7        1.0  0.90533  0.69377  0.96088  1.0000
  N   N8        1.0  0.30623  0.21157  0.96088  1.0000
  N   N9        1.0  0.78843  0.09467  0.96088  1.0000
  N   N10       1.0  0.42800  0.97290  0.70579  1.0000
  N   N11       1.0  0.02710  0.45510  0.70579  1.0000
  N   N12       1.0  0.54490  0.57200  0.70579  1.0000
  N   N13       1.0  0.76133  0.63957  0.37246  1.0000
  N   N14       1.0  0.36043  0.12177  0.37246  1.0000
  N   N15       1.0  0.87823  0.23867  0.37246  1.0000
  N   N16       1.0  0.09467  0.30623  0.03912  1.0000
  N   N17       1.0  0.69377  0.78843  0.03912  1.0000
  N   N18       1.0  0.21157  0.90533  0.03912  1.0000
  N   N19       1.0  0.61820  0.10900  0.23846  1.0000
  N   N20       1.0  0.89100  0.50920  0.23846  1.0000
  N   N21       1.0  0.49080  0.38180  0.23846  1.0000
  N   N22       1.0  0.28487  0.44233  0.57179  1.0000
  N   N23       1.0  0.55767  0.84253  0.57179  1.0000
  N   N24       1.0  0.15747  0.71513  0.57179  1.0000
  N   N25       1.0  0.95153  0.77567  0.90513  1.0000
  N   N26       1.0  0.22433  0.17587  0.90513  1.0000
  N   N27       1.0  0.82413  0.04847  0.90513  1.0000
  N   N28       1.0  0.38180  0.89100  0.76154  1.0000
  N   N29       1.0  0.10900  0.49080  0.76154  1.0000
  N   N30       1.0  0.50920  0.61820  0.76154  1.0000
  N   N31       1.0  0.71513  0.55767  0.42821  1.0000
  N   N32       1.0  0.44233  0.15747  0.42821  1.0000
  N   N33       1.0  0.84253  0.28487  0.42821  1.0000
  N   N34       1.0  0.04847  0.22433  0.09487  1.0000
  N   N35       1.0  0.77567  0.82413  0.09487  1.0000
  N   N36       1.0  0.17587  0.95153  0.09487  1.0000
  N   N37       1.0  0.61920  0.93290  0.24092  1.0000
  N   N38       1.0  0.06710  0.68630  0.24092  1.0000
  N   N39       1.0  0.31370  0.38080  0.24092  1.0000
  N   N40       1.0  0.28587  0.26623  0.57425  1.0000
  N   N41       1.0  0.73377  0.01963  0.57425  1.0000
  N   N42       1.0  0.98037  0.71413  0.57425  1.0000
  N   N43       1.0  0.95253  0.59957  0.90759  1.0000
  N   N44       1.0  0.40043  0.35297  0.90759  1.0000
  N   N45       1.0  0.64703  0.04747  0.90759  1.0000
  N   N46       1.0  0.38080  0.06710  0.75908  1.0000
  N   N47       1.0  0.93290  0.31370  0.75908  1.0000
  N   N48       1.0  0.68630  0.61920  0.75908  1.0000
  N   N49       1.0  0.71413  0.73377  0.42575  1.0000
  N   N50       1.0  0.26623  0.98037  0.42575  1.0000
  N   N51       1.0  0.01963  0.28587  0.42575  1.0000
  N   N52       1.0  0.04747  0.40043  0.09241  1.0000
  N   N53       1.0  0.59957  0.64703  0.09241  1.0000
  N   N54       1.0  0.35297  0.95253  0.09241  1.0000
  N   N55       1.0  0.73250  0.21720  0.29420  1.0000
  N   N56       1.0  0.78280  0.51530  0.29420  1.0000
  N   N57       1.0  0.48470  0.26750  0.29420  1.0000
  N   N58       1.0  0.39917  0.55053  0.62753  1.0000
  N   N59       1.0  0.44947  0.84863  0.62753  1.0000
  N   N60       1.0  0.15137  0.60083  0.62753  1.0000
  N   N61       1.0  0.06583  0.88387  0.96087  1.0000
  N   N62       1.0  0.11613  0.18197  0.96087  1.0000
  N   N63       1.0  0.81803  0.93417  0.96087  1.0000
  N   N64       1.0  0.26750  0.78280  0.70580  1.0000
  N   N65       1.0  0.21720  0.48470  0.70580  1.0000
  N   N66       1.0  0.51530  0.73250  0.70580  1.0000
  N   N67       1.0  0.60083  0.44947  0.37247  1.0000
  N   N68       1.0  0.55053  0.15137  0.37247  1.0000
  N   N69       1.0  0.84863  0.39917  0.37247  1.0000
  N   N70       1.0  0.93417  0.11613  0.03913  1.0000
  N   N71       1.0  0.88387  0.81803  0.03913  1.0000
  N   N72       1.0  0.18197  0.06583  0.03913  1.0000
  C   C1        1.0  0.70750  0.98410  0.32511  1.0000
  C   C2        1.0  0.01590  0.72340  0.32511  1.0000
  C   C3        1.0  0.27660  0.29250  0.32511  1.0000
  C   C4        1.0  0.37417  0.31743  0.65844  1.0000
  C   C5        1.0  0.68257  0.05673  0.65844  1.0000
  C   C6        1.0  0.94327  0.62583  0.65844  1.0000
  C   C7        1.0  0.04083  0.65077  0.99178  1.0000
  C   C8        1.0  0.34923  0.39007  0.99178  1.0000
  C   C9        1.0  0.60993  0.95917  0.99178  1.0000
  C   C10       1.0  0.29250  0.01590  0.67489  1.0000
  C   C11       1.0  0.98410  0.27660  0.67489  1.0000
  C   C12       1.0  0.72340  0.70750  0.67489  1.0000
  C   C13       1.0  0.62583  0.68257  0.34156  1.0000
  C   C14       1.0  0.31743  0.94327  0.34156  1.0000
  C   C15       1.0  0.05673  0.37417  0.34156  1.0000
  C   C16       1.0  0.95917  0.34923  0.00822  1.0000
  C   C17       1.0  0.65077  0.60993  0.00822  1.0000
  C   C18       1.0  0.39007  0.04083  0.00822  1.0000
  C   C19       1.0  0.76170  0.95350  0.34230  1.0000
  C   C20       1.0  0.04650  0.80820  0.34230  1.0000
  C   C21       1.0  0.19180  0.23830  0.34230  1.0000
  C   C22       1.0  0.42837  0.28683  0.67563  1.0000
  C   C23       1.0  0.71317  0.14153  0.67563  1.0000
  C   C24       1.0  0.85847  0.57163  0.67563  1.0000
  C   C25       1.0  0.09503  0.62017  0.00897  1.0000
  C   C26       1.0  0.37983  0.47487  0.00897  1.0000
  C   C27       1.0  0.52513  0.90497  0.00897  1.0000
  C   C28       1.0  0.23830  0.04650  0.65770  1.0000
  C   C29       1.0  0.95350  0.19180  0.65770  1.0000
  C   C30       1.0  0.80820  0.76170  0.65770  1.0000
  C   C31       1.0  0.57163  0.71317  0.32437  1.0000
  C   C32       1.0  0.28683  0.85847  0.32437  1.0000
  C   C33       1.0  0.14153  0.42837  0.32437  1.0000
  C   C34       1.0  0.90497  0.37983  0.99103  1.0000
  C   C35       1.0  0.62017  0.52513  0.99103  1.0000
  C   C36       1.0  0.47487  0.09503  0.99103  1.0000
  H   H1        1.0  0.82090  0.96550  0.33410  1.0000
  H   H2        1.0  0.03450  0.85540  0.33410  1.0000
  H   H3        1.0  0.14460  0.17910  0.33410  1.0000
  H   H4        1.0  0.48757  0.29883  0.66743  1.0000
  H   H5        1.0  0.70117  0.18873  0.66743  1.0000
  H   H6        1.0  0.81127  0.51243  0.66743  1.0000
  H   H7        1.0  0.15423  0.63217  0.00077  1.0000
  H   H8        1.0  0.36783  0.52207  0.00077  1.0000
  H   H9        1.0  0.47793  0.84577  0.00077  1.0000
  H   H10       1.0  0.17910  0.03450  0.66590  1.0000
  H   H11       1.0  0.96550  0.14460  0.66590  1.0000
  H   H12       1.0  0.85540  0.82090  0.66590  1.0000
  H   H13       1.0  0.51243  0.70117  0.33257  1.0000
  H   H14       1.0  0.29883  0.81127  0.33257  1.0000
  H   H15       1.0  0.18873  0.48757  0.33257  1.0000
  H   H16       1.0  0.84577  0.36783  0.99923  1.0000
  H   H17       1.0  0.63217  0.47793  0.99923  1.0000
  H   H18       1.0  0.52207  0.15423  0.99923  1.0000
  C   C37       1.0  0.73070  0.90770  0.36997  1.0000
  C   C38       1.0  0.09230  0.82300  0.36997  1.0000
  C   C39       1.0  0.17700  0.26930  0.36997  1.0000
  C   C40       1.0  0.39737  0.24103  0.70330  1.0000
  C   C41       1.0  0.75897  0.15633  0.70330  1.0000
  C   C42       1.0  0.84367  0.60263  0.70330  1.0000
  C   C43       1.0  0.06403  0.57437  0.03664  1.0000
  C   C44       1.0  0.42563  0.48967  0.03664  1.0000
  C   C45       1.0  0.51033  0.93597  0.03664  1.0000
  C   C46       1.0  0.26930  0.09230  0.63003  1.0000
  C   C47       1.0  0.90770  0.17700  0.63003  1.0000
  C   C48       1.0  0.82300  0.73070  0.63003  1.0000
  C   C49       1.0  0.60263  0.75897  0.29670  1.0000
  C   C50       1.0  0.24103  0.84367  0.29670  1.0000
  C   C51       1.0  0.15633  0.39737  0.29670  1.0000
  C   C52       1.0  0.93597  0.42563  0.96336  1.0000
  C   C53       1.0  0.57437  0.51033  0.96336  1.0000
  C   C54       1.0  0.48967  0.06403  0.96336  1.0000
  H   H19       1.0  0.76760  0.88630  0.38070  1.0000
  H   H20       1.0  0.11370  0.88130  0.38070  1.0000
  H   H21       1.0  0.11870  0.23240  0.38070  1.0000
  H   H22       1.0  0.43427  0.21963  0.71403  1.0000
  H   H23       1.0  0.78037  0.21463  0.71403  1.0000
  H   H24       1.0  0.78537  0.56573  0.71403  1.0000
  H   H25       1.0  0.10093  0.55297  0.04737  1.0000
  H   H26       1.0  0.44703  0.54797  0.04737  1.0000
  H   H27       1.0  0.45203  0.89907  0.04737  1.0000
  H   H28       1.0  0.23240  0.11370  0.61930  1.0000
  H   H29       1.0  0.88630  0.11870  0.61930  1.0000
  H   H30       1.0  0.88130  0.76760  0.61930  1.0000
  H   H31       1.0  0.56573  0.78037  0.28597  1.0000
  H   H32       1.0  0.21963  0.78537  0.28597  1.0000
  H   H33       1.0  0.21463  0.43427  0.28597  1.0000
  H   H34       1.0  0.89907  0.44703  0.95263  1.0000
  H   H35       1.0  0.55297  0.45203  0.95263  1.0000
  H   H36       1.0  0.54797  0.10093  0.95263  1.0000
  C   C55       1.0  0.64520  0.89070  0.38351  1.0000
  C   C56       1.0  0.10930  0.75450  0.38351  1.0000
  C   C57       1.0  0.24550  0.35480  0.38351  1.0000
  C   C58       1.0  0.31187  0.22403  0.71684  1.0000
  C   C59       1.0  0.77597  0.08783  0.71684  1.0000
  C   C60       1.0  0.91217  0.68813  0.71684  1.0000
  C   C61       1.0  0.97853  0.55737  0.05018  1.0000
  C   C62       1.0  0.44263  0.42117  0.05018  1.0000
  C   C63       1.0  0.57883  0.02147  0.05018  1.0000
  C   C64       1.0  0.35480  0.10930  0.61649  1.0000
  C   C65       1.0  0.89070  0.24550  0.61649  1.0000
  C   C66       1.0  0.75450  0.64520  0.61649  1.0000
  C   C67       1.0  0.68813  0.77597  0.28316  1.0000
  C   C68       1.0  0.22403  0.91217  0.28316  1.0000
  C   C69       1.0  0.08783  0.31187  0.28316  1.0000
  C   C70       1.0  0.02147  0.44263  0.94982  1.0000
  C   C71       1.0  0.55737  0.57883  0.94982  1.0000
  C   C72       1.0  0.42117  0.97853  0.94982  1.0000
  H   H37       1.0  0.62500  0.86070  0.40350  1.0000
  H   H38       1.0  0.13930  0.76430  0.40350  1.0000
  H   H39       1.0  0.23570  0.37500  0.40350  1.0000
  H   H40       1.0  0.29167  0.19403  0.73683  1.0000
  H   H41       1.0  0.80597  0.09763  0.73683  1.0000
  H   H42       1.0  0.90237  0.70833  0.73683  1.0000
  H   H43       1.0  0.95833  0.52737  0.07017  1.0000
  H   H44       1.0  0.47263  0.43097  0.07017  1.0000
  H   H45       1.0  0.56903  0.04167  0.07017  1.0000
  H   H46       1.0  0.37500  0.13930  0.59650  1.0000
  H   H47       1.0  0.86070  0.23570  0.59650  1.0000
  H   H48       1.0  0.76430  0.62500  0.59650  1.0000
  H   H49       1.0  0.70833  0.80597  0.26317  1.0000
  H   H50       1.0  0.19403  0.90237  0.26317  1.0000
  H   H51       1.0  0.09763  0.29167  0.26317  1.0000
  H   H52       1.0  0.04167  0.47263  0.92983  1.0000
  H   H53       1.0  0.52737  0.56903  0.92983  1.0000
  H   H54       1.0  0.43097  0.95833  0.92983  1.0000
  C   C73       1.0  0.59290  0.91860  0.36694  1.0000
  C   C74       1.0  0.08140  0.67430  0.36694  1.0000
  C   C75       1.0  0.32570  0.40710  0.36694  1.0000
  C   C76       1.0  0.25957  0.25193  0.70027  1.0000
  C   C77       1.0  0.74807  0.00763  0.70027  1.0000
  C   C78       1.0  0.99237  0.74043  0.70027  1.0000
  C   C79       1.0  0.92623  0.58527  0.03361  1.0000
  C   C80       1.0  0.41473  0.34097  0.03361  1.0000
  C   C81       1.0  0.65903  0.07377  0.03361  1.0000
  C   C82       1.0  0.40710  0.08140  0.63306  1.0000
  C   C83       1.0  0.91860  0.32570  0.63306  1.0000
  C   C84       1.0  0.67430  0.59290  0.63306  1.0000
  C   C85       1.0  0.74043  0.74807  0.29973  1.0000
  C   C86       1.0  0.25193  0.99237  0.29973  1.0000
  C   C87       1.0  0.00763  0.25957  0.29973  1.0000
  C   C88       1.0  0.07377  0.41473  0.96639  1.0000
  C   C89       1.0  0.58527  0.65903  0.96639  1.0000
  C   C90       1.0  0.34097  0.92623  0.96639  1.0000
  H   H55       1.0  0.53440  0.90670  0.37570  1.0000
  H   H56       1.0  0.09330  0.62770  0.37570  1.0000
  H   H57       1.0  0.37230  0.46560  0.37570  1.0000
  H   H58       1.0  0.20107  0.24003  0.70903  1.0000
  H   H59       1.0  0.75997  0.96103  0.70903  1.0000
  H   H60       1.0  0.03897  0.79893  0.70903  1.0000
  H   H61       1.0  0.86773  0.57337  0.04237  1.0000
  H   H62       1.0  0.42663  0.29437  0.04237  1.0000
  H   H63       1.0  0.70563  0.13227  0.04237  1.0000
  H   H64       1.0  0.46560  0.09330  0.62430  1.0000
  H   H65       1.0  0.90670  0.37230  0.62430  1.0000
  H   H66       1.0  0.62770  0.53440  0.62430  1.0000
  H   H67       1.0  0.79893  0.75997  0.29097  1.0000
  H   H68       1.0  0.24003  0.03897  0.29097  1.0000
  H   H69       1.0  0.96103  0.20107  0.29097  1.0000
  H   H70       1.0  0.13227  0.42663  0.95763  1.0000
  H   H71       1.0  0.57337  0.70563  0.95763  1.0000
  H   H72       1.0  0.29437  0.86773  0.95763  1.0000
  C   C91       1.0  0.61990  0.96420  0.33756  1.0000
  C   C92       1.0  0.03580  0.65570  0.33756  1.0000
  C   C93       1.0  0.34430  0.38010  0.33756  1.0000
  C   C94       1.0  0.28657  0.29753  0.67089  1.0000
  C   C95       1.0  0.70247  0.98903  0.67089  1.0000
  C   C96       1.0  0.01097  0.71343  0.67089  1.0000
  C   C97       1.0  0.95323  0.63087  0.00423  1.0000
  C   C98       1.0  0.36913  0.32237  0.00423  1.0000
  C   C99       1.0  0.67763  0.04677  0.00423  1.0000
  C   C100      1.0  0.38010  0.03580  0.66244  1.0000
  C   C101      1.0  0.96420  0.34430  0.66244  1.0000
  C   C102      1.0  0.65570  0.61990  0.66244  1.0000
  C   C103      1.0  0.71343  0.70247  0.32911  1.0000
  C   C104      1.0  0.29753  0.01097  0.32911  1.0000
  C   C105      1.0  0.98903  0.28657  0.32911  1.0000
  C   C106      1.0  0.04677  0.36913  0.99577  1.0000
  C   C107      1.0  0.63087  0.67763  0.99577  1.0000
  C   C108      1.0  0.32237  0.95323  0.99577  1.0000
  C   C109      1.0  0.55750  0.98860  0.32140  1.0000
  C   C110      1.0  0.01140  0.56890  0.32140  1.0000
  C   C111      1.0  0.43110  0.44250  0.32140  1.0000
  C   C112      1.0  0.22417  0.32193  0.65473  1.0000
  C   C113      1.0  0.67807  0.90223  0.65473  1.0000
  C   C114      1.0  0.09777  0.77583  0.65473  1.0000
  C   C115      1.0  0.89083  0.65527  0.98807  1.0000
  C   C116      1.0  0.34473  0.23557  0.98807  1.0000
  C   C117      1.0  0.76443  0.10917  0.98807  1.0000
  C   C118      1.0  0.44250  0.01140  0.67860  1.0000
  C   C119      1.0  0.98860  0.43110  0.67860  1.0000
  C   C120      1.0  0.56890  0.55750  0.67860  1.0000
  C   C121      1.0  0.77583  0.67807  0.34527  1.0000
  C   C122      1.0  0.32193  0.09777  0.34527  1.0000
  C   C123      1.0  0.90223  0.22417  0.34527  1.0000
  C   C124      1.0  0.10917  0.34473  0.01193  1.0000
  C   C125      1.0  0.65527  0.76443  0.01193  1.0000
  C   C126      1.0  0.23557  0.89083  0.01193  1.0000
  H   H73       1.0  0.50060  0.97470  0.33190  1.0000
  H   H74       1.0  0.02530  0.52590  0.33190  1.0000
  H   H75       1.0  0.47410  0.49940  0.33190  1.0000
  H   H76       1.0  0.16727  0.30803  0.66523  1.0000
  H   H77       1.0  0.69197  0.85923  0.66523  1.0000
  H   H78       1.0  0.14077  0.83273  0.66523  1.0000
  H   H79       1.0  0.83393  0.64137  0.99857  1.0000
  H   H80       1.0  0.35863  0.19257  0.99857  1.0000
  H   H81       1.0  0.80743  0.16607  0.99857  1.0000
  H   H82       1.0  0.49940  0.02530  0.66810  1.0000
  H   H83       1.0  0.97470  0.47410  0.66810  1.0000
  H   H84       1.0  0.52590  0.50060  0.66810  1.0000
  H   H85       1.0  0.83273  0.69197  0.33477  1.0000
  H   H86       1.0  0.30803  0.14077  0.33477  1.0000
  H   H87       1.0  0.85923  0.16727  0.33477  1.0000
  H   H88       1.0  0.16607  0.35863  0.00143  1.0000
  H   H89       1.0  0.64137  0.80743  0.00143  1.0000
  H   H90       1.0  0.19257  0.83393  0.00143  1.0000
  C   C127      1.0  0.50460  0.05390  0.28133  1.0000
  C   C128      1.0  0.94610  0.45070  0.28133  1.0000
  C   C129      1.0  0.54930  0.49540  0.28133  1.0000
  C   C130      1.0  0.17127  0.38723  0.61466  1.0000
  C   C131      1.0  0.61277  0.78403  0.61466  1.0000
  C   C132      1.0  0.21597  0.82873  0.61466  1.0000
  C   C133      1.0  0.83793  0.72057  0.94800  1.0000
  C   C134      1.0  0.27943  0.11737  0.94800  1.0000
  C   C135      1.0  0.88263  0.16207  0.94800  1.0000
  C   C136      1.0  0.49540  0.94610  0.71867  1.0000
  C   C137      1.0  0.05390  0.54930  0.71867  1.0000
  C   C138      1.0  0.45070  0.50460  0.71867  1.0000
  C   C139      1.0  0.82873  0.61277  0.38534  1.0000
  C   C140      1.0  0.38723  0.21597  0.38534  1.0000
  C   C141      1.0  0.78403  0.17127  0.38534  1.0000
  C   C142      1.0  0.16207  0.27943  0.05200  1.0000
  C   C143      1.0  0.72057  0.88263  0.05200  1.0000
  C   C144      1.0  0.11737  0.83793  0.05200  1.0000
  H   H91       1.0  0.51730  0.11490  0.29050  1.0000
  H   H92       1.0  0.88510  0.40240  0.29050  1.0000
  H   H93       1.0  0.59760  0.48270  0.29050  1.0000
  H   H94       1.0  0.18397  0.44823  0.62383  1.0000
  H   H95       1.0  0.55177  0.73573  0.62383  1.0000
  H   H96       1.0  0.26427  0.81603  0.62383  1.0000
  H   H97       1.0  0.85063  0.78157  0.95717  1.0000
  H   H98       1.0  0.21843  0.06907  0.95717  1.0000
  H   H99       1.0  0.93093  0.14937  0.95717  1.0000
  H   H100      1.0  0.48270  0.88510  0.70950  1.0000
  H   H101      1.0  0.11490  0.59760  0.70950  1.0000
  H   H102      1.0  0.40240  0.51730  0.70950  1.0000
  H   H103      1.0  0.81603  0.55177  0.37617  1.0000
  H   H104      1.0  0.44823  0.26427  0.37617  1.0000
  H   H105      1.0  0.73573  0.18397  0.37617  1.0000
  H   H106      1.0  0.14937  0.21843  0.04283  1.0000
  H   H107      1.0  0.78157  0.93093  0.04283  1.0000
  H   H108      1.0  0.06907  0.85063  0.04283  1.0000
  H   H109      1.0  0.43920  0.00520  0.28680  1.0000
  H   H110      1.0  0.99480  0.43400  0.28680  1.0000
  H   H111      1.0  0.56600  0.56080  0.28680  1.0000
  H   H112      1.0  0.10587  0.33853  0.62013  1.0000
  H   H113      1.0  0.66147  0.76733  0.62013  1.0000
  H   H114      1.0  0.23267  0.89413  0.62013  1.0000
  H   H115      1.0  0.77253  0.67187  0.95347  1.0000
  H   H116      1.0  0.32813  0.10067  0.95347  1.0000
  H   H117      1.0  0.89933  0.22747  0.95347  1.0000
  H   H118      1.0  0.56080  0.99480  0.71320  1.0000
  H   H119      1.0  0.00520  0.56600  0.71320  1.0000
  H   H120      1.0  0.43400  0.43920  0.71320  1.0000
  H   H121      1.0  0.89413  0.66147  0.37987  1.0000
  H   H122      1.0  0.33853  0.23267  0.37987  1.0000
  H   H123      1.0  0.76733  0.10587  0.37987  1.0000
  H   H124      1.0  0.22747  0.32813  0.04653  1.0000
  H   H125      1.0  0.67187  0.89933  0.04653  1.0000
  H   H126      1.0  0.10067  0.77253  0.04653  1.0000
  Fe  Fe1       1.0  0.66670  0.33330  0.33330  1.0000
  Fe  Fe2       1.0  0.33337  0.66663  0.66663  1.0000
  Fe  Fe3       1.0  0.00003  0.99997  0.99997  1.0000
  Mn  Mn1       1.0  0.68895  0.07403  0.26857  1.0000
  Mn  Mn2       1.0  0.92597  0.61492  0.26857  1.0000
  Mn  Mn3       1.0  0.38508  0.31105  0.26857  1.0000
  Mn  Mn4       1.0  0.35562  0.40736  0.60191  1.0000
  Mn  Mn5       1.0  0.59264  0.94825  0.60191  1.0000
  Mn  Mn6       1.0  0.05175  0.64438  0.60191  1.0000
  Mn  Mn7       1.0  0.02228  0.74070  0.93524  1.0000
  Mn  Mn8       1.0  0.25930  0.28159  0.93524  1.0000
  Mn  Mn9       1.0  0.71841  0.97772  0.93524  1.0000
  Mn  Mn10      1.0  0.31105  0.92597  0.73143  1.0000
  Mn  Mn11      1.0  0.07403  0.38508  0.73143  1.0000
  Mn  Mn12      1.0  0.61492  0.68895  0.73143  1.0000
  Mn  Mn13      1.0  0.64438  0.59264  0.39809  1.0000
  Mn  Mn14      1.0  0.40736  0.05175  0.39809  1.0000
  Mn  Mn15      1.0  0.94825  0.35562  0.39809  1.0000
  Mn  Mn16      1.0  0.97772  0.25930  0.06476  1.0000
  Mn  Mn17      1.0  0.74070  0.71841  0.06476  1.0000
  Mn  Mn18      1.0  0.28159  0.02228  0.06476  1.0000
  C   C145      1.0  0.51610  0.06260  0.24614  1.0000
  C   C146      1.0  0.93740  0.45350  0.24614  1.0000
  C   C147      1.0  0.54650  0.48390  0.24614  1.0000
  C   C148      1.0  0.18277  0.39593  0.57947  1.0000
  C   C149      1.0  0.60407  0.78683  0.57947  1.0000
  C   C150      1.0  0.21317  0.81723  0.57947  1.0000
  C   C151      1.0  0.84943  0.72927  0.91281  1.0000
  C   C152      1.0  0.27073  0.12017  0.91281  1.0000
  C   C153      1.0  0.87983  0.15057  0.91281  1.0000
  C   C154      1.0  0.48390  0.93740  0.75386  1.0000
  C   C155      1.0  0.06260  0.54650  0.75386  1.0000
  C   C156      1.0  0.45350  0.51610  0.75386  1.0000
  C   C157      1.0  0.81723  0.60407  0.42053  1.0000
  C   C158      1.0  0.39593  0.21317  0.42053  1.0000
  C   C159      1.0  0.78683  0.18277  0.42053  1.0000
  C   C160      1.0  0.15057  0.27073  0.08719  1.0000
  C   C161      1.0  0.72927  0.87983  0.08719  1.0000
  C   C162      1.0  0.12017  0.84943  0.08719  1.0000
  H   H127      1.0  0.48220  0.99920  0.23630  1.0000
  H   H128      1.0  0.00080  0.48300  0.23630  1.0000
  H   H129      1.0  0.51700  0.51780  0.23630  1.0000
  H   H130      1.0  0.14887  0.33253  0.56963  1.0000
  H   H131      1.0  0.66747  0.81633  0.56963  1.0000
  H   H132      1.0  0.18367  0.85113  0.56963  1.0000
  H   H133      1.0  0.81553  0.66587  0.90297  1.0000
  H   H134      1.0  0.33413  0.14967  0.90297  1.0000
  H   H135      1.0  0.85033  0.18447  0.90297  1.0000
  H   H136      1.0  0.51780  0.00080  0.76370  1.0000
  H   H137      1.0  0.99920  0.51700  0.76370  1.0000
  H   H138      1.0  0.48300  0.48220  0.76370  1.0000
  H   H139      1.0  0.85113  0.66747  0.43037  1.0000
  H   H140      1.0  0.33253  0.18367  0.43037  1.0000
  H   H141      1.0  0.81633  0.14887  0.43037  1.0000
  H   H142      1.0  0.18447  0.33413  0.09703  1.0000
  H   H143      1.0  0.66587  0.85033  0.09703  1.0000
  H   H144      1.0  0.14967  0.81553  0.09703  1.0000
  H   H145      1.0  0.48910  0.10060  0.23770  1.0000
  H   H146      1.0  0.89940  0.38850  0.23770  1.0000
  H   H147      1.0  0.61150  0.51090  0.23770  1.0000
  H   H148      1.0  0.15577  0.43393  0.57103  1.0000
  H   H149      1.0  0.56607  0.72183  0.57103  1.0000
  H   H150      1.0  0.27817  0.84423  0.57103  1.0000
  H   H151      1.0  0.82243  0.76727  0.90437  1.0000
  H   H152      1.0  0.23273  0.05517  0.90437  1.0000
  H   H153      1.0  0.94483  0.17757  0.90437  1.0000
  H   H154      1.0  0.51090  0.89940  0.76230  1.0000
  H   H155      1.0  0.10060  0.61150  0.76230  1.0000
  H   H156      1.0  0.38850  0.48910  0.76230  1.0000
  H   H157      1.0  0.84423  0.56607  0.42897  1.0000
  H   H158      1.0  0.43393  0.27817  0.42897  1.0000
  H   H159      1.0  0.72183  0.15577  0.42897  1.0000
  H   H160      1.0  0.17757  0.23273  0.09563  1.0000
  H   H161      1.0  0.76727  0.94483  0.09563  1.0000
  H   H162      1.0  0.05517  0.82243  0.09563  1.0000
  C   C163      1.0  0.65260  0.16250  0.21438  1.0000
  C   C164      1.0  0.83750  0.49010  0.21438  1.0000
  C   C165      1.0  0.50990  0.34740  0.21438  1.0000
  C   C166      1.0  0.31927  0.49583  0.54771  1.0000
  C   C167      1.0  0.50417  0.82343  0.54771  1.0000
  C   C168      1.0  0.17657  0.68073  0.54771  1.0000
  C   C169      1.0  0.98593  0.82917  0.88105  1.0000
  C   C170      1.0  0.17083  0.15677  0.88105  1.0000
  C   C171      1.0  0.84323  0.01407  0.88105  1.0000
  C   C172      1.0  0.34740  0.83750  0.78562  1.0000
  C   C173      1.0  0.16250  0.50990  0.78562  1.0000
  C   C174      1.0  0.49010  0.65260  0.78562  1.0000
  C   C175      1.0  0.68073  0.50417  0.45229  1.0000
  C   C176      1.0  0.49583  0.17657  0.45229  1.0000
  C   C177      1.0  0.82343  0.31927  0.45229  1.0000
  C   C178      1.0  0.01407  0.17083  0.11895  1.0000
  C   C179      1.0  0.82917  0.84323  0.11895  1.0000
  C   C180      1.0  0.15677  0.98593  0.11895  1.0000
  H   H163      1.0  0.61090  0.17400  0.20210  1.0000
  H   H164      1.0  0.82600  0.43690  0.20210  1.0000
  H   H165      1.0  0.56310  0.38910  0.20210  1.0000
  H   H166      1.0  0.27757  0.50733  0.53543  1.0000
  H   H167      1.0  0.49267  0.77023  0.53543  1.0000
  H   H168      1.0  0.22977  0.72243  0.53543  1.0000
  H   H169      1.0  0.94423  0.84067  0.86877  1.0000
  H   H170      1.0  0.15933  0.10357  0.86877  1.0000
  H   H171      1.0  0.89643  0.05577  0.86877  1.0000
  H   H172      1.0  0.38910  0.82600  0.79790  1.0000
  H   H173      1.0  0.17400  0.56310  0.79790  1.0000
  H   H174      1.0  0.43690  0.61090  0.79790  1.0000
  H   H175      1.0  0.72243  0.49267  0.46457  1.0000
  H   H176      1.0  0.50733  0.22977  0.46457  1.0000
  H   H177      1.0  0.77023  0.27757  0.46457  1.0000
  H   H178      1.0  0.05577  0.15933  0.13123  1.0000
  H   H179      1.0  0.84067  0.89643  0.13123  1.0000
  H   H180      1.0  0.10357  0.94423  0.13123  1.0000
  C   C181      1.0  0.74950  0.20680  0.20432  1.0000
  C   C182      1.0  0.79320  0.54270  0.20432  1.0000
  C   C183      1.0  0.45730  0.25050  0.20432  1.0000
  C   C184      1.0  0.41617  0.54013  0.53765  1.0000
  C   C185      1.0  0.45987  0.87603  0.53765  1.0000
  C   C186      1.0  0.12397  0.58383  0.53765  1.0000
  C   C187      1.0  0.08283  0.87347  0.87099  1.0000
  C   C188      1.0  0.12653  0.20937  0.87099  1.0000
  C   C189      1.0  0.79063  0.91717  0.87099  1.0000
  C   C190      1.0  0.25050  0.79320  0.79568  1.0000
  C   C191      1.0  0.20680  0.45730  0.79568  1.0000
  C   C192      1.0  0.54270  0.74950  0.79568  1.0000
  C   C193      1.0  0.58383  0.45987  0.46235  1.0000
  C   C194      1.0  0.54013  0.12397  0.46235  1.0000
  C   C195      1.0  0.87603  0.41617  0.46235  1.0000
  C   C196      1.0  0.91717  0.12653  0.12901  1.0000
  C   C197      1.0  0.87347  0.79063  0.12901  1.0000
  C   C198      1.0  0.20937  0.08283  0.12901  1.0000
  C   C199      1.0  0.77610  0.26630  0.17756  1.0000
  C   C200      1.0  0.73370  0.50980  0.17756  1.0000
  C   C201      1.0  0.49020  0.22390  0.17756  1.0000
  C   C202      1.0  0.44277  0.59963  0.51089  1.0000
  C   C203      1.0  0.40037  0.84313  0.51089  1.0000
  C   C204      1.0  0.15687  0.55723  0.51089  1.0000
  C   C205      1.0  0.10943  0.93297  0.84423  1.0000
  C   C206      1.0  0.06703  0.17647  0.84423  1.0000
  C   C207      1.0  0.82353  0.89057  0.84423  1.0000
  C   C208      1.0  0.22390  0.73370  0.82244  1.0000
  C   C209      1.0  0.26630  0.49020  0.82244  1.0000
  C   C210      1.0  0.50980  0.77610  0.82244  1.0000
  C   C211      1.0  0.55723  0.40037  0.48911  1.0000
  C   C212      1.0  0.59963  0.15687  0.48911  1.0000
  C   C213      1.0  0.84313  0.44277  0.48911  1.0000
  C   C214      1.0  0.89057  0.06703  0.15577  1.0000
  C   C215      1.0  0.93297  0.82353  0.15577  1.0000
  C   C216      1.0  0.17647  0.10943  0.15577  1.0000
  H   H181      1.0  0.72930  0.27490  0.16720  1.0000
  H   H182      1.0  0.72510  0.45440  0.16720  1.0000
  H   H183      1.0  0.54560  0.27070  0.16720  1.0000
  H   H184      1.0  0.39597  0.60823  0.50053  1.0000
  H   H185      1.0  0.39177  0.78773  0.50053  1.0000
  H   H186      1.0  0.21227  0.60403  0.50053  1.0000
  H   H187      1.0  0.06263  0.94157  0.83387  1.0000
  H   H188      1.0  0.05843  0.12107  0.83387  1.0000
  H   H189      1.0  0.87893  0.93737  0.83387  1.0000
  H   H190      1.0  0.27070  0.72510  0.83280  1.0000
  H   H191      1.0  0.27490  0.54560  0.83280  1.0000
  H   H192      1.0  0.45440  0.72930  0.83280  1.0000
  H   H193      1.0  0.60403  0.39177  0.49947  1.0000
  H   H194      1.0  0.60823  0.21227  0.49947  1.0000
  H   H195      1.0  0.78773  0.39597  0.49947  1.0000
  H   H196      1.0  0.93737  0.05843  0.16613  1.0000
  H   H197      1.0  0.94157  0.87893  0.16613  1.0000
  H   H198      1.0  0.12107  0.06263  0.16613  1.0000
  C   C217      1.0  0.86470  0.31130  0.16600  1.0000
  C   C218      1.0  0.68870  0.55340  0.16600  1.0000
  C   C219      1.0  0.44660  0.13530  0.16600  1.0000
  C   C220      1.0  0.53137  0.64463  0.49933  1.0000
  C   C221      1.0  0.35537  0.88673  0.49933  1.0000
  C   C222      1.0  0.11327  0.46863  0.49933  1.0000
  C   C223      1.0  0.19803  0.97797  0.83267  1.0000
  C   C224      1.0  0.02203  0.22007  0.83267  1.0000
  C   C225      1.0  0.77993  0.80197  0.83267  1.0000
  C   C226      1.0  0.13530  0.68870  0.83400  1.0000
  C   C227      1.0  0.31130  0.44660  0.83400  1.0000
  C   C228      1.0  0.55340  0.86470  0.83400  1.0000
  C   C229      1.0  0.46863  0.35537  0.50067  1.0000
  C   C230      1.0  0.64463  0.11327  0.50067  1.0000
  C   C231      1.0  0.88673  0.53137  0.50067  1.0000
  C   C232      1.0  0.80197  0.02203  0.16733  1.0000
  C   C233      1.0  0.97797  0.77993  0.16733  1.0000
  C   C234      1.0  0.22007  0.19803  0.16733  1.0000
  H   H199      1.0  0.88080  0.35160  0.14810  1.0000
  H   H200      1.0  0.64840  0.52920  0.14810  1.0000
  H   H201      1.0  0.47080  0.11920  0.14810  1.0000
  H   H202      1.0  0.54747  0.68493  0.48143  1.0000
  H   H203      1.0  0.31507  0.86253  0.48143  1.0000
  H   H204      1.0  0.13747  0.45253  0.48143  1.0000
  H   H205      1.0  0.21413  0.01827  0.81477  1.0000
  H   H206      1.0  0.98173  0.19587  0.81477  1.0000
  H   H207      1.0  0.80413  0.78587  0.81477  1.0000
  H   H208      1.0  0.11920  0.64840  0.85190  1.0000
  H   H209      1.0  0.35160  0.47080  0.85190  1.0000
  H   H210      1.0  0.52920  0.88080  0.85190  1.0000
  H   H211      1.0  0.45253  0.31507  0.51857  1.0000
  H   H212      1.0  0.68493  0.13747  0.51857  1.0000
  H   H213      1.0  0.86253  0.54747  0.51857  1.0000
  H   H214      1.0  0.78587  0.98173  0.18523  1.0000
  H   H215      1.0  0.01827  0.80413  0.18523  1.0000
  H   H216      1.0  0.19587  0.21413  0.18523  1.0000
  C   C235      1.0  0.93300  0.29680  0.18150  1.0000
  C   C236      1.0  0.70320  0.63620  0.18150  1.0000
  C   C237      1.0  0.36380  0.06700  0.18150  1.0000
  C   C238      1.0  0.59967  0.63013  0.51483  1.0000
  C   C239      1.0  0.36987  0.96953  0.51483  1.0000
  C   C240      1.0  0.03047  0.40033  0.51483  1.0000
  C   C241      1.0  0.26633  0.96347  0.84817  1.0000
  C   C242      1.0  0.03653  0.30287  0.84817  1.0000
  C   C243      1.0  0.69713  0.73367  0.84817  1.0000
  C   C244      1.0  0.06700  0.70320  0.81850  1.0000
  C   C245      1.0  0.29680  0.36380  0.81850  1.0000
  C   C246      1.0  0.63620  0.93300  0.81850  1.0000
  C   C247      1.0  0.40033  0.36987  0.48517  1.0000
  C   C248      1.0  0.63013  0.03047  0.48517  1.0000
  C   C249      1.0  0.96953  0.59967  0.48517  1.0000
  C   C250      1.0  0.73367  0.03653  0.15183  1.0000
  C   C251      1.0  0.96347  0.69713  0.15183  1.0000
  C   C252      1.0  0.30287  0.26633  0.15183  1.0000
  H   H217      1.0  0.99610  0.32800  0.17380  1.0000
  H   H218      1.0  0.67200  0.66810  0.17380  1.0000
  H   H219      1.0  0.33190  0.00390  0.17380  1.0000
  H   H220      1.0  0.66277  0.66133  0.50713  1.0000
  H   H221      1.0  0.33867  0.00143  0.50713  1.0000
  H   H222      1.0  0.99857  0.33723  0.50713  1.0000
  H   H223      1.0  0.32943  0.99467  0.84047  1.0000
  H   H224      1.0  0.00533  0.33477  0.84047  1.0000
  H   H225      1.0  0.66523  0.67057  0.84047  1.0000
  H   H226      1.0  0.00390  0.67200  0.82620  1.0000
  H   H227      1.0  0.32800  0.33190  0.82620  1.0000
  H   H228      1.0  0.66810  0.99610  0.82620  1.0000
  H   H229      1.0  0.33723  0.33867  0.49287  1.0000
  H   H230      1.0  0.66133  0.99857  0.49287  1.0000
  H   H231      1.0  0.00143  0.66277  0.49287  1.0000
  H   H232      1.0  0.67057  0.00533  0.15953  1.0000
  H   H233      1.0  0.99467  0.66523  0.15953  1.0000
  H   H234      1.0  0.33477  0.32943  0.15953  1.0000
  C   C253      1.0  0.91030  0.23920  0.20687  1.0000
  C   C254      1.0  0.76080  0.67110  0.20687  1.0000
  C   C255      1.0  0.32890  0.08970  0.20687  1.0000
  C   C256      1.0  0.57697  0.57253  0.54020  1.0000
  C   C257      1.0  0.42747  0.00443  0.54020  1.0000
  C   C258      1.0  0.99557  0.42303  0.54020  1.0000
  C   C259      1.0  0.24363  0.90587  0.87354  1.0000
  C   C260      1.0  0.09413  0.33777  0.87354  1.0000
  C   C261      1.0  0.66223  0.75637  0.87354  1.0000
  C   C262      1.0  0.08970  0.76080  0.79313  1.0000
  C   C263      1.0  0.23920  0.32890  0.79313  1.0000
  C   C264      1.0  0.67110  0.91030  0.79313  1.0000
  C   C265      1.0  0.42303  0.42747  0.45980  1.0000
  C   C266      1.0  0.57253  0.99557  0.45980  1.0000
  C   C267      1.0  0.00443  0.57697  0.45980  1.0000
  C   C268      1.0  0.75637  0.09413  0.12646  1.0000
  C   C269      1.0  0.90587  0.66223  0.12646  1.0000
  C   C270      1.0  0.33777  0.24363  0.12646  1.0000
  H   H235      1.0  0.95820  0.23160  0.21680  1.0000
  H   H236      1.0  0.76840  0.72660  0.21680  1.0000
  H   H237      1.0  0.27340  0.04180  0.21680  1.0000
  H   H238      1.0  0.62487  0.56493  0.55013  1.0000
  H   H239      1.0  0.43507  0.05993  0.55013  1.0000
  H   H240      1.0  0.94007  0.37513  0.55013  1.0000
  H   H241      1.0  0.29153  0.89827  0.88347  1.0000
  H   H242      1.0  0.10173  0.39327  0.88347  1.0000
  H   H243      1.0  0.60673  0.70847  0.88347  1.0000
  H   H244      1.0  0.04180  0.76840  0.78320  1.0000
  H   H245      1.0  0.23160  0.27340  0.78320  1.0000
  H   H246      1.0  0.72660  0.95820  0.78320  1.0000
  H   H247      1.0  0.37513  0.43507  0.44987  1.0000
  H   H248      1.0  0.56493  0.94007  0.44987  1.0000
  H   H249      1.0  0.05993  0.62487  0.44987  1.0000
  H   H250      1.0  0.70847  0.10173  0.11653  1.0000
  H   H251      1.0  0.89827  0.60673  0.11653  1.0000
  H   H252      1.0  0.39327  0.29153  0.11653  1.0000
  C   C271      1.0  0.81740  0.19000  0.21923  1.0000
  C   C272      1.0  0.81000  0.62740  0.21923  1.0000
  C   C273      1.0  0.37260  0.18260  0.21923  1.0000
  C   C274      1.0  0.48407  0.52333  0.55256  1.0000
  C   C275      1.0  0.47667  0.96073  0.55256  1.0000
  C   C276      1.0  0.03927  0.51593  0.55256  1.0000
  C   C277      1.0  0.15073  0.85667  0.88590  1.0000
  C   C278      1.0  0.14333  0.29407  0.88590  1.0000
  C   C279      1.0  0.70593  0.84927  0.88590  1.0000
  C   C280      1.0  0.18260  0.81000  0.78077  1.0000
  C   C281      1.0  0.19000  0.37260  0.78077  1.0000
  C   C282      1.0  0.62740  0.81740  0.78077  1.0000
  C   C283      1.0  0.51593  0.47667  0.44744  1.0000
  C   C284      1.0  0.52333  0.03927  0.44744  1.0000
  C   C285      1.0  0.96073  0.48407  0.44744  1.0000
  C   C286      1.0  0.84927  0.14333  0.11410  1.0000
  C   C287      1.0  0.85667  0.70593  0.11410  1.0000
  C   C288      1.0  0.29407  0.15073  0.11410  1.0000
  C   C289      1.0  0.56080  0.87430  0.22577  1.0000
  C   C290      1.0  0.12570  0.68650  0.22577  1.0000
  C   C291      1.0  0.31350  0.43920  0.22577  1.0000
  C   C292      1.0  0.22747  0.20763  0.55910  1.0000
  C   C293      1.0  0.79237  0.01983  0.55910  1.0000
  C   C294      1.0  0.98017  0.77253  0.55910  1.0000
  C   C295      1.0  0.89413  0.54097  0.89244  1.0000
  C   C296      1.0  0.45903  0.35317  0.89244  1.0000
  C   C297      1.0  0.64683  0.10587  0.89244  1.0000
  C   C298      1.0  0.43920  0.12570  0.77423  1.0000
  C   C299      1.0  0.87430  0.31350  0.77423  1.0000
  C   C300      1.0  0.68650  0.56080  0.77423  1.0000
  C   C301      1.0  0.77253  0.79237  0.44090  1.0000
  C   C302      1.0  0.20763  0.98017  0.44090  1.0000
  C   C303      1.0  0.01983  0.22747  0.44090  1.0000
  C   C304      1.0  0.10587  0.45903  0.10756  1.0000
  C   C305      1.0  0.54097  0.64683  0.10756  1.0000
  C   C306      1.0  0.35317  0.89413  0.10756  1.0000
  C   C307      1.0  0.70920  0.26280  0.30799  1.0000
  C   C308      1.0  0.73720  0.44640  0.30799  1.0000
  C   C309      1.0  0.55360  0.29080  0.30799  1.0000
  C   C310      1.0  0.37587  0.59613  0.64132  1.0000
  C   C311      1.0  0.40387  0.77973  0.64132  1.0000
  C   C312      1.0  0.22027  0.62413  0.64132  1.0000
  C   C313      1.0  0.04253  0.92947  0.97466  1.0000
  C   C314      1.0  0.07053  0.11307  0.97466  1.0000
  C   C315      1.0  0.88693  0.95747  0.97466  1.0000
  C   C316      1.0  0.29080  0.73720  0.69201  1.0000
  C   C317      1.0  0.26280  0.55360  0.69201  1.0000
  C   C318      1.0  0.44640  0.70920  0.69201  1.0000
  C   C319      1.0  0.62413  0.40387  0.35868  1.0000
  C   C320      1.0  0.59613  0.22027  0.35868  1.0000
  C   C321      1.0  0.77973  0.37587  0.35868  1.0000
  C   C322      1.0  0.95747  0.07053  0.02534  1.0000
  C   C323      1.0  0.92947  0.88693  0.02534  1.0000
  C   C324      1.0  0.11307  0.04253  0.02534  1.0000
  Nb  Nb1       1.0  0.44192  0.76525  0.19503  1.0000
  Nb  Nb2       1.0  0.23475  0.67667  0.19503  1.0000
  Nb  Nb3       1.0  0.32333  0.55808  0.19503  1.0000
  Nb  Nb4       1.0  0.10859  0.09858  0.52837  1.0000
  Nb  Nb5       1.0  0.90142  0.01000  0.52837  1.0000
  Nb  Nb6       1.0  0.99000  0.89141  0.52837  1.0000
  Nb  Nb7       1.0  0.77525  0.43192  0.86170  1.0000
  Nb  Nb8       1.0  0.56808  0.34334  0.86170  1.0000
  Nb  Nb9       1.0  0.65666  0.22475  0.86170  1.0000
  Nb  Nb10      1.0  0.55808  0.23475  0.80497  1.0000
  Nb  Nb11      1.0  0.76525  0.32333  0.80497  1.0000
  Nb  Nb12      1.0  0.67667  0.44192  0.80497  1.0000
  Nb  Nb13      1.0  0.89141  0.90142  0.47163  1.0000
  Nb  Nb14      1.0  0.09858  0.99000  0.47163  1.0000
  Nb  Nb15      1.0  0.01000  0.10859  0.47163  1.0000
  Nb  Nb16      1.0  0.22475  0.56808  0.13830  1.0000
  Nb  Nb17      1.0  0.43192  0.65666  0.13830  1.0000
  Nb  Nb18      1.0  0.34334  0.77525  0.13830  1.0000
