data_image0
_chemical_formula_structural       Cu4O20C10H6C4H6C2H6C2H6C2H6
_chemical_formula_sum              "Cu4 O20 C20 H30"
_cell_length_a       8.0542
_cell_length_b       8.1633
_cell_length_c       16.7195
_cell_angle_alpha    98.126
_cell_angle_beta     94.745
_cell_angle_gamma    92.964

_space_group_name_H-M_alt    "P 1"
_space_group_IT_number       1

loop_
  _space_group_symop_operation_xyz
  'x, y, z'

loop_
  _atom_site_type_symbol
  _atom_site_label
  _atom_site_symmetry_multiplicity
  _atom_site_fract_x
  _atom_site_fract_y
  _atom_site_fract_z
  _atom_site_occupancy
  Cu  Cu1       1.0  0.92345  0.99123  0.92550  1.0000
  Cu  Cu2       1.0  0.07655  0.00877  0.07450  1.0000
  Cu  Cu3       1.0  0.56051  0.98913  0.57530  1.0000
  Cu  Cu4       1.0  0.43949  0.01087  0.42470  1.0000
  O   O1        1.0  0.74810  0.89380  0.52154  1.0000
  O   O2        1.0  0.25190  0.10620  0.47846  1.0000
  O   O3        1.0  0.76150  0.99830  0.82103  1.0000
  O   O4        1.0  0.23850  0.00170  0.17897  1.0000
  O   O5        1.0  0.13560  0.09280  0.89944  1.0000
  O   O6        1.0  0.86440  0.90720  0.10056  1.0000
  O   O7        1.0  0.65060  0.91560  0.39488  1.0000
  O   O8        1.0  0.34940  0.08440  0.60512  1.0000
  O   O9        1.0  0.85870  0.21040  0.97397  1.0000
  O   O10       1.0  0.14130  0.78960  0.02603  1.0000
  O   O11       1.0  0.64740  0.01140  0.69902  1.0000
  O   O12       1.0  0.35260  0.98860  0.30098  1.0000
  O   O13       1.0  0.44170  0.76820  0.55935  1.0000
  O   O14       1.0  0.55830  0.23180  0.44065  1.0000
  O   O15       1.0  0.34470  0.78620  0.43204  1.0000
  O   O16       1.0  0.65530  0.21380  0.56796  1.0000
  O   O17       1.0  0.26100  0.11540  0.02491  1.0000
  O   O18       1.0  0.73900  0.88460  0.97509  1.0000
  O   O19       1.0  0.98490  0.22830  0.09893  1.0000
  O   O20       1.0  0.01510  0.77170  0.90107  1.0000
  C   C1        1.0  0.75870  0.87780  0.44641  1.0000
  C   C2        1.0  0.24130  0.12220  0.55359  1.0000
  C   C3        1.0  0.25860  0.13060  0.95090  1.0000
  C   C4        1.0  0.74140  0.86940  0.04910  1.0000
  C   C5        1.0  0.36050  0.71270  0.49278  1.0000
  C   C6        1.0  0.63950  0.28730  0.50722  1.0000
  C   C7        1.0  0.89350  0.28170  0.04474  1.0000
  C   C8        1.0  0.10650  0.71830  0.95526  1.0000
  C   C9        1.0  0.81850  0.44510  0.06738  1.0000
  C   C10       1.0  0.18150  0.55490  0.93262  1.0000
  H   H1        1.0  0.90040  0.53600  0.06330  1.0000
  H   H2        1.0  0.09960  0.46400  0.93670  1.0000
  H   H3        1.0  0.78740  0.45370  0.12320  1.0000
  H   H4        1.0  0.21260  0.54630  0.87680  1.0000
  H   H5        1.0  0.71900  0.45220  0.03040  1.0000
  H   H6        1.0  0.28100  0.54780  0.96960  1.0000
  C   C11       1.0  0.75980  0.96630  0.74538  1.0000
  C   C12       1.0  0.24020  0.03370  0.25462  1.0000
  C   C13       1.0  0.91540  0.81030  0.41572  1.0000
  C   C14       1.0  0.08460  0.18970  0.58428  1.0000
  H   H7        1.0  0.89670  0.77340  0.35710  1.0000
  H   H8        1.0  0.10330  0.22660  0.64290  1.0000
  H   H9        1.0  0.94540  0.71620  0.44320  1.0000
  H   H10       1.0  0.05460  0.28380  0.55680  1.0000
  H   H11       1.0  0.00640  0.89710  0.42680  1.0000
  H   H12       1.0  0.99360  0.10290  0.57320  1.0000
  C   C15       1.0  0.41710  0.19980  0.92301  1.0000
  C   C16       1.0  0.58290  0.80020  0.07699  1.0000
  H   H13       1.0  0.50080  0.11680  0.92230  1.0000
  H   H14       1.0  0.49920  0.88320  0.07770  1.0000
  H   H15       1.0  0.45930  0.29960  0.96020  1.0000
  H   H16       1.0  0.54070  0.70040  0.03980  1.0000
  H   H17       1.0  0.39440  0.22800  0.86830  1.0000
  H   H18       1.0  0.60560  0.77200  0.13170  1.0000
  C   C17       1.0  0.27430  0.54230  0.48470  1.0000
  C   C18       1.0  0.72570  0.45770  0.51530  1.0000
  H   H19       1.0  0.34180  0.47240  0.51580  1.0000
  H   H20       1.0  0.65820  0.52760  0.48420  1.0000
  H   H21       1.0  0.26050  0.49300  0.42740  1.0000
  H   H22       1.0  0.73950  0.50700  0.57260  1.0000
  H   H23       1.0  0.16440  0.55060  0.50560  1.0000
  H   H24       1.0  0.83560  0.44940  0.49440  1.0000
  C   C19       1.0  0.89760  0.87060  0.71030  1.0000
  C   C20       1.0  0.10240  0.12940  0.28970  1.0000
  H   H25       1.0  0.86100  0.81960  0.65460  1.0000
  H   H26       1.0  0.13900  0.18040  0.34540  1.0000
  H   H27       1.0  0.92530  0.78380  0.74320  1.0000
  H   H28       1.0  0.07470  0.21620  0.25680  1.0000
  H   H29       1.0  0.99640  0.94580  0.71020  1.0000
  H   H30       1.0  0.00360  0.05420  0.28980  1.0000
