data_image0
_chemical_formula_structural       C8H12C8H12C8H12C8H12Cl4Cu8O32
_chemical_formula_sum              "C32 H48 Cl4 Cu8 O32"
_cell_length_a       8.438
_cell_length_b       16.315
_cell_length_c       15.131
_cell_angle_alpha    90
_cell_angle_beta     96.53
_cell_angle_gamma    90

_space_group_name_H-M_alt    "P 1"
_space_group_IT_number       1

loop_
  _space_group_symop_operation_xyz
  'x, y, z'

loop_
  _atom_site_type_symbol
  _atom_site_label
  _atom_site_symmetry_multiplicity
  _atom_site_fract_x
  _atom_site_fract_y
  _atom_site_fract_z
  _atom_site_occupancy
  C   C1        1.0  0.72680  0.56470  0.48960  1.0000
  C   C2        1.0  0.27320  0.06470  0.01040  1.0000
  C   C3        1.0  0.27320  0.43530  0.51040  1.0000
  C   C4        1.0  0.72680  0.93530  0.98960  1.0000
  C   C5        1.0  0.56180  0.60170  0.48360  1.0000
  C   C6        1.0  0.43820  0.10170  0.01640  1.0000
  C   C7        1.0  0.43820  0.39830  0.51640  1.0000
  C   C8        1.0  0.56180  0.89830  0.98360  1.0000
  H   H1        1.0  0.57040  0.66100  0.49380  1.0000
  H   H2        1.0  0.42960  0.16100  0.00620  1.0000
  H   H3        1.0  0.42960  0.33900  0.50620  1.0000
  H   H4        1.0  0.57040  0.83900  0.99380  1.0000
  H   H5        1.0  0.50250  0.57690  0.52890  1.0000
  H   H6        1.0  0.49750  0.07690  0.97110  1.0000
  H   H7        1.0  0.49750  0.42310  0.47110  1.0000
  H   H8        1.0  0.50250  0.92310  0.02890  1.0000
  H   H9        1.0  0.50550  0.59130  0.42450  1.0000
  H   H10       1.0  0.49450  0.09130  0.07550  1.0000
  H   H11       1.0  0.49450  0.40870  0.57550  1.0000
  H   H12       1.0  0.50550  0.90870  0.92450  1.0000
  C   C9        1.0  0.87050  0.35950  0.50440  1.0000
  C   C10       1.0  0.12950  0.85950  0.99560  1.0000
  C   C11       1.0  0.12950  0.64050  0.49560  1.0000
  C   C12       1.0  0.87050  0.14050  0.00440  1.0000
  C   C13       1.0  0.79160  0.27700  0.50830  1.0000
  C   C14       1.0  0.20840  0.77700  0.99170  1.0000
  C   C15       1.0  0.20840  0.72300  0.49170  1.0000
  C   C16       1.0  0.79160  0.22300  0.00830  1.0000
  H   H13       1.0  0.74230  0.26180  0.44880  1.0000
  H   H14       1.0  0.25770  0.76180  0.05120  1.0000
  H   H15       1.0  0.25770  0.73820  0.55120  1.0000
  H   H16       1.0  0.74230  0.23820  0.94880  1.0000
  H   H17       1.0  0.70960  0.27960  0.54910  1.0000
  H   H18       1.0  0.29040  0.77960  0.95090  1.0000
  H   H19       1.0  0.29040  0.72040  0.45090  1.0000
  H   H20       1.0  0.70960  0.22040  0.04910  1.0000
  H   H21       1.0  0.87170  0.23590  0.52950  1.0000
  H   H22       1.0  0.12830  0.73590  0.97050  1.0000
  H   H23       1.0  0.12830  0.76410  0.47050  1.0000
  H   H24       1.0  0.87170  0.26410  0.02950  1.0000
  C   C17       1.0  0.72380  0.43730  0.96650  1.0000
  C   C18       1.0  0.27620  0.93730  0.53350  1.0000
  C   C19       1.0  0.27620  0.56270  0.03350  1.0000
  C   C20       1.0  0.72380  0.06270  0.46650  1.0000
  C   C21       1.0  0.55830  0.40330  0.94590  1.0000
  C   C22       1.0  0.44170  0.90330  0.55410  1.0000
  C   C23       1.0  0.44170  0.59670  0.05410  1.0000
  C   C24       1.0  0.55830  0.09670  0.44590  1.0000
  H   H25       1.0  0.48310  0.44840  0.93140  1.0000
  H   H26       1.0  0.51690  0.94840  0.56860  1.0000
  H   H27       1.0  0.51690  0.55160  0.06860  1.0000
  H   H28       1.0  0.48310  0.05160  0.43140  1.0000
  H   H29       1.0  0.52860  0.37350  0.99770  1.0000
  H   H30       1.0  0.47140  0.87350  0.50230  1.0000
  H   H31       1.0  0.47140  0.62650  0.00230  1.0000
  H   H32       1.0  0.52860  0.12650  0.49770  1.0000
  H   H33       1.0  0.55530  0.36590  0.89500  1.0000
  H   H34       1.0  0.44470  0.86590  0.60500  1.0000
  H   H35       1.0  0.44470  0.63410  0.10500  1.0000
  H   H36       1.0  0.55530  0.13410  0.39500  1.0000
  C   C25       1.0  0.12610  0.35980  0.00570  1.0000
  C   C26       1.0  0.87390  0.85980  0.49430  1.0000
  C   C27       1.0  0.87390  0.64020  0.99430  1.0000
  C   C28       1.0  0.12610  0.14020  0.50570  1.0000
  C   C29       1.0  0.20800  0.27690  0.01070  1.0000
  C   C30       1.0  0.79200  0.77690  0.48930  1.0000
  C   C31       1.0  0.79200  0.72310  0.98930  1.0000
  C   C32       1.0  0.20800  0.22310  0.51070  1.0000
  H   H37       1.0  0.17340  0.24530  0.06010  1.0000
  H   H38       1.0  0.82660  0.74530  0.43990  1.0000
  H   H39       1.0  0.82660  0.75470  0.93990  1.0000
  H   H40       1.0  0.17340  0.25470  0.56010  1.0000
  H   H41       1.0  0.32390  0.28460  0.02030  1.0000
  H   H42       1.0  0.67610  0.78460  0.47970  1.0000
  H   H43       1.0  0.67610  0.71540  0.97970  1.0000
  H   H44       1.0  0.32390  0.21540  0.52030  1.0000
  H   H45       1.0  0.17960  0.24720  0.95480  1.0000
  H   H46       1.0  0.82040  0.74720  0.54520  1.0000
  H   H47       1.0  0.82040  0.75280  0.04520  1.0000
  H   H48       1.0  0.17960  0.25280  0.45480  1.0000
  Cl  Cl1       1.0  0.96220  0.49055  0.24814  1.0000
  Cl  Cl2       1.0  0.03780  0.99055  0.25186  1.0000
  Cl  Cl3       1.0  0.03780  0.50945  0.75186  1.0000
  Cl  Cl4       1.0  0.96220  0.00945  0.74814  1.0000
  Cu  Cu1       1.0  0.98839  0.49546  0.41183  1.0000
  Cu  Cu2       1.0  0.01161  0.99546  0.08817  1.0000
  Cu  Cu3       1.0  0.01161  0.50454  0.58817  1.0000
  Cu  Cu4       1.0  0.98839  0.00454  0.91183  1.0000
  Cu  Cu5       1.0  0.98635  0.49562  0.08689  1.0000
  Cu  Cu6       1.0  0.01365  0.99562  0.41311  1.0000
  Cu  Cu7       1.0  0.01365  0.50438  0.91311  1.0000
  Cu  Cu8       1.0  0.98635  0.00438  0.58689  1.0000
  O   O1        1.0  0.78000  0.54560  0.41940  1.0000
  O   O2        1.0  0.22000  0.04560  0.08060  1.0000
  O   O3        1.0  0.22000  0.45440  0.58060  1.0000
  O   O4        1.0  0.78000  0.95440  0.91940  1.0000
  O   O5        1.0  0.79910  0.55500  0.56710  1.0000
  O   O6        1.0  0.20090  0.05500  0.93290  1.0000
  O   O7        1.0  0.20090  0.44500  0.43290  1.0000
  O   O8        1.0  0.79910  0.94500  0.06710  1.0000
  O   O9        1.0  0.89070  0.38730  0.43020  1.0000
  O   O10       1.0  0.10930  0.88730  0.06980  1.0000
  O   O11       1.0  0.10930  0.61270  0.56980  1.0000
  O   O12       1.0  0.89070  0.11270  0.93020  1.0000
  O   O13       1.0  0.90750  0.39490  0.57800  1.0000
  O   O14       1.0  0.09250  0.89490  0.92200  1.0000
  O   O15       1.0  0.09250  0.60510  0.42200  1.0000
  O   O16       1.0  0.90750  0.10510  0.07800  1.0000
  O   O17       1.0  0.77700  0.44780  0.04620  1.0000
  O   O18       1.0  0.22300  0.94780  0.45380  1.0000
  O   O19       1.0  0.22300  0.55220  0.95380  1.0000
  O   O20       1.0  0.77700  0.05220  0.54620  1.0000
  O   O21       1.0  0.79890  0.45480  0.90200  1.0000
  O   O22       1.0  0.20110  0.95480  0.59800  1.0000
  O   O23       1.0  0.20110  0.54520  0.09800  1.0000
  O   O24       1.0  0.79890  0.04520  0.40200  1.0000
  O   O25       1.0  0.08690  0.38770  0.07740  1.0000
  O   O26       1.0  0.91310  0.88770  0.42260  1.0000
  O   O27       1.0  0.91310  0.61230  0.92260  1.0000
  O   O28       1.0  0.08690  0.11230  0.57740  1.0000
  O   O29       1.0  0.10900  0.39480  0.93260  1.0000
  O   O30       1.0  0.89100  0.89480  0.56740  1.0000
  O   O31       1.0  0.89100  0.60520  0.06740  1.0000
  O   O32       1.0  0.10900  0.10520  0.43260  1.0000
