data_image0
_chemical_formula_structural       Cu4O32C12H4C12H4C16
_chemical_formula_sum              "Cu4 O32 C40 H8"
_cell_length_a       7.3937
_cell_length_b       18.4414
_cell_length_c       11.3607
_cell_angle_alpha    90
_cell_angle_beta     94.783
_cell_angle_gamma    90

_space_group_name_H-M_alt    "P 1"
_space_group_IT_number       1

loop_
  _space_group_symop_operation_xyz
  'x, y, z'

loop_
  _atom_site_type_symbol
  _atom_site_label
  _atom_site_symmetry_multiplicity
  _atom_site_fract_x
  _atom_site_fract_y
  _atom_site_fract_z
  _atom_site_occupancy
  Cu  Cu1       1.0  0.98260  0.74312  0.99904  1.0000
  Cu  Cu2       1.0  0.01740  0.24312  0.50096  1.0000
  Cu  Cu3       1.0  0.01740  0.25688  0.00096  1.0000
  Cu  Cu4       1.0  0.98260  0.75688  0.49904  1.0000
  O   O1        1.0  0.00080  0.81812  0.12002  1.0000
  O   O2        1.0  0.99920  0.31812  0.37998  1.0000
  O   O3        1.0  0.99920  0.18188  0.87998  1.0000
  O   O4        1.0  0.00080  0.68188  0.62002  1.0000
  O   O5        1.0  0.72149  0.85964  0.06384  1.0000
  O   O6        1.0  0.27851  0.35964  0.43616  1.0000
  O   O7        1.0  0.27851  0.14036  0.93616  1.0000
  O   O8        1.0  0.72149  0.64036  0.56384  1.0000
  O   O9        1.0  0.95242  0.16759  0.38554  1.0000
  O   O10       1.0  0.04758  0.66759  0.11446  1.0000
  O   O11       1.0  0.04758  0.83241  0.61446  1.0000
  O   O12       1.0  0.95242  0.33241  0.88554  1.0000
  O   O13       1.0  0.25174  0.15069  0.38605  1.0000
  O   O14       1.0  0.74826  0.65069  0.11395  1.0000
  O   O15       1.0  0.74826  0.84931  0.61395  1.0000
  O   O16       1.0  0.25174  0.34931  0.88605  1.0000
  O   O17       1.0  0.03538  0.18072  0.12061  1.0000
  O   O18       1.0  0.96462  0.68072  0.37939  1.0000
  O   O19       1.0  0.96462  0.81928  0.87939  1.0000
  O   O20       1.0  0.03538  0.31928  0.62061  1.0000
  O   O21       1.0  0.75133  0.14655  0.06256  1.0000
  O   O22       1.0  0.24867  0.64655  0.43744  1.0000
  O   O23       1.0  0.24867  0.85345  0.93744  1.0000
  O   O24       1.0  0.75133  0.35345  0.56256  1.0000
  O   O25       1.0  0.92059  0.83259  0.38281  1.0000
  O   O26       1.0  0.07941  0.33259  0.11719  1.0000
  O   O27       1.0  0.07941  0.16741  0.61719  1.0000
  O   O28       1.0  0.92059  0.66741  0.88281  1.0000
  O   O29       1.0  0.22206  0.84199  0.38507  1.0000
  O   O30       1.0  0.77794  0.34199  0.11493  1.0000
  O   O31       1.0  0.77794  0.15801  0.61493  1.0000
  O   O32       1.0  0.22206  0.65801  0.88507  1.0000
  C   C1        1.0  0.87520  0.86592  0.11718  1.0000
  C   C2        1.0  0.12480  0.36592  0.38282  1.0000
  C   C3        1.0  0.12480  0.13408  0.88282  1.0000
  C   C4        1.0  0.87520  0.63408  0.61718  1.0000
  C   C5        1.0  0.92770  0.93511  0.18051  1.0000
  C   C6        1.0  0.07230  0.43511  0.31949  1.0000
  C   C7        1.0  0.07230  0.06489  0.81949  1.0000
  C   C8        1.0  0.92770  0.56489  0.68051  1.0000
  C   C9        1.0  0.88110  0.00135  0.12768  1.0000
  C   C10       1.0  0.11890  0.50135  0.37232  1.0000
  C   C11       1.0  0.11890  0.99865  0.87232  1.0000
  C   C12       1.0  0.88110  0.49865  0.62768  1.0000
  H   H1        1.0  0.80760  0.00250  0.05500  1.0000
  H   H2        1.0  0.19240  0.50250  0.44500  1.0000
  H   H3        1.0  0.19240  0.99750  0.94500  1.0000
  H   H4        1.0  0.80760  0.49750  0.55500  1.0000
  C   C13       1.0  0.09340  0.13317  0.35678  1.0000
  C   C14       1.0  0.90660  0.63317  0.14322  1.0000
  C   C15       1.0  0.90660  0.86683  0.64322  1.0000
  C   C16       1.0  0.09340  0.36683  0.85678  1.0000
  C   C17       1.0  0.04780  0.06440  0.28902  1.0000
  C   C18       1.0  0.95220  0.56440  0.21098  1.0000
  C   C19       1.0  0.95220  0.93560  0.71098  1.0000
  C   C20       1.0  0.04780  0.43560  0.78902  1.0000
  C   C21       1.0  0.09520  0.99801  0.34200  1.0000
  C   C22       1.0  0.90480  0.49801  0.15800  1.0000
  C   C23       1.0  0.90480  0.00199  0.65800  1.0000
  C   C24       1.0  0.09520  0.50199  0.84200  1.0000
  H   H5        1.0  0.16930  0.99680  0.41440  1.0000
  H   H6        1.0  0.83070  0.49680  0.08560  1.0000
  H   H7        1.0  0.83070  0.00320  0.58560  1.0000
  H   H8        1.0  0.16930  0.50320  0.91440  1.0000
  C   C25       1.0  0.94200  0.06609  0.18101  1.0000
  C   C26       1.0  0.05800  0.56609  0.31899  1.0000
  C   C27       1.0  0.05800  0.93391  0.81899  1.0000
  C   C28       1.0  0.94200  0.43391  0.68101  1.0000
  C   C29       1.0  0.90250  0.13636  0.11720  1.0000
  C   C30       1.0  0.09750  0.63636  0.38280  1.0000
  C   C31       1.0  0.09750  0.86364  0.88280  1.0000
  C   C32       1.0  0.90250  0.36364  0.61720  1.0000
  C   C33       1.0  0.06680  0.86353  0.35520  1.0000
  C   C34       1.0  0.93320  0.36353  0.14480  1.0000
  C   C35       1.0  0.93320  0.13647  0.64480  1.0000
  C   C36       1.0  0.06680  0.63647  0.85520  1.0000
  C   C37       1.0  0.03380  0.93355  0.28862  1.0000
  C   C38       1.0  0.96620  0.43355  0.21138  1.0000
  C   C39       1.0  0.96620  0.06645  0.71138  1.0000
  C   C40       1.0  0.03380  0.56645  0.78862  1.0000
