data_image0
_chemical_formula_structural       Cu2O4C4O2C4O2C8H2C2H2C2O10H4
_chemical_formula_sum              "Cu2 O18 C20 H8"
_cell_length_a       9.2104
_cell_length_b       9.4058
_cell_length_c       10.225
_cell_angle_alpha    75
_cell_angle_beta     75.5
_cell_angle_gamma    75.15

_space_group_name_H-M_alt    "P 1"
_space_group_IT_number       1

loop_
  _space_group_symop_operation_xyz
  'x, y, z'

loop_
  _atom_site_type_symbol
  _atom_site_label
  _atom_site_symmetry_multiplicity
  _atom_site_fract_x
  _atom_site_fract_y
  _atom_site_fract_z
  _atom_site_occupancy
  Cu  Cu1       1.0  0.99060  0.28496  0.76066  1.0000
  Cu  Cu2       1.0  0.00940  0.71504  0.23934  1.0000
  O   O1        1.0  0.13784  0.37928  0.61569  1.0000
  O   O2        1.0  0.86216  0.62072  0.38431  1.0000
  O   O3        1.0  0.14910  0.16153  0.86459  1.0000
  O   O4        1.0  0.85090  0.83847  0.13541  1.0000
  C   C1        1.0  0.26920  0.31910  0.55998  1.0000
  C   C2        1.0  0.73080  0.68090  0.44002  1.0000
  C   C3        1.0  0.24273  0.21590  0.90039  1.0000
  C   C4        1.0  0.75727  0.78410  0.09961  1.0000
  O   O5        1.0  0.31200  0.18912  0.53910  1.0000
  O   O6        1.0  0.68800  0.81088  0.46090  1.0000
  C   C5        1.0  0.38756  0.41587  0.52142  1.0000
  C   C6        1.0  0.61244  0.58413  0.47858  1.0000
  C   C7        1.0  0.37335  0.10337  0.95619  1.0000
  C   C8        1.0  0.62665  0.89663  0.04381  1.0000
  O   O7        1.0  0.23888  0.35098  0.89015  1.0000
  O   O8        1.0  0.76112  0.64902  0.10985  1.0000
  C   C9        1.0  0.53356  0.34628  0.54472  1.0000
  C   C10       1.0  0.46644  0.65372  0.45528  1.0000
  C   C11       1.0  0.35306  0.57210  0.47571  1.0000
  C   C12       1.0  0.64694  0.42790  0.52429  1.0000
  C   C13       1.0  0.51940  0.13567  0.91228  1.0000
  C   C14       1.0  0.48060  0.86433  0.08772  1.0000
  C   C15       1.0  0.35329  0.96669  0.04649  1.0000
  C   C16       1.0  0.64671  0.03331  0.95351  1.0000
  H   H1        1.0  0.55800  0.24000  0.57700  1.0000
  H   H2        1.0  0.44200  0.76000  0.42300  1.0000
  C   C17       1.0  0.20388  0.65618  0.43197  1.0000
  C   C18       1.0  0.79612  0.34382  0.56803  1.0000
  H   H3        1.0  0.53300  0.22800  0.84900  1.0000
  H   H4        1.0  0.46700  0.77200  0.15100  1.0000
  C   C19       1.0  0.19666  0.93269  0.11373  1.0000
  C   C20       1.0  0.80334  0.06731  0.88627  1.0000
  O   O9        1.0  0.17172  0.60620  0.34119  1.0000
  O   O10       1.0  0.82828  0.39380  0.65881  1.0000
  O   O11       1.0  0.12960  0.76978  0.47644  1.0000
  O   O12       1.0  0.87040  0.23022  0.52356  1.0000
  O   O13       1.0  0.17274  0.80931  0.10368  1.0000
  O   O14       1.0  0.82726  0.19069  0.89632  1.0000
  O   O15       1.0  0.10546  0.02207  0.18159  1.0000
  O   O16       1.0  0.89454  0.97793  0.81841  1.0000
  O   O17       1.0  0.05851  0.52796  0.12284  1.0000
  O   O18       1.0  0.94149  0.47204  0.87716  1.0000
  H   H5        1.0  0.97140  0.54180  0.10940  1.0000
  H   H6        1.0  0.02860  0.45820  0.89060  1.0000
  H   H7        1.0  0.08060  0.44250  0.16810  1.0000
  H   H8        1.0  0.91940  0.55750  0.83190  1.0000
