data_image0
_chemical_formula_structural       C4H8C4H8C4H8C4H8C4H4C4H4C20H12C4H12C4H12C12H12C4H12C4H12C12H12C4H12C4H12C12H12C4H12C4H12C12H12C4H12C4H12C12H12C4H12C4H12C4H4C4H4C4H4C4H4C20H12C4H12C4H12C12H12C4H12C4H12C12H12C4H12C4H12C12H12C4H12C4H12C12H12C4H12C4H12C12H12C4H12C4H12C12H12C4H12C4H12C12H12C4H12C4H12C4H4C4H4Cr12Ni4Cr16Cu4F32N16O156
_chemical_formula_sum              "C344 H568 Cr28 Ni4 Cu4 F32 N16 O156"
_cell_length_a       16.9352
_cell_length_b       29.4007
_cell_length_c       29.414
_cell_angle_alpha    90
_cell_angle_beta     90.834
_cell_angle_gamma    90

_space_group_name_H-M_alt    "P 1"
_space_group_IT_number       1

loop_
  _space_group_symop_operation_xyz
  'x, y, z'

loop_
  _atom_site_type_symbol
  _atom_site_label
  _atom_site_symmetry_multiplicity
  _atom_site_fract_x
  _atom_site_fract_y
  _atom_site_fract_z
  _atom_site_occupancy
  C   C1        1.0  0.25540  0.20270  0.52610  1.0000
  C   C2        1.0  0.24460  0.70270  0.97390  1.0000
  C   C3        1.0  0.74460  0.79730  0.47390  1.0000
  C   C4        1.0  0.75540  0.29730  0.02610  1.0000
  H   H1        1.0  0.29480  0.20890  0.54960  1.0000
  H   H2        1.0  0.20520  0.70890  0.95040  1.0000
  H   H3        1.0  0.70520  0.79110  0.45040  1.0000
  H   H4        1.0  0.79480  0.29110  0.04960  1.0000
  H   H5        1.0  0.25760  0.17070  0.51810  1.0000
  H   H6        1.0  0.24240  0.67070  0.98190  1.0000
  H   H7        1.0  0.74240  0.82930  0.48190  1.0000
  H   H8        1.0  0.75760  0.32930  0.01810  1.0000
  C   C5        1.0  0.16670  0.21670  0.54340  1.0000
  C   C6        1.0  0.33330  0.71670  0.95660  1.0000
  C   C7        1.0  0.83330  0.78330  0.45660  1.0000
  C   C8        1.0  0.66670  0.28330  0.04340  1.0000
  H   H9        1.0  0.12770  0.19610  0.53040  1.0000
  H   H10       1.0  0.37230  0.69610  0.96960  1.0000
  H   H11       1.0  0.87230  0.80390  0.46960  1.0000
  H   H12       1.0  0.62770  0.30390  0.03040  1.0000
  H   H13       1.0  0.16450  0.21460  0.57630  1.0000
  H   H14       1.0  0.33550  0.71460  0.92370  1.0000
  H   H15       1.0  0.83550  0.78540  0.42370  1.0000
  H   H16       1.0  0.66450  0.28540  0.07630  1.0000
  C   C9        1.0  0.15180  0.25870  0.53020  1.0000
  C   C10       1.0  0.34820  0.75870  0.96980  1.0000
  C   C11       1.0  0.84820  0.74130  0.46980  1.0000
  C   C12       1.0  0.65180  0.24130  0.03020  1.0000
  H   H17       1.0  0.16010  0.27970  0.55520  1.0000
  H   H18       1.0  0.33990  0.77970  0.94480  1.0000
  H   H19       1.0  0.83990  0.72030  0.44480  1.0000
  H   H20       1.0  0.66010  0.22030  0.05520  1.0000
  H   H21       1.0  0.09750  0.26140  0.51960  1.0000
  H   H22       1.0  0.40250  0.76140  0.98040  1.0000
  H   H23       1.0  0.90250  0.73860  0.48040  1.0000
  H   H24       1.0  0.59750  0.23860  0.01960  1.0000
  C   C13       1.0  0.21000  0.26940  0.49060  1.0000
  C   C14       1.0  0.29000  0.76940  0.00940  1.0000
  C   C15       1.0  0.79000  0.73060  0.50940  1.0000
  C   C16       1.0  0.71000  0.23060  0.99060  1.0000
  H   H25       1.0  0.18110  0.27260  0.46210  1.0000
  H   H26       1.0  0.31890  0.77260  0.03790  1.0000
  H   H27       1.0  0.81890  0.72740  0.53790  1.0000
  H   H28       1.0  0.68110  0.22740  0.96210  1.0000
  H   H29       1.0  0.23800  0.29760  0.49670  1.0000
  H   H30       1.0  0.26200  0.79760  0.00330  1.0000
  H   H31       1.0  0.76200  0.70240  0.50330  1.0000
  H   H32       1.0  0.73800  0.20240  0.99670  1.0000
  C   C17       1.0  0.44500  0.27780  0.51000  1.0000
  C   C18       1.0  0.05500  0.77780  0.99000  1.0000
  C   C19       1.0  0.55500  0.72220  0.49000  1.0000
  C   C20       1.0  0.94500  0.22220  0.01000  1.0000
  H   H33       1.0  0.39910  0.29510  0.50780  1.0000
  H   H34       1.0  0.10090  0.79510  0.99220  1.0000
  H   H35       1.0  0.60090  0.70490  0.49220  1.0000
  H   H36       1.0  0.89910  0.20490  0.00780  1.0000
  C   C21       1.0  0.50520  0.29000  0.54160  1.0000
  C   C22       1.0  0.99480  0.79000  0.95840  1.0000
  C   C23       1.0  0.49480  0.71000  0.45840  1.0000
  C   C24       1.0  0.00520  0.21000  0.04160  1.0000
  H   H37       1.0  0.49850  0.31470  0.56090  1.0000
  H   H38       1.0  0.00150  0.81470  0.93910  1.0000
  H   H39       1.0  0.50150  0.68530  0.43910  1.0000
  H   H40       1.0  0.99850  0.18530  0.06090  1.0000
  C   C25       1.0  0.57400  0.26480  0.54350  1.0000
  C   C26       1.0  0.92600  0.76480  0.95650  1.0000
  C   C27       1.0  0.42600  0.73520  0.45650  1.0000
  C   C28       1.0  0.07400  0.23520  0.04350  1.0000
  C   C29       1.0  0.63710  0.27610  0.58050  1.0000
  C   C30       1.0  0.86290  0.77610  0.91950  1.0000
  C   C31       1.0  0.36290  0.72390  0.41950  1.0000
  C   C32       1.0  0.13710  0.22390  0.08050  1.0000
  C   C33       1.0  0.58940  0.07560  0.60520  1.0000
  C   C34       1.0  0.91060  0.57560  0.89480  1.0000
  C   C35       1.0  0.41060  0.92440  0.39480  1.0000
  C   C36       1.0  0.08940  0.42440  0.10520  1.0000
  C   C37       1.0  0.55930  0.06610  0.55570  1.0000
  C   C38       1.0  0.94070  0.56610  0.94430  1.0000
  C   C39       1.0  0.44070  0.93390  0.44430  1.0000
  C   C40       1.0  0.05930  0.43390  0.05570  1.0000
  C   C41       1.0  0.56580  0.10730  0.52720  1.0000
  C   C42       1.0  0.93420  0.60730  0.97280  1.0000
  C   C43       1.0  0.43420  0.89270  0.47280  1.0000
  C   C44       1.0  0.06580  0.39270  0.02720  1.0000
  H   H41       1.0  0.62020  0.11640  0.52580  1.0000
  H   H42       1.0  0.87980  0.61640  0.97420  1.0000
  H   H43       1.0  0.37980  0.88360  0.47420  1.0000
  H   H44       1.0  0.12020  0.38360  0.02580  1.0000
  H   H45       1.0  0.53530  0.13140  0.54020  1.0000
  H   H46       1.0  0.96470  0.63140  0.95980  1.0000
  H   H47       1.0  0.46470  0.86860  0.45980  1.0000
  H   H48       1.0  0.03530  0.36860  0.04020  1.0000
  H   H49       1.0  0.54630  0.10080  0.49710  1.0000
  H   H50       1.0  0.95370  0.60080  0.00290  1.0000
  H   H51       1.0  0.45370  0.89920  0.50290  1.0000
  H   H52       1.0  0.04630  0.39920  0.99710  1.0000
  C   C45       1.0  0.61050  0.02960  0.53500  1.0000
  C   C46       1.0  0.88950  0.52960  0.96500  1.0000
  C   C47       1.0  0.38950  0.97040  0.46500  1.0000
  C   C48       1.0  0.11050  0.47040  0.03500  1.0000
  H   H53       1.0  0.66340  0.04070  0.53220  1.0000
  H   H54       1.0  0.83660  0.54070  0.96780  1.0000
  H   H55       1.0  0.33660  0.95930  0.46780  1.0000
  H   H56       1.0  0.16340  0.45930  0.03220  1.0000
  H   H57       1.0  0.58990  0.02160  0.50550  1.0000
  H   H58       1.0  0.91010  0.52160  0.99450  1.0000
  H   H59       1.0  0.41010  0.97840  0.49450  1.0000
  H   H60       1.0  0.08990  0.47840  0.00550  1.0000
  H   H61       1.0  0.61060  0.00320  0.55430  1.0000
  H   H62       1.0  0.88940  0.50320  0.94570  1.0000
  H   H63       1.0  0.38940  0.99680  0.44570  1.0000
  H   H64       1.0  0.11060  0.49680  0.05430  1.0000
  C   C49       1.0  0.47790  0.05030  0.56200  1.0000
  C   C50       1.0  0.02210  0.55030  0.93800  1.0000
  C   C51       1.0  0.52210  0.94970  0.43800  1.0000
  C   C52       1.0  0.97790  0.44970  0.06200  1.0000
  H   H65       1.0  0.47850  0.02240  0.57910  1.0000
  H   H66       1.0  0.02150  0.52240  0.92090  1.0000
  H   H67       1.0  0.52150  0.97760  0.42090  1.0000
  H   H68       1.0  0.97850  0.47760  0.07910  1.0000
  H   H69       1.0  0.45320  0.04510  0.53290  1.0000
  H   H70       1.0  0.04680  0.54510  0.96710  1.0000
  H   H71       1.0  0.54680  0.95490  0.46710  1.0000
  H   H72       1.0  0.95320  0.45490  0.03290  1.0000
  H   H73       1.0  0.44880  0.07290  0.57830  1.0000
  H   H74       1.0  0.05120  0.57290  0.92170  1.0000
  H   H75       1.0  0.55120  0.92710  0.42170  1.0000
  H   H76       1.0  0.94880  0.42710  0.07830  1.0000
  C   C53       1.0  0.74140  0.01950  0.66990  1.0000
  C   C54       1.0  0.75860  0.51950  0.83010  1.0000
  C   C55       1.0  0.25860  0.98050  0.33010  1.0000
  C   C56       1.0  0.24140  0.48050  0.16990  1.0000
  C   C57       1.0  0.79080  0.97550  0.65780  1.0000
  C   C58       1.0  0.70920  0.47550  0.84220  1.0000
  C   C59       1.0  0.20920  0.02450  0.34220  1.0000
  C   C60       1.0  0.29080  0.52450  0.15780  1.0000
  C   C61       1.0  0.73790  0.94080  0.63650  1.0000
  C   C62       1.0  0.76210  0.44080  0.86350  1.0000
  C   C63       1.0  0.26210  0.05920  0.36350  1.0000
  C   C64       1.0  0.23790  0.55920  0.13650  1.0000
  H   H77       1.0  0.69680  0.93290  0.65730  1.0000
  H   H78       1.0  0.80320  0.43290  0.84270  1.0000
  H   H79       1.0  0.30320  0.06710  0.34270  1.0000
  H   H80       1.0  0.19680  0.56710  0.15730  1.0000
  H   H81       1.0  0.76800  0.91410  0.62940  1.0000
  H   H82       1.0  0.73200  0.41410  0.87060  1.0000
  H   H83       1.0  0.23200  0.08590  0.37060  1.0000
  H   H84       1.0  0.26800  0.58590  0.12940  1.0000
  H   H85       1.0  0.71480  0.95300  0.60910  1.0000
  H   H86       1.0  0.78520  0.45300  0.89090  1.0000
  H   H87       1.0  0.28520  0.04700  0.39090  1.0000
  H   H88       1.0  0.21480  0.54700  0.10910  1.0000
  C   C65       1.0  0.81830  0.96290  0.70430  1.0000
  C   C66       1.0  0.68170  0.46290  0.79570  1.0000
  C   C67       1.0  0.18170  0.03710  0.29570  1.0000
  C   C68       1.0  0.31830  0.53710  0.20430  1.0000
  H   H89       1.0  0.85380  0.98580  0.71570  1.0000
  H   H90       1.0  0.64620  0.48580  0.78430  1.0000
  H   H91       1.0  0.14620  0.01420  0.28430  1.0000
  H   H92       1.0  0.35380  0.51420  0.21570  1.0000
  H   H93       1.0  0.84520  0.93420  0.70340  1.0000
  H   H94       1.0  0.65480  0.43420  0.79660  1.0000
  H   H95       1.0  0.15480  0.06580  0.29660  1.0000
  H   H96       1.0  0.34520  0.56580  0.20340  1.0000
  H   H97       1.0  0.77380  0.96060  0.72400  1.0000
  H   H98       1.0  0.72620  0.46060  0.77600  1.0000
  H   H99       1.0  0.22620  0.03940  0.27600  1.0000
  H   H100      1.0  0.27380  0.53940  0.22400  1.0000
  C   C69       1.0  0.85350  0.98760  0.62510  1.0000
  C   C70       1.0  0.64650  0.48760  0.87490  1.0000
  C   C71       1.0  0.14650  0.01240  0.37490  1.0000
  C   C72       1.0  0.35350  0.51240  0.12510  1.0000
  H   H101      1.0  0.88880  0.00930  0.63880  1.0000
  H   H102      1.0  0.61120  0.50930  0.86120  1.0000
  H   H103      1.0  0.11120  0.99070  0.36120  1.0000
  H   H104      1.0  0.38880  0.49070  0.13880  1.0000
  H   H105      1.0  0.82970  0.00060  0.59820  1.0000
  H   H106      1.0  0.67030  0.50060  0.90180  1.0000
  H   H107      1.0  0.17030  0.99940  0.40180  1.0000
  H   H108      1.0  0.32970  0.49940  0.09820  1.0000
  H   H109      1.0  0.88230  0.96080  0.61700  1.0000
  H   H110      1.0  0.61770  0.46080  0.88300  1.0000
  H   H111      1.0  0.11770  0.03920  0.38300  1.0000
  H   H112      1.0  0.38230  0.53920  0.11700  1.0000
  C   C73       1.0  0.57970  0.05430  0.79990  1.0000
  C   C74       1.0  0.92030  0.55430  0.70010  1.0000
  C   C75       1.0  0.42030  0.94570  0.20010  1.0000
  C   C76       1.0  0.07970  0.44570  0.29990  1.0000
  C   C77       1.0  0.62620  0.04800  0.84620  1.0000
  C   C78       1.0  0.87380  0.54800  0.65380  1.0000
  C   C79       1.0  0.37380  0.95200  0.15380  1.0000
  C   C80       1.0  0.12620  0.45200  0.34620  1.0000
  C   C81       1.0  0.70720  0.06700  0.84220  1.0000
  C   C82       1.0  0.79280  0.56700  0.65780  1.0000
  C   C83       1.0  0.29280  0.93300  0.15780  1.0000
  C   C84       1.0  0.20720  0.43300  0.34220  1.0000
  H   H113      1.0  0.73570  0.05010  0.81980  1.0000
  H   H114      1.0  0.76430  0.55010  0.68020  1.0000
  H   H115      1.0  0.26430  0.94990  0.18020  1.0000
  H   H116      1.0  0.23570  0.44990  0.31980  1.0000
  H   H117      1.0  0.73430  0.06500  0.87100  1.0000
  H   H118      1.0  0.76570  0.56500  0.62900  1.0000
  H   H119      1.0  0.26570  0.93500  0.12900  1.0000
  H   H120      1.0  0.23430  0.43500  0.37100  1.0000
  H   H121      1.0  0.70390  0.09830  0.83300  1.0000
  H   H122      1.0  0.79610  0.59830  0.66700  1.0000
  H   H123      1.0  0.29610  0.90170  0.16700  1.0000
  H   H124      1.0  0.20390  0.40170  0.33300  1.0000
  C   C85       1.0  0.63090  0.99720  0.85180  1.0000
  C   C86       1.0  0.86910  0.49720  0.64820  1.0000
  C   C87       1.0  0.36910  0.00280  0.14820  1.0000
  C   C88       1.0  0.13090  0.50280  0.35180  1.0000
  H   H125      1.0  0.57870  0.98500  0.85490  1.0000
  H   H126      1.0  0.92130  0.48500  0.64510  1.0000
  H   H127      1.0  0.42130  0.01500  0.14510  1.0000
  H   H128      1.0  0.07870  0.51500  0.35490  1.0000
  H   H129      1.0  0.66180  0.99000  0.87850  1.0000
  H   H130      1.0  0.83820  0.49000  0.62150  1.0000
  H   H131      1.0  0.33820  0.01000  0.12150  1.0000
  H   H132      1.0  0.16180  0.51000  0.37850  1.0000
  H   H133      1.0  0.65520  0.98410  0.82560  1.0000
  H   H134      1.0  0.84480  0.48410  0.67440  1.0000
  H   H135      1.0  0.34480  0.01590  0.17440  1.0000
  H   H136      1.0  0.15520  0.51590  0.32560  1.0000
  C   C89       1.0  0.58240  0.07220  0.88210  1.0000
  C   C90       1.0  0.91760  0.57220  0.61790  1.0000
  C   C91       1.0  0.41760  0.92780  0.11790  1.0000
  C   C92       1.0  0.08240  0.42780  0.38210  1.0000
  H   H137      1.0  0.52990  0.06010  0.88380  1.0000
  H   H138      1.0  0.97010  0.56010  0.61620  1.0000
  H   H139      1.0  0.47010  0.93990  0.11620  1.0000
  H   H140      1.0  0.02990  0.43990  0.38380  1.0000
  H   H141      1.0  0.57970  0.10400  0.87490  1.0000
  H   H142      1.0  0.92030  0.60400  0.62510  1.0000
  H   H143      1.0  0.42030  0.89600  0.12510  1.0000
  H   H144      1.0  0.07970  0.39600  0.37490  1.0000
  H   H145      1.0  0.60910  0.06820  0.91080  1.0000
  H   H146      1.0  0.89090  0.56820  0.58920  1.0000
  H   H147      1.0  0.39090  0.93180  0.08920  1.0000
  H   H148      1.0  0.10910  0.43180  0.41080  1.0000
  C   C93       1.0  0.46580  0.98610  0.71520  1.0000
  C   C94       1.0  0.03420  0.48610  0.78480  1.0000
  C   C95       1.0  0.53420  0.01390  0.28480  1.0000
  C   C96       1.0  0.96580  0.51390  0.21520  1.0000
  C   C97       1.0  0.44280  0.93550  0.70400  1.0000
  C   C98       1.0  0.05720  0.43550  0.79600  1.0000
  C   C99       1.0  0.55720  0.06450  0.29600  1.0000
  C   C100      1.0  0.94280  0.56450  0.20400  1.0000
  C   C101      1.0  0.51550  0.90660  0.70540  1.0000
  C   C102      1.0  0.98450  0.40660  0.79460  1.0000
  C   C103      1.0  0.48450  0.09340  0.29460  1.0000
  C   C104      1.0  0.01550  0.59340  0.20540  1.0000
  H   H149      1.0  0.55200  0.91720  0.68300  1.0000
  H   H150      1.0  0.94800  0.41720  0.81700  1.0000
  H   H151      1.0  0.44800  0.08280  0.31700  1.0000
  H   H152      1.0  0.05200  0.58280  0.18300  1.0000
  H   H153      1.0  0.50150  0.87560  0.69900  1.0000
  H   H154      1.0  0.99850  0.37560  0.80100  1.0000
  H   H155      1.0  0.49850  0.12440  0.30100  1.0000
  H   H156      1.0  0.00150  0.62440  0.19900  1.0000
  H   H157      1.0  0.53980  0.90850  0.73500  1.0000
  H   H158      1.0  0.96020  0.40850  0.76500  1.0000
  H   H159      1.0  0.46020  0.09150  0.26500  1.0000
  H   H160      1.0  0.03980  0.59150  0.23500  1.0000
  C   C105      1.0  0.41030  0.93690  0.65580  1.0000
  C   C106      1.0  0.08970  0.43690  0.84420  1.0000
  C   C107      1.0  0.58970  0.06310  0.34420  1.0000
  C   C108      1.0  0.91030  0.56310  0.15580  1.0000
  H   H161      1.0  0.45140  0.94600  0.63550  1.0000
  H   H162      1.0  0.04860  0.44600  0.86450  1.0000
  H   H163      1.0  0.54860  0.05400  0.36450  1.0000
  H   H164      1.0  0.95140  0.55400  0.13550  1.0000
  H   H165      1.0  0.36770  0.95840  0.65400  1.0000
  H   H166      1.0  0.13230  0.45840  0.84600  1.0000
  H   H167      1.0  0.63230  0.04160  0.34600  1.0000
  H   H168      1.0  0.86770  0.54160  0.15400  1.0000
  H   H169      1.0  0.39130  0.90730  0.64740  1.0000
  H   H170      1.0  0.10870  0.40730  0.85260  1.0000
  H   H171      1.0  0.60870  0.09270  0.35260  1.0000
  H   H172      1.0  0.89130  0.59270  0.14740  1.0000
  C   C109      1.0  0.38360  0.92140  0.73740  1.0000
  C   C110      1.0  0.11640  0.42140  0.76260  1.0000
  C   C111      1.0  0.61640  0.07860  0.26260  1.0000
  C   C112      1.0  0.88360  0.57860  0.23740  1.0000
  H   H173      1.0  0.33840  0.94110  0.73510  1.0000
  H   H174      1.0  0.16160  0.44110  0.76490  1.0000
  H   H175      1.0  0.66160  0.05890  0.26490  1.0000
  H   H176      1.0  0.83840  0.55890  0.23510  1.0000
  H   H177      1.0  0.40600  0.92330  0.76750  1.0000
  H   H178      1.0  0.09400  0.42330  0.73250  1.0000
  H   H179      1.0  0.59400  0.07670  0.23250  1.0000
  H   H180      1.0  0.90600  0.57670  0.26750  1.0000
  H   H181      1.0  0.36760  0.89070  0.73130  1.0000
  H   H182      1.0  0.13240  0.39070  0.76870  1.0000
  H   H183      1.0  0.63240  0.10930  0.26870  1.0000
  H   H184      1.0  0.86760  0.60930  0.23130  1.0000
  C   C113      1.0  0.84060  0.17280  0.70180  1.0000
  C   C114      1.0  0.65940  0.67280  0.79820  1.0000
  C   C115      1.0  0.15940  0.82720  0.29820  1.0000
  C   C116      1.0  0.34060  0.32720  0.20180  1.0000
  C   C117      1.0  0.90510  0.17090  0.74040  1.0000
  C   C118      1.0  0.59490  0.67090  0.75960  1.0000
  C   C119      1.0  0.09490  0.82910  0.25960  1.0000
  C   C120      1.0  0.40510  0.32910  0.24040  1.0000
  C   C121      1.0  0.89690  0.21120  0.77090  1.0000
  C   C122      1.0  0.60310  0.71120  0.72910  1.0000
  C   C123      1.0  0.10310  0.78880  0.22910  1.0000
  C   C124      1.0  0.39690  0.28880  0.27090  1.0000
  H   H185      1.0  0.90340  0.23850  0.75350  1.0000
  H   H186      1.0  0.59660  0.73850  0.74650  1.0000
  H   H187      1.0  0.09660  0.76150  0.24650  1.0000
  H   H188      1.0  0.40340  0.26150  0.25350  1.0000
  H   H189      1.0  0.93660  0.20990  0.79450  1.0000
  H   H190      1.0  0.56340  0.70990  0.70550  1.0000
  H   H191      1.0  0.06340  0.79010  0.20550  1.0000
  H   H192      1.0  0.43660  0.29010  0.29450  1.0000
  H   H193      1.0  0.84550  0.21100  0.78420  1.0000
  H   H194      1.0  0.65450  0.71100  0.71580  1.0000
  H   H195      1.0  0.15450  0.78900  0.21580  1.0000
  H   H196      1.0  0.34550  0.28900  0.28420  1.0000
  C   C125      1.0  0.98320  0.17290  0.71600  1.0000
  C   C126      1.0  0.51680  0.67290  0.78400  1.0000
  C   C127      1.0  0.01680  0.82710  0.28400  1.0000
  C   C128      1.0  0.48320  0.32710  0.21600  1.0000
  H   H197      1.0  0.98610  0.20060  0.69880  1.0000
  H   H198      1.0  0.51390  0.70060  0.80120  1.0000
  H   H199      1.0  0.01390  0.79940  0.30120  1.0000
  H   H200      1.0  0.48610  0.29940  0.19880  1.0000
  H   H201      1.0  0.98720  0.14740  0.69570  1.0000
  H   H202      1.0  0.51280  0.64740  0.80430  1.0000
  H   H203      1.0  0.01280  0.85260  0.30430  1.0000
  H   H204      1.0  0.48720  0.35260  0.19570  1.0000
  H   H205      1.0  0.02580  0.17190  0.73780  1.0000
  H   H206      1.0  0.47420  0.67190  0.76220  1.0000
  H   H207      1.0  0.97420  0.82810  0.26220  1.0000
  H   H208      1.0  0.52580  0.32810  0.23780  1.0000
  C   C129      1.0  0.89630  0.12940  0.76820  1.0000
  C   C130      1.0  0.60370  0.62940  0.73180  1.0000
  C   C131      1.0  0.10370  0.87060  0.23180  1.0000
  C   C132      1.0  0.39630  0.37060  0.26820  1.0000
  H   H209      1.0  0.90150  0.10310  0.74910  1.0000
  H   H210      1.0  0.59850  0.60310  0.75090  1.0000
  H   H211      1.0  0.09850  0.89690  0.25090  1.0000
  H   H212      1.0  0.40150  0.39690  0.24910  1.0000
  H   H213      1.0  0.84530  0.12930  0.78190  1.0000
  H   H214      1.0  0.65470  0.62930  0.71810  1.0000
  H   H215      1.0  0.15470  0.87070  0.21810  1.0000
  H   H216      1.0  0.34530  0.37070  0.28190  1.0000
  H   H217      1.0  0.93660  0.12890  0.79150  1.0000
  H   H218      1.0  0.56340  0.62890  0.70850  1.0000
  H   H219      1.0  0.06340  0.87110  0.20850  1.0000
  H   H220      1.0  0.43660  0.37110  0.29150  1.0000
  C   C133      1.0  0.83230  0.15540  0.57890  1.0000
  C   C134      1.0  0.66770  0.65540  0.92110  1.0000
  C   C135      1.0  0.16770  0.84460  0.42110  1.0000
  C   C136      1.0  0.33230  0.34460  0.07890  1.0000
  C   C137      1.0  0.87100  0.14680  0.53130  1.0000
  C   C138      1.0  0.62900  0.64680  0.96870  1.0000
  C   C139      1.0  0.12900  0.85320  0.46870  1.0000
  C   C140      1.0  0.37100  0.35320  0.03130  1.0000
  C   C141      1.0  0.94510  0.17330  0.53070  1.0000
  C   C142      1.0  0.55490  0.67330  0.96930  1.0000
  C   C143      1.0  0.05490  0.82670  0.46930  1.0000
  C   C144      1.0  0.44510  0.32670  0.03070  1.0000
  H   H221      1.0  0.98130  0.16150  0.55320  1.0000
  H   H222      1.0  0.51870  0.66150  0.94680  1.0000
  H   H223      1.0  0.01870  0.83850  0.44680  1.0000
  H   H224      1.0  0.48130  0.33850  0.05320  1.0000
  H   H225      1.0  0.93390  0.20460  0.53740  1.0000
  H   H226      1.0  0.56610  0.70460  0.96260  1.0000
  H   H227      1.0  0.06610  0.79540  0.46260  1.0000
  H   H228      1.0  0.43390  0.29540  0.03740  1.0000
  H   H229      1.0  0.96830  0.17110  0.50120  1.0000
  H   H230      1.0  0.53170  0.67110  0.99880  1.0000
  H   H231      1.0  0.03170  0.82890  0.49880  1.0000
  H   H232      1.0  0.46830  0.32890  0.00120  1.0000
  C   C145      1.0  0.87850  0.09660  0.52400  1.0000
  C   C146      1.0  0.62150  0.59660  0.97600  1.0000
  C   C147      1.0  0.12150  0.90340  0.47600  1.0000
  C   C148      1.0  0.37850  0.40340  0.02400  1.0000
  H   H233      1.0  0.82700  0.08290  0.52440  1.0000
  H   H234      1.0  0.67300  0.58290  0.97560  1.0000
  H   H235      1.0  0.17300  0.91710  0.47560  1.0000
  H   H236      1.0  0.32700  0.41710  0.02440  1.0000
  H   H237      1.0  0.91080  0.08370  0.54780  1.0000
  H   H238      1.0  0.58920  0.58370  0.95220  1.0000
  H   H239      1.0  0.08920  0.91630  0.45220  1.0000
  H   H240      1.0  0.41080  0.41630  0.04780  1.0000
  H   H241      1.0  0.90240  0.09100  0.49510  1.0000
  H   H242      1.0  0.59760  0.59100  0.00490  1.0000
  H   H243      1.0  0.09760  0.90900  0.50490  1.0000
  H   H244      1.0  0.40240  0.40900  0.99510  1.0000
  C   C149      1.0  0.81530  0.16620  0.49580  1.0000
  C   C150      1.0  0.68470  0.66620  0.00420  1.0000
  C   C151      1.0  0.18470  0.83380  0.50420  1.0000
  C   C152      1.0  0.31530  0.33380  0.99580  1.0000
  H   H245      1.0  0.76660  0.14950  0.49590  1.0000
  H   H246      1.0  0.73340  0.64950  0.00410  1.0000
  H   H247      1.0  0.23340  0.85050  0.50410  1.0000
  H   H248      1.0  0.26660  0.35050  0.99590  1.0000
  H   H249      1.0  0.83870  0.16380  0.46640  1.0000
  H   H250      1.0  0.66130  0.66380  0.03360  1.0000
  H   H251      1.0  0.16130  0.83620  0.53360  1.0000
  H   H252      1.0  0.33870  0.33620  0.96640  1.0000
  H   H253      1.0  0.80510  0.19760  0.50250  1.0000
  H   H254      1.0  0.69490  0.69760  0.99750  1.0000
  H   H255      1.0  0.19490  0.80240  0.49750  1.0000
  H   H256      1.0  0.30510  0.30240  0.00250  1.0000
  C   C153      1.0  0.58350  0.22970  0.51490  1.0000
  C   C154      1.0  0.91650  0.72970  0.98510  1.0000
  C   C155      1.0  0.41650  0.77030  0.48510  1.0000
  C   C156      1.0  0.08350  0.27030  0.01490  1.0000
  H   H257      1.0  0.63000  0.21290  0.51540  1.0000
  H   H258      1.0  0.87000  0.71290  0.98460  1.0000
  H   H259      1.0  0.37000  0.78710  0.48460  1.0000
  H   H260      1.0  0.13000  0.28710  0.01540  1.0000
  C   C157      1.0  0.52220  0.21870  0.48440  1.0000
  C   C158      1.0  0.97780  0.71870  0.01560  1.0000
  C   C159      1.0  0.47780  0.78130  0.51560  1.0000
  C   C160      1.0  0.02220  0.28130  0.98440  1.0000
  H   H261      1.0  0.52960  0.19480  0.46420  1.0000
  H   H262      1.0  0.97040  0.69480  0.03580  1.0000
  H   H263      1.0  0.47040  0.80520  0.53580  1.0000
  H   H264      1.0  0.02960  0.30520  0.96420  1.0000
  C   C161      1.0  0.33990  0.19400  0.34580  1.0000
  C   C162      1.0  0.16010  0.69400  0.15420  1.0000
  C   C163      1.0  0.66010  0.80600  0.65420  1.0000
  C   C164      1.0  0.83990  0.30600  0.84580  1.0000
  H   H265      1.0  0.39390  0.19940  0.34390  1.0000
  H   H266      1.0  0.10610  0.69940  0.15610  1.0000
  H   H267      1.0  0.60610  0.80060  0.65610  1.0000
  H   H268      1.0  0.89390  0.30060  0.84390  1.0000
  C   C165      1.0  0.29950  0.18160  0.30730  1.0000
  C   C166      1.0  0.20050  0.68160  0.19270  1.0000
  C   C167      1.0  0.70050  0.81840  0.69270  1.0000
  C   C168      1.0  0.79950  0.31840  0.80730  1.0000
  H   H269      1.0  0.32540  0.17910  0.27980  1.0000
  H   H270      1.0  0.17460  0.67910  0.22020  1.0000
  H   H271      1.0  0.67460  0.82090  0.72020  1.0000
  H   H272      1.0  0.82540  0.32090  0.77980  1.0000
  C   C169      1.0  0.22150  0.17300  0.30960  1.0000
  C   C170      1.0  0.27850  0.67300  0.19040  1.0000
  C   C171      1.0  0.77850  0.82700  0.69040  1.0000
  C   C172      1.0  0.72150  0.32700  0.80960  1.0000
  C   C173      1.0  0.17540  0.16260  0.26700  1.0000
  C   C174      1.0  0.32460  0.66260  0.23300  1.0000
  C   C175      1.0  0.82460  0.83740  0.73300  1.0000
  C   C176      1.0  0.67540  0.33740  0.76700  1.0000
  C   C177      1.0  0.78750  0.38190  0.21100  1.0000
  C   C178      1.0  0.71250  0.88190  0.28900  1.0000
  C   C179      1.0  0.21250  0.61810  0.78900  1.0000
  C   C180      1.0  0.28750  0.11810  0.71100  1.0000
  C   C181      1.0  0.71720  0.38820  0.17690  1.0000
  C   C182      1.0  0.78280  0.88820  0.32310  1.0000
  C   C183      1.0  0.28280  0.61180  0.82310  1.0000
  C   C184      1.0  0.21720  0.11180  0.67690  1.0000
  C   C185      1.0  0.65480  0.41640  0.19890  1.0000
  C   C186      1.0  0.84520  0.91640  0.30110  1.0000
  C   C187      1.0  0.34520  0.58360  0.80110  1.0000
  C   C188      1.0  0.15480  0.08360  0.69890  1.0000
  H   H273      1.0  0.63510  0.40060  0.22500  1.0000
  H   H274      1.0  0.86490  0.90060  0.27500  1.0000
  H   H275      1.0  0.36490  0.59940  0.77500  1.0000
  H   H276      1.0  0.13510  0.09940  0.72500  1.0000
  H   H277      1.0  0.61220  0.42160  0.17760  1.0000
  H   H278      1.0  0.88780  0.92160  0.32240  1.0000
  H   H279      1.0  0.38780  0.57840  0.82240  1.0000
  H   H280      1.0  0.11220  0.07840  0.67760  1.0000
  H   H281      1.0  0.67690  0.44500  0.20830  1.0000
  H   H282      1.0  0.82310  0.94500  0.29170  1.0000
  H   H283      1.0  0.32310  0.55500  0.79170  1.0000
  H   H284      1.0  0.17690  0.05500  0.70830  1.0000
  C   C189      1.0  0.68370  0.34230  0.16450  1.0000
  C   C190      1.0  0.81630  0.84230  0.33550  1.0000
  C   C191      1.0  0.31630  0.65770  0.83550  1.0000
  C   C192      1.0  0.18370  0.15770  0.66450  1.0000
  H   H285      1.0  0.66410  0.32780  0.19130  1.0000
  H   H286      1.0  0.83590  0.82780  0.30870  1.0000
  H   H287      1.0  0.33590  0.67220  0.80870  1.0000
  H   H288      1.0  0.16410  0.17220  0.69130  1.0000
  H   H289      1.0  0.72430  0.32380  0.15150  1.0000
  H   H290      1.0  0.77570  0.82380  0.34850  1.0000
  H   H291      1.0  0.27570  0.67620  0.84850  1.0000
  H   H292      1.0  0.22430  0.17620  0.65150  1.0000
  H   H293      1.0  0.64130  0.34600  0.14280  1.0000
  H   H294      1.0  0.85870  0.84600  0.35720  1.0000
  H   H295      1.0  0.35870  0.65400  0.85720  1.0000
  H   H296      1.0  0.14130  0.15400  0.64280  1.0000
  C   C193      1.0  0.74690  0.41250  0.13670  1.0000
  C   C194      1.0  0.75310  0.91250  0.36330  1.0000
  C   C195      1.0  0.25310  0.58750  0.86330  1.0000
  C   C196      1.0  0.24690  0.08750  0.63670  1.0000
  H   H297      1.0  0.78650  0.39440  0.12230  1.0000
  H   H298      1.0  0.71350  0.89440  0.37770  1.0000
  H   H299      1.0  0.21350  0.60560  0.87770  1.0000
  H   H300      1.0  0.28650  0.10560  0.62230  1.0000
  H   H301      1.0  0.76950  0.44100  0.14600  1.0000
  H   H302      1.0  0.73050  0.94100  0.35400  1.0000
  H   H303      1.0  0.23050  0.55900  0.85400  1.0000
  H   H304      1.0  0.26950  0.05900  0.64600  1.0000
  H   H305      1.0  0.70410  0.41790  0.11560  1.0000
  H   H306      1.0  0.79590  0.91790  0.38440  1.0000
  H   H307      1.0  0.29590  0.58210  0.88440  1.0000
  H   H308      1.0  0.20410  0.08210  0.61560  1.0000
  C   C197      1.0  0.80410  0.42580  0.32550  1.0000
  C   C198      1.0  0.69590  0.92580  0.17450  1.0000
  C   C199      1.0  0.19590  0.57420  0.67450  1.0000
  C   C200      1.0  0.30410  0.07420  0.82550  1.0000
  C   C201      1.0  0.74580  0.45020  0.35900  1.0000
  C   C202      1.0  0.75420  0.95020  0.14100  1.0000
  C   C203      1.0  0.25420  0.54980  0.64100  1.0000
  C   C204      1.0  0.24580  0.04980  0.85900  1.0000
  C   C205      1.0  0.66380  0.43340  0.35180  1.0000
  C   C206      1.0  0.83620  0.93340  0.14820  1.0000
  C   C207      1.0  0.33620  0.56660  0.64820  1.0000
  C   C208      1.0  0.16380  0.06660  0.85180  1.0000
  H   H309      1.0  0.66090  0.40200  0.36050  1.0000
  H   H310      1.0  0.83910  0.90200  0.13950  1.0000
  H   H311      1.0  0.33910  0.59800  0.63950  1.0000
  H   H312      1.0  0.16090  0.09800  0.86050  1.0000
  H   H313      1.0  0.64920  0.43650  0.32030  1.0000
  H   H314      1.0  0.85080  0.93650  0.17970  1.0000
  H   H315      1.0  0.35080  0.56350  0.67970  1.0000
  H   H316      1.0  0.14920  0.06350  0.82030  1.0000
  H   H317      1.0  0.62840  0.45090  0.37010  1.0000
  H   H318      1.0  0.87160  0.95090  0.12990  1.0000
  H   H319      1.0  0.37160  0.54910  0.62990  1.0000
  H   H320      1.0  0.12840  0.04910  0.87010  1.0000
  C   C209      1.0  0.77560  0.43850  0.40610  1.0000
  C   C210      1.0  0.72440  0.93850  0.09390  1.0000
  C   C211      1.0  0.22440  0.56150  0.59390  1.0000
  C   C212      1.0  0.27560  0.06150  0.90610  1.0000
  H   H321      1.0  0.82800  0.45030  0.41040  1.0000
  H   H322      1.0  0.67200  0.95030  0.08960  1.0000
  H   H323      1.0  0.17200  0.54970  0.58960  1.0000
  H   H324      1.0  0.32800  0.04970  0.91040  1.0000
  H   H325      1.0  0.77640  0.40600  0.40980  1.0000
  H   H326      1.0  0.72360  0.90600  0.09020  1.0000
  H   H327      1.0  0.22360  0.59400  0.59020  1.0000
  H   H328      1.0  0.27640  0.09400  0.90980  1.0000
  H   H329      1.0  0.74120  0.45160  0.42830  1.0000
  H   H330      1.0  0.75880  0.95160  0.07170  1.0000
  H   H331      1.0  0.25880  0.54840  0.57170  1.0000
  H   H332      1.0  0.24120  0.04840  0.92830  1.0000
  C   C213      1.0  0.74880  0.49910  0.34700  1.0000
  C   C214      1.0  0.75120  0.99910  0.15300  1.0000
  C   C215      1.0  0.25120  0.50090  0.65300  1.0000
  C   C216      1.0  0.24880  0.00090  0.84700  1.0000
  H   H333      1.0  0.80170  0.51010  0.35110  1.0000
  H   H334      1.0  0.69830  0.01010  0.14890  1.0000
  H   H335      1.0  0.19830  0.48990  0.64890  1.0000
  H   H336      1.0  0.30170  0.98990  0.85110  1.0000
  H   H337      1.0  0.71390  0.51580  0.36630  1.0000
  H   H338      1.0  0.78610  0.01580  0.13370  1.0000
  H   H339      1.0  0.28610  0.48420  0.63370  1.0000
  H   H340      1.0  0.21390  0.98420  0.86630  1.0000
  H   H341      1.0  0.73260  0.50300  0.31580  1.0000
  H   H342      1.0  0.76740  0.00300  0.18420  1.0000
  H   H343      1.0  0.26740  0.49700  0.68420  1.0000
  H   H344      1.0  0.23260  0.99700  0.81580  1.0000
  C   C217      1.0  0.72940  0.25590  0.31840  1.0000
  C   C218      1.0  0.77060  0.75590  0.18160  1.0000
  C   C219      1.0  0.27060  0.74410  0.68160  1.0000
  C   C220      1.0  0.22940  0.24410  0.81840  1.0000
  C   C221      1.0  0.64430  0.24440  0.33530  1.0000
  C   C222      1.0  0.85570  0.74440  0.16470  1.0000
  C   C223      1.0  0.35570  0.75560  0.66470  1.0000
  C   C224      1.0  0.14430  0.25560  0.83530  1.0000
  C   C225      1.0  0.59420  0.22620  0.29740  1.0000
  C   C226      1.0  0.90580  0.72620  0.20260  1.0000
  C   C227      1.0  0.40580  0.77380  0.70260  1.0000
  C   C228      1.0  0.09420  0.27380  0.79740  1.0000
  H   H345      1.0  0.58710  0.24920  0.27450  1.0000
  H   H346      1.0  0.91290  0.74920  0.22550  1.0000
  H   H347      1.0  0.41290  0.75080  0.72550  1.0000
  H   H348      1.0  0.08710  0.25080  0.77450  1.0000
  H   H349      1.0  0.54370  0.21740  0.30890  1.0000
  H   H350      1.0  0.95630  0.71740  0.19110  1.0000
  H   H351      1.0  0.45630  0.78260  0.69110  1.0000
  H   H352      1.0  0.04370  0.28260  0.80890  1.0000
  H   H353      1.0  0.61950  0.20010  0.28430  1.0000
  H   H354      1.0  0.88050  0.70010  0.21570  1.0000
  H   H355      1.0  0.38050  0.79990  0.71570  1.0000
  H   H356      1.0  0.11950  0.29990  0.78430  1.0000
  C   C229      1.0  0.60990  0.28810  0.35140  1.0000
  C   C230      1.0  0.89010  0.78810  0.14860  1.0000
  C   C231      1.0  0.39010  0.71190  0.64860  1.0000
  C   C232      1.0  0.10990  0.21190  0.85140  1.0000
  H   H357      1.0  0.64090  0.29950  0.37650  1.0000
  H   H358      1.0  0.85910  0.79950  0.12350  1.0000
  H   H359      1.0  0.35910  0.70050  0.62350  1.0000
  H   H360      1.0  0.14090  0.20050  0.87650  1.0000
  H   H361      1.0  0.55670  0.28310  0.36110  1.0000
  H   H362      1.0  0.94330  0.78310  0.13890  1.0000
  H   H363      1.0  0.44330  0.71690  0.63890  1.0000
  H   H364      1.0  0.05670  0.21690  0.86110  1.0000
  H   H365      1.0  0.60990  0.30990  0.32720  1.0000
  H   H366      1.0  0.89010  0.80990  0.17280  1.0000
  H   H367      1.0  0.39010  0.69010  0.67280  1.0000
  H   H368      1.0  0.10990  0.19010  0.82720  1.0000
  C   C233      1.0  0.65170  0.20780  0.37000  1.0000
  C   C234      1.0  0.84830  0.70780  0.13000  1.0000
  C   C235      1.0  0.34830  0.79220  0.63000  1.0000
  C   C236      1.0  0.15170  0.29220  0.87000  1.0000
  H   H369      1.0  0.68250  0.21870  0.39550  1.0000
  H   H370      1.0  0.81750  0.71870  0.10450  1.0000
  H   H371      1.0  0.31750  0.78130  0.60450  1.0000
  H   H372      1.0  0.18250  0.28130  0.89550  1.0000
  H   H373      1.0  0.67730  0.18190  0.35700  1.0000
  H   H374      1.0  0.82270  0.68190  0.14300  1.0000
  H   H375      1.0  0.32270  0.81810  0.64300  1.0000
  H   H376      1.0  0.17730  0.31810  0.85700  1.0000
  H   H377      1.0  0.60010  0.19920  0.38010  1.0000
  H   H378      1.0  0.89990  0.69920  0.11990  1.0000
  H   H379      1.0  0.39990  0.80080  0.61990  1.0000
  H   H380      1.0  0.10010  0.30080  0.88010  1.0000
  C   C237      1.0  0.92060  0.28150  0.36460  1.0000
  C   C238      1.0  0.57940  0.78150  0.13540  1.0000
  C   C239      1.0  0.07940  0.71850  0.63540  1.0000
  C   C240      1.0  0.42060  0.21850  0.86460  1.0000
  C   C241      1.0  0.94910  0.28270  0.41560  1.0000
  C   C242      1.0  0.55090  0.78270  0.08440  1.0000
  C   C243      1.0  0.05090  0.71730  0.58440  1.0000
  C   C244      1.0  0.44910  0.21730  0.91560  1.0000
  C   C245      1.0  0.00550  0.24500  0.42500  1.0000
  C   C246      1.0  0.49450  0.74500  0.07500  1.0000
  C   C247      1.0  0.99450  0.75500  0.57500  1.0000
  C   C248      1.0  0.50550  0.25500  0.92500  1.0000
  H   H381      1.0  0.98010  0.21640  0.41890  1.0000
  H   H382      1.0  0.51990  0.71640  0.08110  1.0000
  H   H383      1.0  0.01990  0.78360  0.58110  1.0000
  H   H384      1.0  0.48010  0.28360  0.91890  1.0000
  H   H385      1.0  0.02230  0.24600  0.45630  1.0000
  H   H386      1.0  0.47770  0.74600  0.04370  1.0000
  H   H387      1.0  0.97770  0.75400  0.54370  1.0000
  H   H388      1.0  0.52230  0.25400  0.95630  1.0000
  H   H389      1.0  0.05060  0.24810  0.40590  1.0000
  H   H390      1.0  0.44940  0.74810  0.09410  1.0000
  H   H391      1.0  0.94940  0.75190  0.59410  1.0000
  H   H392      1.0  0.55060  0.25190  0.90590  1.0000
  C   C249      1.0  0.87380  0.27620  0.44180  1.0000
  C   C250      1.0  0.62620  0.77620  0.05820  1.0000
  C   C251      1.0  0.12620  0.72380  0.55820  1.0000
  C   C252      1.0  0.37380  0.22380  0.94180  1.0000
  H   H393      1.0  0.83900  0.30140  0.43610  1.0000
  H   H394      1.0  0.66100  0.80140  0.06390  1.0000
  H   H395      1.0  0.16100  0.69860  0.56390  1.0000
  H   H396      1.0  0.33900  0.19860  0.93610  1.0000
  H   H397      1.0  0.88600  0.27450  0.47380  1.0000
  H   H398      1.0  0.61400  0.77450  0.02620  1.0000
  H   H399      1.0  0.11400  0.72550  0.52620  1.0000
  H   H400      1.0  0.38600  0.22550  0.97380  1.0000
  H   H401      1.0  0.84850  0.24850  0.43230  1.0000
  H   H402      1.0  0.65150  0.74850  0.06770  1.0000
  H   H403      1.0  0.15150  0.75150  0.56770  1.0000
  H   H404      1.0  0.34850  0.25150  0.93230  1.0000
  C   C253      1.0  0.98670  0.32750  0.42520  1.0000
  C   C254      1.0  0.51330  0.82750  0.07480  1.0000
  C   C255      1.0  0.01330  0.67250  0.57480  1.0000
  C   C256      1.0  0.48670  0.17250  0.92520  1.0000
  H   H405      1.0  0.94890  0.35130  0.42010  1.0000
  H   H406      1.0  0.55110  0.85130  0.07990  1.0000
  H   H407      1.0  0.05110  0.64870  0.57990  1.0000
  H   H408      1.0  0.44890  0.14870  0.92010  1.0000
  H   H409      1.0  0.03080  0.33170  0.40550  1.0000
  H   H410      1.0  0.46920  0.83170  0.09450  1.0000
  H   H411      1.0  0.96920  0.66830  0.59450  1.0000
  H   H412      1.0  0.53080  0.16830  0.90550  1.0000
  H   H413      1.0  0.00480  0.32830  0.45630  1.0000
  H   H414      1.0  0.49520  0.82830  0.04370  1.0000
  H   H415      1.0  0.99520  0.67170  0.54370  1.0000
  H   H416      1.0  0.50480  0.17170  0.95630  1.0000
  C   C257      1.0  0.84750  0.17910  0.20050  1.0000
  C   C258      1.0  0.65250  0.67910  0.29950  1.0000
  C   C259      1.0  0.15250  0.82090  0.79950  1.0000
  C   C260      1.0  0.34750  0.32090  0.70050  1.0000
  C   C261      1.0  0.78650  0.16930  0.16160  1.0000
  C   C262      1.0  0.71350  0.66930  0.33840  1.0000
  C   C263      1.0  0.21350  0.83070  0.83840  1.0000
  C   C264      1.0  0.28650  0.33070  0.66160  1.0000
  C   C265      1.0  0.82510  0.17290  0.11640  1.0000
  C   C266      1.0  0.67490  0.67290  0.38360  1.0000
  C   C267      1.0  0.17490  0.82710  0.88360  1.0000
  C   C268      1.0  0.32510  0.32710  0.61640  1.0000
  H   H417      1.0  0.84490  0.20320  0.11230  1.0000
  H   H418      1.0  0.65510  0.70320  0.38770  1.0000
  H   H419      1.0  0.15510  0.79680  0.88770  1.0000
  H   H420      1.0  0.34490  0.29680  0.61230  1.0000
  H   H421      1.0  0.78730  0.16610  0.09270  1.0000
  H   H422      1.0  0.71270  0.66610  0.40730  1.0000
  H   H423      1.0  0.21270  0.83390  0.90730  1.0000
  H   H424      1.0  0.28730  0.33390  0.59270  1.0000
  H   H425      1.0  0.86810  0.15160  0.11500  1.0000
  H   H426      1.0  0.63190  0.65160  0.38500  1.0000
  H   H427      1.0  0.13190  0.84840  0.88500  1.0000
  H   H428      1.0  0.36810  0.34840  0.61500  1.0000
  C   C269      1.0  0.72040  0.20410  0.16470  1.0000
  C   C270      1.0  0.77960  0.70410  0.33530  1.0000
  C   C271      1.0  0.27960  0.79590  0.83530  1.0000
  C   C272      1.0  0.22040  0.29590  0.66470  1.0000
  H   H429      1.0  0.69550  0.20150  0.19370  1.0000
  H   H430      1.0  0.80450  0.70150  0.30630  1.0000
  H   H431      1.0  0.30450  0.79850  0.80630  1.0000
  H   H432      1.0  0.19550  0.29850  0.69370  1.0000
  H   H433      1.0  0.68210  0.19860  0.14090  1.0000
  H   H434      1.0  0.81790  0.69860  0.35910  1.0000
  H   H435      1.0  0.31790  0.80140  0.85910  1.0000
  H   H436      1.0  0.18210  0.30140  0.64090  1.0000
  H   H437      1.0  0.74180  0.23410  0.16140  1.0000
  H   H438      1.0  0.75820  0.73410  0.33860  1.0000
  H   H439      1.0  0.25820  0.76590  0.83860  1.0000
  H   H440      1.0  0.24180  0.26590  0.66140  1.0000
  C   C273      1.0  0.75470  0.12210  0.16730  1.0000
  C   C274      1.0  0.74530  0.62210  0.33270  1.0000
  C   C275      1.0  0.24530  0.87790  0.83270  1.0000
  C   C276      1.0  0.25470  0.37790  0.66730  1.0000
  H   H441      1.0  0.72960  0.11970  0.19620  1.0000
  H   H442      1.0  0.77040  0.61970  0.30380  1.0000
  H   H443      1.0  0.27040  0.88030  0.80380  1.0000
  H   H444      1.0  0.22960  0.38030  0.69620  1.0000
  H   H445      1.0  0.79730  0.10060  0.16580  1.0000
  H   H446      1.0  0.70270  0.60060  0.33420  1.0000
  H   H447      1.0  0.20270  0.89940  0.83420  1.0000
  H   H448      1.0  0.29730  0.39940  0.66580  1.0000
  H   H449      1.0  0.71690  0.11580  0.14350  1.0000
  H   H450      1.0  0.78310  0.61580  0.35650  1.0000
  H   H451      1.0  0.28310  0.88420  0.85650  1.0000
  H   H452      1.0  0.21690  0.38420  0.64350  1.0000
  C   C277      1.0  0.91430  0.12460  0.30760  1.0000
  C   C278      1.0  0.58570  0.62460  0.19240  1.0000
  C   C279      1.0  0.08570  0.87540  0.69240  1.0000
  C   C280      1.0  0.41430  0.37540  0.80760  1.0000
  C   C281      1.0  0.89620  0.08640  0.34310  1.0000
  C   C282      1.0  0.60380  0.58640  0.15690  1.0000
  C   C283      1.0  0.10380  0.91360  0.65690  1.0000
  C   C284      1.0  0.39620  0.41360  0.84310  1.0000
  C   C285      1.0  0.81720  0.09280  0.36350  1.0000
  C   C286      1.0  0.68280  0.59280  0.13650  1.0000
  C   C287      1.0  0.18280  0.90720  0.63650  1.0000
  C   C288      1.0  0.31720  0.40720  0.86350  1.0000
  H   H453      1.0  0.81530  0.12190  0.37840  1.0000
  H   H454      1.0  0.68470  0.62190  0.12160  1.0000
  H   H455      1.0  0.18470  0.87810  0.62160  1.0000
  H   H456      1.0  0.31530  0.37810  0.87840  1.0000
  H   H457      1.0  0.80810  0.06920  0.38530  1.0000
  H   H458      1.0  0.69190  0.56920  0.11470  1.0000
  H   H459      1.0  0.19190  0.93080  0.61470  1.0000
  H   H460      1.0  0.30810  0.43080  0.88530  1.0000
  H   H461      1.0  0.77730  0.09150  0.34010  1.0000
  H   H462      1.0  0.72270  0.59150  0.15990  1.0000
  H   H463      1.0  0.22270  0.90850  0.65990  1.0000
  H   H464      1.0  0.27730  0.40850  0.84010  1.0000
  C   C289      1.0  0.95780  0.09090  0.38030  1.0000
  C   C290      1.0  0.54220  0.59090  0.11970  1.0000
  C   C291      1.0  0.04220  0.90910  0.61970  1.0000
  C   C292      1.0  0.45780  0.40910  0.88030  1.0000
  H   H465      1.0  0.00930  0.08680  0.36780  1.0000
  H   H466      1.0  0.49070  0.58680  0.13220  1.0000
  H   H467      1.0  0.99070  0.91320  0.63220  1.0000
  H   H468      1.0  0.50930  0.41320  0.86780  1.0000
  H   H469      1.0  0.94890  0.06820  0.40310  1.0000
  H   H470      1.0  0.55110  0.56820  0.09690  1.0000
  H   H471      1.0  0.05110  0.93180  0.59690  1.0000
  H   H472      1.0  0.44890  0.43180  0.90310  1.0000
  H   H473      1.0  0.95430  0.12060  0.39380  1.0000
  H   H474      1.0  0.54570  0.62060  0.10620  1.0000
  H   H475      1.0  0.04570  0.87940  0.60620  1.0000
  H   H476      1.0  0.45430  0.37940  0.89380  1.0000
  C   C293      1.0  0.90290  0.04220  0.31890  1.0000
  C   C294      1.0  0.59710  0.54220  0.18110  1.0000
  C   C295      1.0  0.09710  0.95780  0.68110  1.0000
  C   C296      1.0  0.40290  0.45780  0.81890  1.0000
  H   H477      1.0  0.95500  0.03920  0.30680  1.0000
  H   H478      1.0  0.54500  0.53920  0.19320  1.0000
  H   H479      1.0  0.04500  0.96080  0.69320  1.0000
  H   H480      1.0  0.45500  0.46080  0.80680  1.0000
  H   H481      1.0  0.86470  0.04100  0.29450  1.0000
  H   H482      1.0  0.63530  0.54100  0.20550  1.0000
  H   H483      1.0  0.13530  0.95900  0.70550  1.0000
  H   H484      1.0  0.36470  0.45900  0.79450  1.0000
  H   H485      1.0  0.89340  0.01780  0.33980  1.0000
  H   H486      1.0  0.60660  0.51780  0.16020  1.0000
  H   H487      1.0  0.10660  0.98220  0.66020  1.0000
  H   H488      1.0  0.39340  0.48220  0.83980  1.0000
  C   C297      1.0  0.08020  0.08820  0.17170  1.0000
  C   C298      1.0  0.41980  0.58820  0.32830  1.0000
  C   C299      1.0  0.91980  0.91180  0.82830  1.0000
  C   C300      1.0  0.58020  0.41180  0.67170  1.0000
  C   C301      1.0  0.05930  0.04110  0.14960  1.0000
  C   C302      1.0  0.44070  0.54110  0.35040  1.0000
  C   C303      1.0  0.94070  0.95890  0.85040  1.0000
  C   C304      1.0  0.55930  0.45890  0.64960  1.0000
  C   C305      1.0  0.99250  0.04940  0.11630  1.0000
  C   C306      1.0  0.50750  0.54940  0.38370  1.0000
  C   C307      1.0  0.00750  0.95060  0.88370  1.0000
  C   C308      1.0  0.49250  0.45060  0.61630  1.0000
  H   H489      1.0  0.00960  0.06990  0.09300  1.0000
  H   H490      1.0  0.49040  0.56990  0.40700  1.0000
  H   H491      1.0  0.99040  0.93010  0.90700  1.0000
  H   H492      1.0  0.50960  0.43010  0.59300  1.0000
  H   H493      1.0  0.94860  0.06250  0.13190  1.0000
  H   H494      1.0  0.55140  0.56250  0.36810  1.0000
  H   H495      1.0  0.05140  0.93750  0.86810  1.0000
  H   H496      1.0  0.44860  0.43750  0.63190  1.0000
  H   H497      1.0  0.97670  0.02110  0.10270  1.0000
  H   H498      1.0  0.52330  0.52110  0.39730  1.0000
  H   H499      1.0  0.02330  0.97890  0.89730  1.0000
  H   H500      1.0  0.47670  0.47890  0.60270  1.0000
  C   C309      1.0  0.13020  0.02300  0.12530  1.0000
  C   C310      1.0  0.36980  0.52300  0.37470  1.0000
  C   C311      1.0  0.86980  0.97700  0.87470  1.0000
  C   C312      1.0  0.63020  0.47700  0.62530  1.0000
  H   H501      1.0  0.17220  0.01750  0.14690  1.0000
  H   H502      1.0  0.32780  0.51750  0.35310  1.0000
  H   H503      1.0  0.82780  0.98250  0.85310  1.0000
  H   H504      1.0  0.67220  0.48250  0.64690  1.0000
  H   H505      1.0  0.14730  0.04490  0.10330  1.0000
  H   H506      1.0  0.35270  0.54490  0.39670  1.0000
  H   H507      1.0  0.85270  0.95510  0.89670  1.0000
  H   H508      1.0  0.64730  0.45510  0.60330  1.0000
  H   H509      1.0  0.11650  0.99510  0.11020  1.0000
  H   H510      1.0  0.38350  0.49510  0.38980  1.0000
  H   H511      1.0  0.88350  0.00490  0.88980  1.0000
  H   H512      1.0  0.61650  0.50490  0.61020  1.0000
  C   C313      1.0  0.03220  0.00870  0.18500  1.0000
  C   C314      1.0  0.46780  0.50870  0.31500  1.0000
  C   C315      1.0  0.96780  0.99130  0.81500  1.0000
  C   C316      1.0  0.53220  0.49130  0.68500  1.0000
  H   H513      1.0  0.07440  0.00310  0.20640  1.0000
  H   H514      1.0  0.42560  0.50310  0.29360  1.0000
  H   H515      1.0  0.92560  0.99690  0.79360  1.0000
  H   H516      1.0  0.57440  0.49690  0.70640  1.0000
  H   H517      1.0  0.01670  0.98060  0.17080  1.0000
  H   H518      1.0  0.48330  0.48060  0.32920  1.0000
  H   H519      1.0  0.98330  0.01940  0.82920  1.0000
  H   H520      1.0  0.51670  0.51940  0.67080  1.0000
  H   H521      1.0  0.98790  0.02150  0.20050  1.0000
  H   H522      1.0  0.51210  0.52150  0.29950  1.0000
  H   H523      1.0  0.01210  0.97850  0.79950  1.0000
  H   H524      1.0  0.48790  0.47850  0.70050  1.0000
  C   C317      1.0  0.33640  0.18080  0.13420  1.0000
  C   C318      1.0  0.16360  0.68080  0.36580  1.0000
  C   C319      1.0  0.66360  0.81920  0.86580  1.0000
  C   C320      1.0  0.83640  0.31920  0.63420  1.0000
  C   C321      1.0  0.42020  0.15980  0.12800  1.0000
  C   C322      1.0  0.07980  0.65980  0.37200  1.0000
  C   C323      1.0  0.57980  0.84020  0.87200  1.0000
  C   C324      1.0  0.92020  0.34020  0.62800  1.0000
  C   C325      1.0  0.46930  0.18150  0.09300  1.0000
  C   C326      1.0  0.03070  0.68150  0.40700  1.0000
  C   C327      1.0  0.53070  0.81850  0.90700  1.0000
  C   C328      1.0  0.96930  0.31850  0.59300  1.0000
  H   H525      1.0  0.47130  0.21370  0.09820  1.0000
  H   H526      1.0  0.02870  0.71370  0.40180  1.0000
  H   H527      1.0  0.52870  0.78630  0.90180  1.0000
  H   H528      1.0  0.97130  0.28630  0.59820  1.0000
  H   H529      1.0  0.44680  0.17570  0.06340  1.0000
  H   H530      1.0  0.05320  0.67570  0.43660  1.0000
  H   H531      1.0  0.55320  0.82430  0.93660  1.0000
  H   H532      1.0  0.94680  0.32430  0.56340  1.0000
  H   H533      1.0  0.52180  0.16930  0.09460  1.0000
  H   H534      1.0  0.97820  0.66930  0.40540  1.0000
  H   H535      1.0  0.47820  0.83070  0.90540  1.0000
  H   H536      1.0  0.02180  0.33070  0.59460  1.0000
  C   C329      1.0  0.46220  0.16710  0.17360  1.0000
  C   C330      1.0  0.03780  0.66710  0.32640  1.0000
  C   C331      1.0  0.53780  0.83290  0.82640  1.0000
  C   C332      1.0  0.96220  0.33290  0.67360  1.0000
  H   H537      1.0  0.43250  0.15290  0.19720  1.0000
  H   H538      1.0  0.06750  0.65290  0.30280  1.0000
  H   H539      1.0  0.56750  0.84710  0.80280  1.0000
  H   H540      1.0  0.93250  0.34710  0.69720  1.0000
  H   H541      1.0  0.46650  0.19910  0.17960  1.0000
  H   H542      1.0  0.03350  0.69910  0.32040  1.0000
  H   H543      1.0  0.53350  0.80090  0.82040  1.0000
  H   H544      1.0  0.96650  0.30090  0.67960  1.0000
  H   H545      1.0  0.51400  0.15390  0.17270  1.0000
  H   H546      1.0  0.98600  0.65390  0.32730  1.0000
  H   H547      1.0  0.48600  0.84610  0.82730  1.0000
  H   H548      1.0  0.01400  0.34610  0.67270  1.0000
  C   C333      1.0  0.41300  0.11050  0.11910  1.0000
  C   C334      1.0  0.08700  0.61050  0.38090  1.0000
  C   C335      1.0  0.58700  0.88950  0.88090  1.0000
  C   C336      1.0  0.91300  0.38950  0.61910  1.0000
  H   H549      1.0  0.38160  0.09670  0.14220  1.0000
  H   H550      1.0  0.11840  0.59670  0.35780  1.0000
  H   H551      1.0  0.61840  0.90330  0.85780  1.0000
  H   H552      1.0  0.88160  0.40330  0.64220  1.0000
  H   H553      1.0  0.46460  0.09690  0.11930  1.0000
  H   H554      1.0  0.03540  0.59690  0.38070  1.0000
  H   H555      1.0  0.53540  0.90310  0.88070  1.0000
  H   H556      1.0  0.96460  0.40310  0.61930  1.0000
  H   H557      1.0  0.38820  0.10580  0.08990  1.0000
  H   H558      1.0  0.11180  0.60580  0.41010  1.0000
  H   H559      1.0  0.61180  0.89420  0.91010  1.0000
  H   H560      1.0  0.88820  0.39420  0.58990  1.0000
  C   C337      1.0  0.18640  0.17670  0.35090  1.0000
  C   C338      1.0  0.31360  0.67670  0.14910  1.0000
  C   C339      1.0  0.81360  0.82330  0.64910  1.0000
  C   C340      1.0  0.68640  0.32330  0.85090  1.0000
  H   H561      1.0  0.13270  0.17050  0.35340  1.0000
  H   H562      1.0  0.36730  0.67050  0.14660  1.0000
  H   H563      1.0  0.86730  0.82950  0.64660  1.0000
  H   H564      1.0  0.63270  0.32950  0.85340  1.0000
  C   C341      1.0  0.22950  0.18960  0.38910  1.0000
  C   C342      1.0  0.27050  0.68960  0.11090  1.0000
  C   C343      1.0  0.77050  0.81040  0.61090  1.0000
  C   C344      1.0  0.72950  0.31040  0.88910  1.0000
  H   H565      1.0  0.20500  0.19200  0.41710  1.0000
  H   H566      1.0  0.29500  0.69200  0.08290  1.0000
  H   H567      1.0  0.79500  0.80800  0.58290  1.0000
  H   H568      1.0  0.70500  0.30800  0.91710  1.0000
  Cr  Cr1       1.0  0.76270  0.22833  0.63267  1.0000
  Cr  Cr2       1.0  0.73730  0.72833  0.86733  1.0000
  Cr  Cr3       1.0  0.23730  0.77167  0.36733  1.0000
  Cr  Cr4       1.0  0.26270  0.27167  0.13267  1.0000
  Cr  Cr5       1.0  0.72647  0.11653  0.64756  1.0000
  Cr  Cr6       1.0  0.77353  0.61653  0.85244  1.0000
  Cr  Cr7       1.0  0.27353  0.88347  0.35244  1.0000
  Cr  Cr8       1.0  0.22647  0.38347  0.14756  1.0000
  Cr  Cr9       1.0  0.59314  0.05337  0.70199  1.0000
  Cr  Cr10      1.0  0.90686  0.55337  0.79801  1.0000
  Cr  Cr11      1.0  0.40686  0.94663  0.29801  1.0000
  Cr  Cr12      1.0  0.09314  0.44663  0.20199  1.0000
  Ni  Ni1       1.0  0.17294  0.17345  0.16610  1.0000
  Ni  Ni2       1.0  0.32706  0.67345  0.33390  1.0000
  Ni  Ni3       1.0  0.82706  0.82655  0.83390  1.0000
  Ni  Ni4       1.0  0.67294  0.32655  0.66610  1.0000
  Cr  Cr13      1.0  0.01121  0.15559  0.23204  1.0000
  Cr  Cr14      1.0  0.48879  0.65559  0.26796  1.0000
  Cr  Cr15      1.0  0.98879  0.84441  0.76796  1.0000
  Cr  Cr16      1.0  0.51121  0.34441  0.73204  1.0000
  Cr  Cr17      1.0  0.87796  0.22095  0.28879  1.0000
  Cr  Cr18      1.0  0.62204  0.72095  0.21121  1.0000
  Cr  Cr19      1.0  0.12204  0.77905  0.71121  1.0000
  Cr  Cr20      1.0  0.37796  0.27905  0.78879  1.0000
  Cr  Cr21      1.0  0.83470  0.33168  0.29211  1.0000
  Cr  Cr22      1.0  0.66530  0.83168  0.20789  1.0000
  Cr  Cr23      1.0  0.16530  0.66832  0.70789  1.0000
  Cr  Cr24      1.0  0.33470  0.16832  0.79211  1.0000
  Cr  Cr25      1.0  0.92326  0.42772  0.25513  1.0000
  Cr  Cr26      1.0  0.57674  0.92772  0.24487  1.0000
  Cr  Cr27      1.0  0.07674  0.57228  0.74487  1.0000
  Cr  Cr28      1.0  0.42326  0.07228  0.75513  1.0000
  Cu  Cu1       1.0  0.36919  0.21944  0.44040  1.0000
  Cu  Cu2       1.0  0.13081  0.71944  0.05960  1.0000
  Cu  Cu3       1.0  0.63081  0.78056  0.55960  1.0000
  Cu  Cu4       1.0  0.86919  0.28056  0.94040  1.0000
  F   F1        1.0  0.69070  0.17802  0.64197  1.0000
  F   F2        1.0  0.80930  0.67802  0.85803  1.0000
  F   F3        1.0  0.30930  0.82198  0.35803  1.0000
  F   F4        1.0  0.19070  0.32198  0.14197  1.0000
  F   F5        1.0  0.65200  0.10846  0.69480  1.0000
  F   F6        1.0  0.84800  0.60846  0.80520  1.0000
  F   F7        1.0  0.34800  0.89154  0.30520  1.0000
  F   F8        1.0  0.15200  0.39154  0.19480  1.0000
  F   F9        1.0  0.50000  0.08815  0.71157  1.0000
  F   F10       1.0  0.00000  0.58815  0.78843  1.0000
  F   F11       1.0  0.50000  0.91185  0.28843  1.0000
  F   F12       1.0  0.00000  0.41185  0.21157  1.0000
  F   F13       1.0  0.06710  0.19225  0.19155  1.0000
  F   F14       1.0  0.43290  0.69225  0.30845  1.0000
  F   F15       1.0  0.93290  0.80775  0.80845  1.0000
  F   F16       1.0  0.56710  0.30775  0.69155  1.0000
  F   F17       1.0  0.97900  0.21141  0.26350  1.0000
  F   F18       1.0  0.52100  0.71141  0.23650  1.0000
  F   F19       1.0  0.02100  0.78859  0.73650  1.0000
  F   F20       1.0  0.47900  0.28859  0.76350  1.0000
  F   F21       1.0  0.87730  0.28019  0.26203  1.0000
  F   F22       1.0  0.62270  0.78019  0.23797  1.0000
  F   F23       1.0  0.12270  0.71981  0.73797  1.0000
  F   F24       1.0  0.37730  0.21981  0.76203  1.0000
  F   F25       1.0  0.92680  0.36588  0.27679  1.0000
  F   F26       1.0  0.57320  0.86588  0.22321  1.0000
  F   F27       1.0  0.07320  0.63412  0.72321  1.0000
  F   F28       1.0  0.42680  0.13412  0.77679  1.0000
  F   F29       1.0  0.20360  0.23989  0.17546  1.0000
  F   F30       1.0  0.29640  0.73989  0.32454  1.0000
  F   F31       1.0  0.79640  0.76011  0.82454  1.0000
  F   F32       1.0  0.70360  0.26011  0.67546  1.0000
  N   N1        1.0  0.42770  0.13110  0.43120  1.0000
  N   N2        1.0  0.07230  0.63110  0.06880  1.0000
  N   N3        1.0  0.57230  0.86890  0.56880  1.0000
  N   N4        1.0  0.92770  0.36890  0.93120  1.0000
  N   N5        1.0  0.37940  0.30240  0.40030  1.0000
  N   N6        1.0  0.12060  0.80240  0.09970  1.0000
  N   N7        1.0  0.62060  0.69760  0.59970  1.0000
  N   N8        1.0  0.87940  0.19760  0.90030  1.0000
  N   N9        1.0  0.45410  0.24090  0.48280  1.0000
  N   N10       1.0  0.04590  0.74090  0.01720  1.0000
  N   N11       1.0  0.54590  0.75910  0.51720  1.0000
  N   N12       1.0  0.95410  0.25910  0.98280  1.0000
  N   N13       1.0  0.30550  0.19850  0.38560  1.0000
  N   N14       1.0  0.19450  0.69850  0.11440  1.0000
  N   N15       1.0  0.69450  0.80150  0.61440  1.0000
  N   N16       1.0  0.80550  0.30150  0.88560  1.0000
  O   O1        1.0  0.46670  0.15380  0.40590  1.0000
  O   O2        1.0  0.03330  0.65380  0.09410  1.0000
  O   O3        1.0  0.53330  0.84620  0.59410  1.0000
  O   O4        1.0  0.96670  0.34620  0.90590  1.0000
  O   O5        1.0  0.38020  0.15480  0.46060  1.0000
  O   O6        1.0  0.11980  0.65480  0.03940  1.0000
  O   O7        1.0  0.61980  0.84520  0.53940  1.0000
  O   O8        1.0  0.88020  0.34520  0.96060  1.0000
  O   O9        1.0  0.41990  0.09140  0.43880  1.0000
  O   O10       1.0  0.08010  0.59140  0.06120  1.0000
  O   O11       1.0  0.58010  0.90860  0.56120  1.0000
  O   O12       1.0  0.91990  0.40860  0.93880  1.0000
  O   O13       1.0  0.33480  0.27890  0.43010  1.0000
  O   O14       1.0  0.16520  0.77890  0.06990  1.0000
  O   O15       1.0  0.66520  0.72110  0.56990  1.0000
  O   O16       1.0  0.83480  0.22110  0.93010  1.0000
  O   O17       1.0  0.43390  0.27620  0.38590  1.0000
  O   O18       1.0  0.06610  0.77620  0.11410  1.0000
  O   O19       1.0  0.56610  0.72380  0.61410  1.0000
  O   O20       1.0  0.93390  0.22380  0.88590  1.0000
  O   O21       1.0  0.37200  0.34060  0.38810  1.0000
  O   O22       1.0  0.12800  0.84060  0.11190  1.0000
  O   O23       1.0  0.62800  0.65940  0.61190  1.0000
  O   O24       1.0  0.87200  0.15940  0.88810  1.0000
  O   O25       1.0  0.26810  0.22980  0.48810  1.0000
  O   O26       1.0  0.23190  0.72980  0.01190  1.0000
  O   O27       1.0  0.73190  0.77020  0.51190  1.0000
  O   O28       1.0  0.76810  0.27020  0.98810  1.0000
  O   O29       1.0  0.62560  0.30960  0.60470  1.0000
  O   O30       1.0  0.87440  0.80960  0.89530  1.0000
  O   O31       1.0  0.37440  0.69040  0.39530  1.0000
  O   O32       1.0  0.12560  0.19040  0.10470  1.0000
  O   O33       1.0  0.69310  0.24780  0.58320  1.0000
  O   O34       1.0  0.80690  0.74780  0.91680  1.0000
  O   O35       1.0  0.30690  0.75220  0.41680  1.0000
  O   O36       1.0  0.19310  0.25220  0.08320  1.0000
  O   O37       1.0  0.56770  0.05270  0.63920  1.0000
  O   O38       1.0  0.93230  0.55270  0.86080  1.0000
  O   O39       1.0  0.43230  0.94730  0.36080  1.0000
  O   O40       1.0  0.06770  0.44730  0.13920  1.0000
  O   O41       1.0  0.64740  0.09880  0.60170  1.0000
  O   O42       1.0  0.85260  0.59880  0.89830  1.0000
  O   O43       1.0  0.35260  0.90120  0.39830  1.0000
  O   O44       1.0  0.14740  0.40120  0.10170  1.0000
  O   O45       1.0  0.68850  0.01640  0.69420  1.0000
  O   O46       1.0  0.81150  0.51640  0.80580  1.0000
  O   O47       1.0  0.31150  0.98360  0.30580  1.0000
  O   O48       1.0  0.18850  0.48360  0.19420  1.0000
  O   O49       1.0  0.76030  0.05430  0.64920  1.0000
  O   O50       1.0  0.73970  0.55430  0.85080  1.0000
  O   O51       1.0  0.23970  0.94570  0.35080  1.0000
  O   O52       1.0  0.26030  0.44570  0.14920  1.0000
  O   O53       1.0  0.61850  0.05500  0.76750  1.0000
  O   O54       1.0  0.88150  0.55500  0.73250  1.0000
  O   O55       1.0  0.38150  0.94500  0.23250  1.0000
  O   O56       1.0  0.11850  0.44500  0.26750  1.0000
  O   O57       1.0  0.50800  0.05620  0.80060  1.0000
  O   O58       1.0  0.99200  0.55620  0.69940  1.0000
  O   O59       1.0  0.49200  0.94380  0.19940  1.0000
  O   O60       1.0  0.00800  0.44380  0.30060  1.0000
  O   O61       1.0  0.53680  0.99620  0.70840  1.0000
  O   O62       1.0  0.96320  0.49620  0.79160  1.0000
  O   O63       1.0  0.46320  0.00380  0.29160  1.0000
  O   O64       1.0  0.03680  0.50380  0.20840  1.0000
  O   O65       1.0  0.41790  0.01040  0.73250  1.0000
  O   O66       1.0  0.08210  0.51040  0.76750  1.0000
  O   O67       1.0  0.58210  0.98960  0.26750  1.0000
  O   O68       1.0  0.91790  0.48960  0.23250  1.0000
  O   O69       1.0  0.80650  0.13680  0.69280  1.0000
  O   O70       1.0  0.69350  0.63680  0.80720  1.0000
  O   O71       1.0  0.19350  0.86320  0.30720  1.0000
  O   O72       1.0  0.30650  0.36320  0.19280  1.0000
  O   O73       1.0  0.83020  0.20670  0.68050  1.0000
  O   O74       1.0  0.66980  0.70670  0.81950  1.0000
  O   O75       1.0  0.16980  0.79330  0.31950  1.0000
  O   O76       1.0  0.33020  0.29330  0.18050  1.0000
  O   O77       1.0  0.80220  0.12510  0.60040  1.0000
  O   O78       1.0  0.69780  0.62510  0.89960  1.0000
  O   O79       1.0  0.19780  0.87490  0.39960  1.0000
  O   O80       1.0  0.30220  0.37490  0.10040  1.0000
  O   O81       1.0  0.82170  0.19390  0.58740  1.0000
  O   O82       1.0  0.67830  0.69390  0.91260  1.0000
  O   O83       1.0  0.17830  0.80610  0.41260  1.0000
  O   O84       1.0  0.32170  0.30610  0.08740  1.0000
  O   O85       1.0  0.21120  0.16330  0.23120  1.0000
  O   O86       1.0  0.28880  0.66330  0.26880  1.0000
  O   O87       1.0  0.78880  0.83670  0.76880  1.0000
  O   O88       1.0  0.71120  0.33670  0.73120  1.0000
  O   O89       1.0  0.83930  0.41200  0.21210  1.0000
  O   O90       1.0  0.66070  0.91200  0.28790  1.0000
  O   O91       1.0  0.16070  0.58800  0.78790  1.0000
  O   O92       1.0  0.33930  0.08800  0.71210  1.0000
  O   O93       1.0  0.77940  0.34980  0.23610  1.0000
  O   O94       1.0  0.72060  0.84980  0.26390  1.0000
  O   O95       1.0  0.22060  0.65020  0.76390  1.0000
  O   O96       1.0  0.27940  0.15020  0.73610  1.0000
  O   O97       1.0  0.84770  0.44500  0.29910  1.0000
  O   O98       1.0  0.65230  0.94500  0.20090  1.0000
  O   O99       1.0  0.15230  0.55500  0.70090  1.0000
  O   O100      1.0  0.34770  0.05500  0.79910  1.0000
  O   O101      1.0  0.78340  0.38130  0.31870  1.0000
  O   O102      1.0  0.71660  0.88130  0.18130  1.0000
  O   O103      1.0  0.21660  0.61870  0.68130  1.0000
  O   O104      1.0  0.28340  0.11870  0.81870  1.0000
  O   O105      1.0  0.73980  0.29600  0.30710  1.0000
  O   O106      1.0  0.76020  0.79600  0.19290  1.0000
  O   O107      1.0  0.26020  0.70400  0.69290  1.0000
  O   O108      1.0  0.23980  0.20400  0.80710  1.0000
  O   O109      1.0  0.77690  0.22810  0.31400  1.0000
  O   O110      1.0  0.72310  0.72810  0.18600  1.0000
  O   O111      1.0  0.22310  0.77190  0.68600  1.0000
  O   O112      1.0  0.27690  0.27190  0.81400  1.0000
  O   O113      1.0  0.88310  0.31420  0.34960  1.0000
  O   O114      1.0  0.61690  0.81420  0.15040  1.0000
  O   O115      1.0  0.11690  0.68580  0.65040  1.0000
  O   O116      1.0  0.38310  0.18580  0.84960  1.0000
  O   O117      1.0  0.92630  0.24550  0.34410  1.0000
  O   O118      1.0  0.57370  0.74550  0.15590  1.0000
  O   O119      1.0  0.07370  0.75450  0.65590  1.0000
  O   O120      1.0  0.42630  0.25450  0.84410  1.0000
  O   O121      1.0  0.82740  0.19750  0.23560  1.0000
  O   O122      1.0  0.67260  0.69750  0.26440  1.0000
  O   O123      1.0  0.17260  0.80250  0.76440  1.0000
  O   O124      1.0  0.32740  0.30250  0.73560  1.0000
  O   O125      1.0  0.91540  0.16110  0.19330  1.0000
  O   O126      1.0  0.58460  0.66110  0.30670  1.0000
  O   O127      1.0  0.08460  0.83890  0.80670  1.0000
  O   O128      1.0  0.41540  0.33890  0.69330  1.0000
  O   O129      1.0  0.88050  0.16200  0.31910  1.0000
  O   O130      1.0  0.61950  0.66200  0.18090  1.0000
  O   O131      1.0  0.11950  0.83800  0.68090  1.0000
  O   O132      1.0  0.38050  0.33800  0.81910  1.0000
  O   O133      1.0  0.95600  0.11760  0.27570  1.0000
  O   O134      1.0  0.54400  0.61760  0.22430  1.0000
  O   O135      1.0  0.04400  0.88240  0.72430  1.0000
  O   O136      1.0  0.45600  0.38240  0.77570  1.0000
  O   O137      1.0  0.10240  0.15418  0.27370  1.0000
  O   O138      1.0  0.39760  0.65418  0.22630  1.0000
  O   O139      1.0  0.89760  0.84582  0.72630  1.0000
  O   O140      1.0  0.60240  0.34582  0.77370  1.0000
  O   O141      1.0  0.03460  0.09990  0.20160  1.0000
  O   O142      1.0  0.46540  0.59990  0.29840  1.0000
  O   O143      1.0  0.96540  0.90010  0.79840  1.0000
  O   O144      1.0  0.53460  0.40010  0.70160  1.0000
  O   O145      1.0  0.13570  0.10890  0.15560  1.0000
  O   O146      1.0  0.36430  0.60890  0.34440  1.0000
  O   O147      1.0  0.86430  0.89110  0.84440  1.0000
  O   O148      1.0  0.63570  0.39110  0.65560  1.0000
  O   O149      1.0  0.28040  0.15820  0.14490  1.0000
  O   O150      1.0  0.21960  0.65820  0.35510  1.0000
  O   O151      1.0  0.71960  0.84180  0.85510  1.0000
  O   O152      1.0  0.78040  0.34180  0.64490  1.0000
  O   O153      1.0  0.33630  0.22380  0.12420  1.0000
  O   O154      1.0  0.16370  0.72380  0.37580  1.0000
  O   O155      1.0  0.66370  0.77620  0.87580  1.0000
  O   O156      1.0  0.83630  0.27620  0.62420  1.0000
