data_image0
_chemical_formula_structural       Zn16O16P16C16Zn4O16P8C16H16O16C8O8C8H8O16
_chemical_formula_sum              "Zn20 O72 P24 C48 H24"
_cell_length_a       8.472
_cell_length_b       16.208
_cell_length_c       19.816
_cell_angle_alpha    90
_cell_angle_beta     90
_cell_angle_gamma    90

_space_group_name_H-M_alt    "P 1"
_space_group_IT_number       1

loop_
  _space_group_symop_operation_xyz
  'x, y, z'

loop_
  _atom_site_type_symbol
  _atom_site_label
  _atom_site_symmetry_multiplicity
  _atom_site_fract_x
  _atom_site_fract_y
  _atom_site_fract_z
  _atom_site_occupancy
  Zn  Zn1       1.0  0.39352  0.25343  0.41270  1.0000
  Zn  Zn2       1.0  0.60648  0.74657  0.41270  1.0000
  Zn  Zn3       1.0  0.10648  0.75343  0.58730  1.0000
  Zn  Zn4       1.0  0.89352  0.24657  0.58730  1.0000
  Zn  Zn5       1.0  0.89352  0.75343  0.91270  1.0000
  Zn  Zn6       1.0  0.10648  0.24657  0.91270  1.0000
  Zn  Zn7       1.0  0.60648  0.25343  0.08730  1.0000
  Zn  Zn8       1.0  0.39352  0.74657  0.08730  1.0000
  Zn  Zn9       1.0  0.60648  0.74657  0.58730  1.0000
  Zn  Zn10      1.0  0.39352  0.25343  0.58730  1.0000
  Zn  Zn11      1.0  0.89352  0.24657  0.41270  1.0000
  Zn  Zn12      1.0  0.10648  0.75343  0.41270  1.0000
  Zn  Zn13      1.0  0.10648  0.24657  0.08730  1.0000
  Zn  Zn14      1.0  0.89352  0.75343  0.08730  1.0000
  Zn  Zn15      1.0  0.39352  0.74657  0.91270  1.0000
  Zn  Zn16      1.0  0.60648  0.25343  0.91270  1.0000
  O   O1        1.0  0.24980  0.30780  0.35359  1.0000
  O   O2        1.0  0.75020  0.69220  0.35359  1.0000
  O   O3        1.0  0.25020  0.80780  0.64641  1.0000
  O   O4        1.0  0.74980  0.19220  0.64641  1.0000
  O   O5        1.0  0.74980  0.80780  0.85359  1.0000
  O   O6        1.0  0.25020  0.19220  0.85359  1.0000
  O   O7        1.0  0.75020  0.30780  0.14641  1.0000
  O   O8        1.0  0.24980  0.69220  0.14641  1.0000
  O   O9        1.0  0.75020  0.69220  0.64641  1.0000
  O   O10       1.0  0.24980  0.30780  0.64641  1.0000
  O   O11       1.0  0.74980  0.19220  0.35359  1.0000
  O   O12       1.0  0.25020  0.80780  0.35359  1.0000
  O   O13       1.0  0.25020  0.19220  0.14641  1.0000
  O   O14       1.0  0.74980  0.80780  0.14641  1.0000
  O   O15       1.0  0.24980  0.69220  0.85359  1.0000
  O   O16       1.0  0.75020  0.30780  0.85359  1.0000
  P   P1        1.0  0.13148  0.37818  0.36147  1.0000
  P   P2        1.0  0.86852  0.62182  0.36147  1.0000
  P   P3        1.0  0.36852  0.87818  0.63853  1.0000
  P   P4        1.0  0.63148  0.12182  0.63853  1.0000
  P   P5        1.0  0.63148  0.87818  0.86147  1.0000
  P   P6        1.0  0.36852  0.12182  0.86147  1.0000
  P   P7        1.0  0.86852  0.37818  0.13853  1.0000
  P   P8        1.0  0.13148  0.62182  0.13853  1.0000
  P   P9        1.0  0.86852  0.62182  0.63853  1.0000
  P   P10       1.0  0.13148  0.37818  0.63853  1.0000
  P   P11       1.0  0.63148  0.12182  0.36147  1.0000
  P   P12       1.0  0.36852  0.87818  0.36147  1.0000
  P   P13       1.0  0.36852  0.12182  0.13853  1.0000
  P   P14       1.0  0.63148  0.87818  0.13853  1.0000
  P   P15       1.0  0.13148  0.62182  0.86147  1.0000
  P   P16       1.0  0.86852  0.37818  0.86147  1.0000
  C   C1        1.0  0.17700  0.43260  0.43840  1.0000
  C   C2        1.0  0.82300  0.56740  0.43840  1.0000
  C   C3        1.0  0.32300  0.93260  0.56160  1.0000
  C   C4        1.0  0.67700  0.06740  0.56160  1.0000
  C   C5        1.0  0.67700  0.93260  0.93840  1.0000
  C   C6        1.0  0.32300  0.06740  0.93840  1.0000
  C   C7        1.0  0.82300  0.43260  0.06160  1.0000
  C   C8        1.0  0.17700  0.56740  0.06160  1.0000
  C   C9        1.0  0.82300  0.56740  0.56160  1.0000
  C   C10       1.0  0.17700  0.43260  0.56160  1.0000
  C   C11       1.0  0.67700  0.06740  0.43840  1.0000
  C   C12       1.0  0.32300  0.93260  0.43840  1.0000
  C   C13       1.0  0.32300  0.06740  0.06160  1.0000
  C   C14       1.0  0.67700  0.93260  0.06160  1.0000
  C   C15       1.0  0.17700  0.56740  0.93840  1.0000
  C   C16       1.0  0.82300  0.43260  0.93840  1.0000
  Zn  Zn17      1.0  0.00000  0.50000  0.25000  1.0000
  Zn  Zn18      1.0  0.50000  0.00000  0.75000  1.0000
  Zn  Zn19      1.0  0.00000  0.50000  0.75000  1.0000
  Zn  Zn20      1.0  0.50000  0.00000  0.25000  1.0000
  O   O17       1.0  0.14940  0.43769  0.30282  1.0000
  O   O18       1.0  0.85060  0.56231  0.30282  1.0000
  O   O19       1.0  0.35060  0.93769  0.69718  1.0000
  O   O20       1.0  0.64940  0.06231  0.69718  1.0000
  O   O21       1.0  0.64940  0.93769  0.80282  1.0000
  O   O22       1.0  0.35060  0.06231  0.80282  1.0000
  O   O23       1.0  0.85060  0.43769  0.19718  1.0000
  O   O24       1.0  0.14940  0.56231  0.19718  1.0000
  O   O25       1.0  0.85060  0.56231  0.69718  1.0000
  O   O26       1.0  0.14940  0.43769  0.69718  1.0000
  O   O27       1.0  0.64940  0.06231  0.30282  1.0000
  O   O28       1.0  0.35060  0.93769  0.30282  1.0000
  O   O29       1.0  0.35060  0.06231  0.19718  1.0000
  O   O30       1.0  0.64940  0.93769  0.19718  1.0000
  O   O31       1.0  0.14940  0.56231  0.80282  1.0000
  O   O32       1.0  0.85060  0.43769  0.80282  1.0000
  P   P17       1.0  0.34682  0.65552  0.50000  1.0000
  P   P18       1.0  0.65318  0.34448  0.50000  1.0000
  P   P19       1.0  0.15318  0.15552  0.50000  1.0000
  P   P20       1.0  0.84682  0.84448  0.50000  1.0000
  P   P21       1.0  0.84682  0.15552  0.00000  1.0000
  P   P22       1.0  0.15318  0.84448  0.00000  1.0000
  P   P23       1.0  0.65318  0.65552  0.00000  1.0000
  P   P24       1.0  0.34682  0.34448  0.00000  1.0000
  C   C17       1.0  0.24480  0.51100  0.43910  1.0000
  C   C18       1.0  0.75520  0.48900  0.43910  1.0000
  C   C19       1.0  0.25520  0.01100  0.56090  1.0000
  C   C20       1.0  0.74480  0.98900  0.56090  1.0000
  C   C21       1.0  0.74480  0.01100  0.93910  1.0000
  C   C22       1.0  0.25520  0.98900  0.93910  1.0000
  C   C23       1.0  0.75520  0.51100  0.06090  1.0000
  C   C24       1.0  0.24480  0.48900  0.06090  1.0000
  C   C25       1.0  0.75520  0.48900  0.56090  1.0000
  C   C26       1.0  0.24480  0.51100  0.56090  1.0000
  C   C27       1.0  0.74480  0.98900  0.43910  1.0000
  C   C28       1.0  0.25520  0.01100  0.43910  1.0000
  C   C29       1.0  0.25520  0.98900  0.06090  1.0000
  C   C30       1.0  0.74480  0.01100  0.06090  1.0000
  C   C31       1.0  0.24480  0.48900  0.93910  1.0000
  C   C32       1.0  0.75520  0.51100  0.93910  1.0000
  H   H1        1.0  0.26910  0.53710  0.39850  1.0000
  H   H2        1.0  0.73090  0.46290  0.39850  1.0000
  H   H3        1.0  0.23090  0.03710  0.60150  1.0000
  H   H4        1.0  0.76910  0.96290  0.60150  1.0000
  H   H5        1.0  0.76910  0.03710  0.89850  1.0000
  H   H6        1.0  0.23090  0.96290  0.89850  1.0000
  H   H7        1.0  0.73090  0.53710  0.10150  1.0000
  H   H8        1.0  0.26910  0.46290  0.10150  1.0000
  H   H9        1.0  0.73090  0.46290  0.60150  1.0000
  H   H10       1.0  0.26910  0.53710  0.60150  1.0000
  H   H11       1.0  0.76910  0.96290  0.39850  1.0000
  H   H12       1.0  0.23090  0.03710  0.39850  1.0000
  H   H13       1.0  0.23090  0.96290  0.10150  1.0000
  H   H14       1.0  0.76910  0.03710  0.10150  1.0000
  H   H15       1.0  0.26910  0.46290  0.89850  1.0000
  H   H16       1.0  0.73090  0.53710  0.89850  1.0000
  O   O33       1.0  0.96440  0.34455  0.36710  1.0000
  O   O34       1.0  0.03560  0.65545  0.36710  1.0000
  O   O35       1.0  0.53560  0.84455  0.63290  1.0000
  O   O36       1.0  0.46440  0.15545  0.63290  1.0000
  O   O37       1.0  0.46440  0.84455  0.86710  1.0000
  O   O38       1.0  0.53560  0.15545  0.86710  1.0000
  O   O39       1.0  0.03560  0.34455  0.13290  1.0000
  O   O40       1.0  0.96440  0.65545  0.13290  1.0000
  O   O41       1.0  0.03560  0.65545  0.63290  1.0000
  O   O42       1.0  0.96440  0.34455  0.63290  1.0000
  O   O43       1.0  0.46440  0.15545  0.36710  1.0000
  O   O44       1.0  0.53560  0.84455  0.36710  1.0000
  O   O45       1.0  0.53560  0.15545  0.13290  1.0000
  O   O46       1.0  0.46440  0.84455  0.13290  1.0000
  O   O47       1.0  0.96440  0.65545  0.86710  1.0000
  O   O48       1.0  0.03560  0.34455  0.86710  1.0000
  C   C33       1.0  0.27640  0.55050  0.50000  1.0000
  C   C34       1.0  0.72360  0.44950  0.50000  1.0000
  C   C35       1.0  0.22360  0.05050  0.50000  1.0000
  C   C36       1.0  0.77640  0.94950  0.50000  1.0000
  C   C37       1.0  0.77640  0.05050  0.00000  1.0000
  C   C38       1.0  0.22360  0.94950  0.00000  1.0000
  C   C39       1.0  0.72360  0.55050  0.00000  1.0000
  C   C40       1.0  0.27640  0.44950  0.00000  1.0000
  O   O49       1.0  0.19910  0.71370  0.50000  1.0000
  O   O50       1.0  0.80090  0.28630  0.50000  1.0000
  O   O51       1.0  0.30090  0.21370  0.50000  1.0000
  O   O52       1.0  0.69910  0.78630  0.50000  1.0000
  O   O53       1.0  0.69910  0.21370  0.00000  1.0000
  O   O54       1.0  0.30090  0.78630  0.00000  1.0000
  O   O55       1.0  0.80090  0.71370  0.00000  1.0000
  O   O56       1.0  0.19910  0.28630  0.00000  1.0000
  C   C41       1.0  0.14220  0.39570  0.50000  1.0000
  C   C42       1.0  0.85780  0.60430  0.50000  1.0000
  C   C43       1.0  0.35780  0.89570  0.50000  1.0000
  C   C44       1.0  0.64220  0.10430  0.50000  1.0000
  C   C45       1.0  0.64220  0.89570  0.00000  1.0000
  C   C46       1.0  0.35780  0.10430  0.00000  1.0000
  C   C47       1.0  0.85780  0.39570  0.00000  1.0000
  C   C48       1.0  0.14220  0.60430  0.00000  1.0000
  H   H17       1.0  0.09370  0.34420  0.50000  1.0000
  H   H18       1.0  0.90630  0.65580  0.50000  1.0000
  H   H19       1.0  0.40630  0.84420  0.50000  1.0000
  H   H20       1.0  0.59370  0.15580  0.50000  1.0000
  H   H21       1.0  0.59370  0.84420  0.00000  1.0000
  H   H22       1.0  0.40630  0.15580  0.00000  1.0000
  H   H23       1.0  0.90630  0.34420  0.00000  1.0000
  H   H24       1.0  0.09370  0.65580  0.00000  1.0000
  O   O57       1.0  0.43780  0.67036  0.56433  1.0000
  O   O58       1.0  0.56220  0.32964  0.56433  1.0000
  O   O59       1.0  0.06220  0.17036  0.43567  1.0000
  O   O60       1.0  0.93780  0.82964  0.43567  1.0000
  O   O61       1.0  0.93780  0.17036  0.06433  1.0000
  O   O62       1.0  0.06220  0.82964  0.06433  1.0000
  O   O63       1.0  0.56220  0.67036  0.93567  1.0000
  O   O64       1.0  0.43780  0.32964  0.93567  1.0000
  O   O65       1.0  0.56220  0.32964  0.43567  1.0000
  O   O66       1.0  0.43780  0.67036  0.43567  1.0000
  O   O67       1.0  0.93780  0.82964  0.56433  1.0000
  O   O68       1.0  0.06220  0.17036  0.56433  1.0000
  O   O69       1.0  0.06220  0.82964  0.93567  1.0000
  O   O70       1.0  0.93780  0.17036  0.93567  1.0000
  O   O71       1.0  0.43780  0.32964  0.06433  1.0000
  O   O72       1.0  0.56220  0.67036  0.06433  1.0000
