data_image0
_chemical_formula_structural       Zn16O16P16C16Zn4O16P8C16H16O16C8O8C8H8O16
_chemical_formula_sum              "Zn20 O72 P24 C48 H24"
_cell_length_a       8.472
_cell_length_b       16.208
_cell_length_c       19.816
_cell_angle_alpha    90
_cell_angle_beta     90
_cell_angle_gamma    90

_space_group_name_H-M_alt    "P 1"
_space_group_IT_number       1

loop_
  _space_group_symop_operation_xyz
  'x, y, z'

loop_
  _atom_site_type_symbol
  _atom_site_label
  _atom_site_symmetry_multiplicity
  _atom_site_fract_x
  _atom_site_fract_y
  _atom_site_fract_z
  _atom_site_occupancy
  Zn  Zn1       1.0  0.39351  0.25344  0.41267  1.0000
  Zn  Zn2       1.0  0.60649  0.74656  0.41267  1.0000
  Zn  Zn3       1.0  0.10649  0.75344  0.58733  1.0000
  Zn  Zn4       1.0  0.89351  0.24656  0.58733  1.0000
  Zn  Zn5       1.0  0.89351  0.75344  0.91267  1.0000
  Zn  Zn6       1.0  0.10649  0.24656  0.91267  1.0000
  Zn  Zn7       1.0  0.60649  0.25344  0.08733  1.0000
  Zn  Zn8       1.0  0.39351  0.74656  0.08733  1.0000
  Zn  Zn9       1.0  0.60649  0.74656  0.58733  1.0000
  Zn  Zn10      1.0  0.39351  0.25344  0.58733  1.0000
  Zn  Zn11      1.0  0.89351  0.24656  0.41267  1.0000
  Zn  Zn12      1.0  0.10649  0.75344  0.41267  1.0000
  Zn  Zn13      1.0  0.10649  0.24656  0.08733  1.0000
  Zn  Zn14      1.0  0.89351  0.75344  0.08733  1.0000
  Zn  Zn15      1.0  0.39351  0.74656  0.91267  1.0000
  Zn  Zn16      1.0  0.60649  0.25344  0.91267  1.0000
  O   O1        1.0  0.24960  0.30770  0.35364  1.0000
  O   O2        1.0  0.75040  0.69230  0.35364  1.0000
  O   O3        1.0  0.25040  0.80770  0.64636  1.0000
  O   O4        1.0  0.74960  0.19230  0.64636  1.0000
  O   O5        1.0  0.74960  0.80770  0.85364  1.0000
  O   O6        1.0  0.25040  0.19230  0.85364  1.0000
  O   O7        1.0  0.75040  0.30770  0.14636  1.0000
  O   O8        1.0  0.24960  0.69230  0.14636  1.0000
  O   O9        1.0  0.75040  0.69230  0.64636  1.0000
  O   O10       1.0  0.24960  0.30770  0.64636  1.0000
  O   O11       1.0  0.74960  0.19230  0.35364  1.0000
  O   O12       1.0  0.25040  0.80770  0.35364  1.0000
  O   O13       1.0  0.25040  0.19230  0.14636  1.0000
  O   O14       1.0  0.74960  0.80770  0.14636  1.0000
  O   O15       1.0  0.24960  0.69230  0.85364  1.0000
  O   O16       1.0  0.75040  0.30770  0.85364  1.0000
  P   P1        1.0  0.13154  0.37815  0.36144  1.0000
  P   P2        1.0  0.86846  0.62185  0.36144  1.0000
  P   P3        1.0  0.36846  0.87815  0.63856  1.0000
  P   P4        1.0  0.63154  0.12185  0.63856  1.0000
  P   P5        1.0  0.63154  0.87815  0.86144  1.0000
  P   P6        1.0  0.36846  0.12185  0.86144  1.0000
  P   P7        1.0  0.86846  0.37815  0.13856  1.0000
  P   P8        1.0  0.13154  0.62185  0.13856  1.0000
  P   P9        1.0  0.86846  0.62185  0.63856  1.0000
  P   P10       1.0  0.13154  0.37815  0.63856  1.0000
  P   P11       1.0  0.63154  0.12185  0.36144  1.0000
  P   P12       1.0  0.36846  0.87815  0.36144  1.0000
  P   P13       1.0  0.36846  0.12185  0.13856  1.0000
  P   P14       1.0  0.63154  0.87815  0.13856  1.0000
  P   P15       1.0  0.13154  0.62185  0.86144  1.0000
  P   P16       1.0  0.86846  0.37815  0.86144  1.0000
  C   C1        1.0  0.17680  0.43260  0.43834  1.0000
  C   C2        1.0  0.82320  0.56740  0.43834  1.0000
  C   C3        1.0  0.32320  0.93260  0.56166  1.0000
  C   C4        1.0  0.67680  0.06740  0.56166  1.0000
  C   C5        1.0  0.67680  0.93260  0.93834  1.0000
  C   C6        1.0  0.32320  0.06740  0.93834  1.0000
  C   C7        1.0  0.82320  0.43260  0.06166  1.0000
  C   C8        1.0  0.17680  0.56740  0.06166  1.0000
  C   C9        1.0  0.82320  0.56740  0.56166  1.0000
  C   C10       1.0  0.17680  0.43260  0.56166  1.0000
  C   C11       1.0  0.67680  0.06740  0.43834  1.0000
  C   C12       1.0  0.32320  0.93260  0.43834  1.0000
  C   C13       1.0  0.32320  0.06740  0.06166  1.0000
  C   C14       1.0  0.67680  0.93260  0.06166  1.0000
  C   C15       1.0  0.17680  0.56740  0.93834  1.0000
  C   C16       1.0  0.82320  0.43260  0.93834  1.0000
  Zn  Zn17      1.0  0.00000  0.50000  0.25000  1.0000
  Zn  Zn18      1.0  0.50000  0.00000  0.75000  1.0000
  Zn  Zn19      1.0  0.00000  0.50000  0.75000  1.0000
  Zn  Zn20      1.0  0.50000  0.00000  0.25000  1.0000
  O   O17       1.0  0.14940  0.43752  0.30284  1.0000
  O   O18       1.0  0.85060  0.56248  0.30284  1.0000
  O   O19       1.0  0.35060  0.93752  0.69716  1.0000
  O   O20       1.0  0.64940  0.06248  0.69716  1.0000
  O   O21       1.0  0.64940  0.93752  0.80284  1.0000
  O   O22       1.0  0.35060  0.06248  0.80284  1.0000
  O   O23       1.0  0.85060  0.43752  0.19716  1.0000
  O   O24       1.0  0.14940  0.56248  0.19716  1.0000
  O   O25       1.0  0.85060  0.56248  0.69716  1.0000
  O   O26       1.0  0.14940  0.43752  0.69716  1.0000
  O   O27       1.0  0.64940  0.06248  0.30284  1.0000
  O   O28       1.0  0.35060  0.93752  0.30284  1.0000
  O   O29       1.0  0.35060  0.06248  0.19716  1.0000
  O   O30       1.0  0.64940  0.93752  0.19716  1.0000
  O   O31       1.0  0.14940  0.56248  0.80284  1.0000
  O   O32       1.0  0.85060  0.43752  0.80284  1.0000
  P   P17       1.0  0.34688  0.65555  0.50000  1.0000
  P   P18       1.0  0.65312  0.34445  0.50000  1.0000
  P   P19       1.0  0.15312  0.15555  0.50000  1.0000
  P   P20       1.0  0.84688  0.84445  0.50000  1.0000
  P   P21       1.0  0.84688  0.15555  0.00000  1.0000
  P   P22       1.0  0.15312  0.84445  0.00000  1.0000
  P   P23       1.0  0.65312  0.65555  0.00000  1.0000
  P   P24       1.0  0.34688  0.34445  0.00000  1.0000
  C   C17       1.0  0.24450  0.51100  0.43896  1.0000
  C   C18       1.0  0.75550  0.48900  0.43896  1.0000
  C   C19       1.0  0.25550  0.01100  0.56104  1.0000
  C   C20       1.0  0.74450  0.98900  0.56104  1.0000
  C   C21       1.0  0.74450  0.01100  0.93896  1.0000
  C   C22       1.0  0.25550  0.98900  0.93896  1.0000
  C   C23       1.0  0.75550  0.51100  0.06104  1.0000
  C   C24       1.0  0.24450  0.48900  0.06104  1.0000
  C   C25       1.0  0.75550  0.48900  0.56104  1.0000
  C   C26       1.0  0.24450  0.51100  0.56104  1.0000
  C   C27       1.0  0.74450  0.98900  0.43896  1.0000
  C   C28       1.0  0.25550  0.01100  0.43896  1.0000
  C   C29       1.0  0.25550  0.98900  0.06104  1.0000
  C   C30       1.0  0.74450  0.01100  0.06104  1.0000
  C   C31       1.0  0.24450  0.48900  0.93896  1.0000
  C   C32       1.0  0.75550  0.51100  0.93896  1.0000
  H   H1        1.0  0.26870  0.53690  0.39840  1.0000
  H   H2        1.0  0.73130  0.46310  0.39840  1.0000
  H   H3        1.0  0.23130  0.03690  0.60160  1.0000
  H   H4        1.0  0.76870  0.96310  0.60160  1.0000
  H   H5        1.0  0.76870  0.03690  0.89840  1.0000
  H   H6        1.0  0.23130  0.96310  0.89840  1.0000
  H   H7        1.0  0.73130  0.53690  0.10160  1.0000
  H   H8        1.0  0.26870  0.46310  0.10160  1.0000
  H   H9        1.0  0.73130  0.46310  0.60160  1.0000
  H   H10       1.0  0.26870  0.53690  0.60160  1.0000
  H   H11       1.0  0.76870  0.96310  0.39840  1.0000
  H   H12       1.0  0.23130  0.03690  0.39840  1.0000
  H   H13       1.0  0.23130  0.96310  0.10160  1.0000
  H   H14       1.0  0.76870  0.03690  0.10160  1.0000
  H   H15       1.0  0.26870  0.46310  0.89840  1.0000
  H   H16       1.0  0.73130  0.53690  0.89840  1.0000
  O   O33       1.0  0.96430  0.34452  0.36706  1.0000
  O   O34       1.0  0.03570  0.65548  0.36706  1.0000
  O   O35       1.0  0.53570  0.84452  0.63294  1.0000
  O   O36       1.0  0.46430  0.15548  0.63294  1.0000
  O   O37       1.0  0.46430  0.84452  0.86706  1.0000
  O   O38       1.0  0.53570  0.15548  0.86706  1.0000
  O   O39       1.0  0.03570  0.34452  0.13294  1.0000
  O   O40       1.0  0.96430  0.65548  0.13294  1.0000
  O   O41       1.0  0.03570  0.65548  0.63294  1.0000
  O   O42       1.0  0.96430  0.34452  0.63294  1.0000
  O   O43       1.0  0.46430  0.15548  0.36706  1.0000
  O   O44       1.0  0.53570  0.84452  0.36706  1.0000
  O   O45       1.0  0.53570  0.15548  0.13294  1.0000
  O   O46       1.0  0.46430  0.84452  0.13294  1.0000
  O   O47       1.0  0.96430  0.65548  0.86706  1.0000
  O   O48       1.0  0.03570  0.34452  0.86706  1.0000
  C   C33       1.0  0.27620  0.55080  0.50000  1.0000
  C   C34       1.0  0.72380  0.44920  0.50000  1.0000
  C   C35       1.0  0.22380  0.05080  0.50000  1.0000
  C   C36       1.0  0.77620  0.94920  0.50000  1.0000
  C   C37       1.0  0.77620  0.05080  0.00000  1.0000
  C   C38       1.0  0.22380  0.94920  0.00000  1.0000
  C   C39       1.0  0.72380  0.55080  0.00000  1.0000
  C   C40       1.0  0.27620  0.44920  0.00000  1.0000
  O   O49       1.0  0.19900  0.71370  0.50000  1.0000
  O   O50       1.0  0.80100  0.28630  0.50000  1.0000
  O   O51       1.0  0.30100  0.21370  0.50000  1.0000
  O   O52       1.0  0.69900  0.78630  0.50000  1.0000
  O   O53       1.0  0.69900  0.21370  0.00000  1.0000
  O   O54       1.0  0.30100  0.78630  0.00000  1.0000
  O   O55       1.0  0.80100  0.71370  0.00000  1.0000
  O   O56       1.0  0.19900  0.28630  0.00000  1.0000
  C   C41       1.0  0.14140  0.39590  0.50000  1.0000
  C   C42       1.0  0.85860  0.60410  0.50000  1.0000
  C   C43       1.0  0.35860  0.89590  0.50000  1.0000
  C   C44       1.0  0.64140  0.10410  0.50000  1.0000
  C   C45       1.0  0.64140  0.89590  0.00000  1.0000
  C   C46       1.0  0.35860  0.10410  0.00000  1.0000
  C   C47       1.0  0.85860  0.39590  0.00000  1.0000
  C   C48       1.0  0.14140  0.60410  0.00000  1.0000
  H   H17       1.0  0.09210  0.34460  0.50000  1.0000
  H   H18       1.0  0.90790  0.65540  0.50000  1.0000
  H   H19       1.0  0.40790  0.84460  0.50000  1.0000
  H   H20       1.0  0.59210  0.15540  0.50000  1.0000
  H   H21       1.0  0.59210  0.84460  0.00000  1.0000
  H   H22       1.0  0.40790  0.15540  0.00000  1.0000
  H   H23       1.0  0.90790  0.34460  0.00000  1.0000
  H   H24       1.0  0.09210  0.65540  0.00000  1.0000
  O   O57       1.0  0.43810  0.67028  0.56410  1.0000
  O   O58       1.0  0.56190  0.32972  0.56410  1.0000
  O   O59       1.0  0.06190  0.17028  0.43590  1.0000
  O   O60       1.0  0.93810  0.82972  0.43590  1.0000
  O   O61       1.0  0.93810  0.17028  0.06410  1.0000
  O   O62       1.0  0.06190  0.82972  0.06410  1.0000
  O   O63       1.0  0.56190  0.67028  0.93590  1.0000
  O   O64       1.0  0.43810  0.32972  0.93590  1.0000
  O   O65       1.0  0.56190  0.32972  0.43590  1.0000
  O   O66       1.0  0.43810  0.67028  0.43590  1.0000
  O   O67       1.0  0.93810  0.82972  0.56410  1.0000
  O   O68       1.0  0.06190  0.17028  0.56410  1.0000
  O   O69       1.0  0.06190  0.82972  0.93590  1.0000
  O   O70       1.0  0.93810  0.17028  0.93590  1.0000
  O   O71       1.0  0.43810  0.32972  0.06410  1.0000
  O   O72       1.0  0.56190  0.67028  0.06410  1.0000
