data_image0
_chemical_formula_structural       O80C24O8C16H8C8H8C16H8C8H8C8H8C8H8C8H8C4H4C8H8C8H8U16O24C8
_chemical_formula_sum              "O112 C124 H76 U16"
_cell_length_a       17.8701
_cell_length_b       13.8872
_cell_length_c       18.4391
_cell_angle_alpha    90
_cell_angle_beta     92.262
_cell_angle_gamma    90

_space_group_name_H-M_alt    "P 1"
_space_group_IT_number       1

loop_
  _space_group_symop_operation_xyz
  'x, y, z'

loop_
  _atom_site_type_symbol
  _atom_site_label
  _atom_site_symmetry_multiplicity
  _atom_site_fract_x
  _atom_site_fract_y
  _atom_site_fract_z
  _atom_site_occupancy
  O   O1        1.0  0.21921  0.00562  0.04030  1.0000
  O   O2        1.0  0.78079  0.00562  0.45970  1.0000
  O   O3        1.0  0.71921  0.50562  0.04030  1.0000
  O   O4        1.0  0.28079  0.50562  0.45970  1.0000
  O   O5        1.0  0.78079  0.99438  0.95970  1.0000
  O   O6        1.0  0.21921  0.99438  0.54030  1.0000
  O   O7        1.0  0.28079  0.49438  0.95970  1.0000
  O   O8        1.0  0.71921  0.49438  0.54030  1.0000
  O   O9        1.0  0.41706  0.36700  0.94499  1.0000
  O   O10       1.0  0.58294  0.36700  0.55501  1.0000
  O   O11       1.0  0.91706  0.86700  0.94499  1.0000
  O   O12       1.0  0.08294  0.86700  0.55501  1.0000
  O   O13       1.0  0.58294  0.63300  0.05501  1.0000
  O   O14       1.0  0.41706  0.63300  0.44499  1.0000
  O   O15       1.0  0.08294  0.13300  0.05501  1.0000
  O   O16       1.0  0.91706  0.13300  0.44499  1.0000
  O   O17       1.0  0.26156  0.25550  0.18285  1.0000
  O   O18       1.0  0.73844  0.25550  0.31715  1.0000
  O   O19       1.0  0.76156  0.75550  0.18285  1.0000
  O   O20       1.0  0.23844  0.75550  0.31715  1.0000
  O   O21       1.0  0.73844  0.74450  0.81715  1.0000
  O   O22       1.0  0.26156  0.74450  0.68285  1.0000
  O   O23       1.0  0.23844  0.24450  0.81715  1.0000
  O   O24       1.0  0.76156  0.24450  0.68285  1.0000
  O   O25       1.0  0.45425  0.41930  0.20927  1.0000
  O   O26       1.0  0.54575  0.41930  0.29073  1.0000
  O   O27       1.0  0.95425  0.91930  0.20927  1.0000
  O   O28       1.0  0.04575  0.91930  0.29073  1.0000
  O   O29       1.0  0.54575  0.58070  0.79073  1.0000
  O   O30       1.0  0.45425  0.58070  0.70927  1.0000
  O   O31       1.0  0.04575  0.08070  0.79073  1.0000
  O   O32       1.0  0.95425  0.08070  0.70927  1.0000
  O   O33       1.0  0.14092  0.31164  0.09120  1.0000
  O   O34       1.0  0.85908  0.31164  0.40880  1.0000
  O   O35       1.0  0.64092  0.81164  0.09120  1.0000
  O   O36       1.0  0.35908  0.81164  0.40880  1.0000
  O   O37       1.0  0.85908  0.68836  0.90880  1.0000
  O   O38       1.0  0.14092  0.68836  0.59120  1.0000
  O   O39       1.0  0.35908  0.18836  0.90880  1.0000
  O   O40       1.0  0.64092  0.18836  0.59120  1.0000
  O   O41       1.0  0.44894  0.39540  0.06007  1.0000
  O   O42       1.0  0.55106  0.39540  0.43993  1.0000
  O   O43       1.0  0.94894  0.89540  0.06007  1.0000
  O   O44       1.0  0.05106  0.89540  0.43993  1.0000
  O   O45       1.0  0.55106  0.60460  0.93993  1.0000
  O   O46       1.0  0.44894  0.60460  0.56007  1.0000
  O   O47       1.0  0.05106  0.10460  0.93993  1.0000
  O   O48       1.0  0.94894  0.10460  0.56007  1.0000
  O   O49       1.0  0.16628  0.97359  0.93280  1.0000
  O   O50       1.0  0.83372  0.97359  0.56720  1.0000
  O   O51       1.0  0.66628  0.47359  0.93280  1.0000
  O   O52       1.0  0.33372  0.47359  0.56720  1.0000
  O   O53       1.0  0.83372  0.02641  0.06720  1.0000
  O   O54       1.0  0.16628  0.02641  0.43280  1.0000
  O   O55       1.0  0.33372  0.52641  0.06720  1.0000
  O   O56       1.0  0.66628  0.52641  0.43280  1.0000
  O   O57       1.0  0.17596  0.09320  0.17867  1.0000
  O   O58       1.0  0.82404  0.09320  0.32133  1.0000
  O   O59       1.0  0.67596  0.59320  0.17867  1.0000
  O   O60       1.0  0.32404  0.59320  0.32133  1.0000
  O   O61       1.0  0.82404  0.90680  0.82133  1.0000
  O   O62       1.0  0.17596  0.90680  0.67867  1.0000
  O   O63       1.0  0.32404  0.40680  0.82133  1.0000
  O   O64       1.0  0.67596  0.40680  0.67867  1.0000
  O   O65       1.0  0.17507  0.01080  0.27840  1.0000
  O   O66       1.0  0.82493  0.01080  0.22160  1.0000
  O   O67       1.0  0.67507  0.51080  0.27840  1.0000
  O   O68       1.0  0.32493  0.51080  0.22160  1.0000
  O   O69       1.0  0.82493  0.98920  0.72160  1.0000
  O   O70       1.0  0.17507  0.98920  0.77840  1.0000
  O   O71       1.0  0.32493  0.48920  0.72160  1.0000
  O   O72       1.0  0.67507  0.48920  0.77840  1.0000
  O   O73       1.0  0.21435  0.43320  0.13050  1.0000
  O   O74       1.0  0.78565  0.43320  0.36950  1.0000
  O   O75       1.0  0.71435  0.93320  0.13050  1.0000
  O   O76       1.0  0.28565  0.93320  0.36950  1.0000
  O   O77       1.0  0.78565  0.56680  0.86950  1.0000
  O   O78       1.0  0.21435  0.56680  0.63050  1.0000
  O   O79       1.0  0.28565  0.06680  0.86950  1.0000
  O   O80       1.0  0.71435  0.06680  0.63050  1.0000
  C   C1        1.0  0.15230  0.39790  0.11100  1.0000
  C   C2        1.0  0.84770  0.39790  0.38900  1.0000
  C   C3        1.0  0.65230  0.89790  0.11100  1.0000
  C   C4        1.0  0.34770  0.89790  0.38900  1.0000
  C   C5        1.0  0.84770  0.60210  0.88900  1.0000
  C   C6        1.0  0.15230  0.60210  0.61100  1.0000
  C   C7        1.0  0.34770  0.10210  0.88900  1.0000
  C   C8        1.0  0.65230  0.10210  0.61100  1.0000
  C   C9        1.0  0.08610  0.46340  0.11170  1.0000
  C   C10       1.0  0.91390  0.46340  0.38830  1.0000
  C   C11       1.0  0.58610  0.96340  0.11170  1.0000
  C   C12       1.0  0.41390  0.96340  0.38830  1.0000
  C   C13       1.0  0.91390  0.53660  0.88830  1.0000
  C   C14       1.0  0.08610  0.53660  0.61170  1.0000
  C   C15       1.0  0.41390  0.03660  0.88830  1.0000
  C   C16       1.0  0.58610  0.03660  0.61170  1.0000
  C   C17       1.0  0.96400  0.58510  0.11520  1.0000
  C   C18       1.0  0.03600  0.58510  0.38480  1.0000
  C   C19       1.0  0.46400  0.08510  0.11520  1.0000
  C   C20       1.0  0.53600  0.08510  0.38480  1.0000
  C   C21       1.0  0.03600  0.41490  0.88480  1.0000
  C   C22       1.0  0.96400  0.41490  0.61520  1.0000
  C   C23       1.0  0.53600  0.91490  0.88480  1.0000
  C   C24       1.0  0.46400  0.91490  0.61520  1.0000
  O   O81       1.0  0.33190  0.30780  0.27136  1.0000
  O   O82       1.0  0.66810  0.30780  0.22864  1.0000
  O   O83       1.0  0.83190  0.80780  0.27136  1.0000
  O   O84       1.0  0.16810  0.80780  0.22864  1.0000
  O   O85       1.0  0.66810  0.69220  0.72864  1.0000
  O   O86       1.0  0.33190  0.69220  0.77136  1.0000
  O   O87       1.0  0.16810  0.19220  0.72864  1.0000
  O   O88       1.0  0.83190  0.19220  0.77136  1.0000
  C   C25       1.0  0.20240  0.94930  0.98960  1.0000
  C   C26       1.0  0.79760  0.94930  0.51040  1.0000
  C   C27       1.0  0.70240  0.44930  0.98960  1.0000
  C   C28       1.0  0.29760  0.44930  0.51040  1.0000
  C   C29       1.0  0.79760  0.05070  0.01040  1.0000
  C   C30       1.0  0.20240  0.05070  0.48960  1.0000
  C   C31       1.0  0.29760  0.55070  0.01040  1.0000
  C   C32       1.0  0.70240  0.55070  0.48960  1.0000
  C   C33       1.0  0.46190  0.38570  0.99550  1.0000
  C   C34       1.0  0.53810  0.38570  0.50450  1.0000
  C   C35       1.0  0.96190  0.88570  0.99550  1.0000
  C   C36       1.0  0.03810  0.88570  0.50450  1.0000
  C   C37       1.0  0.53810  0.61430  0.00450  1.0000
  C   C38       1.0  0.46190  0.61430  0.49550  1.0000
  C   C39       1.0  0.03810  0.11430  0.00450  1.0000
  C   C40       1.0  0.96190  0.11430  0.49550  1.0000
  H   H1        1.0  0.51150  0.39330  0.98330  1.0000
  H   H2        1.0  0.48850  0.39330  0.51670  1.0000
  H   H3        1.0  0.01150  0.89330  0.98330  1.0000
  H   H4        1.0  0.98850  0.89330  0.51670  1.0000
  H   H5        1.0  0.48850  0.60670  0.01670  1.0000
  H   H6        1.0  0.51150  0.60670  0.48330  1.0000
  H   H7        1.0  0.98850  0.10670  0.01670  1.0000
  H   H8        1.0  0.01150  0.10670  0.48330  1.0000
  C   C41       1.0  0.95490  0.49070  0.09300  1.0000
  C   C42       1.0  0.04510  0.49070  0.40700  1.0000
  C   C43       1.0  0.45490  0.99070  0.09300  1.0000
  C   C44       1.0  0.54510  0.99070  0.40700  1.0000
  C   C45       1.0  0.04510  0.50930  0.90700  1.0000
  C   C46       1.0  0.95490  0.50930  0.59300  1.0000
  C   C47       1.0  0.54510  0.00930  0.90700  1.0000
  C   C48       1.0  0.45490  0.00930  0.59300  1.0000
  H   H9        1.0  0.90750  0.46810  0.07890  1.0000
  H   H10       1.0  0.09250  0.46810  0.42110  1.0000
  H   H11       1.0  0.40750  0.96810  0.07890  1.0000
  H   H12       1.0  0.59250  0.96810  0.42110  1.0000
  H   H13       1.0  0.09250  0.53190  0.92110  1.0000
  H   H14       1.0  0.90750  0.53190  0.57890  1.0000
  H   H15       1.0  0.59250  0.03190  0.92110  1.0000
  H   H16       1.0  0.40750  0.03190  0.57890  1.0000
  C   C49       1.0  0.22660  0.84590  0.99590  1.0000
  C   C50       1.0  0.77340  0.84590  0.50410  1.0000
  C   C51       1.0  0.72660  0.34590  0.99590  1.0000
  C   C52       1.0  0.27340  0.34590  0.50410  1.0000
  C   C53       1.0  0.77340  0.15410  0.00410  1.0000
  C   C54       1.0  0.22660  0.15410  0.49590  1.0000
  C   C55       1.0  0.27340  0.65410  0.00410  1.0000
  C   C56       1.0  0.72660  0.65410  0.49590  1.0000
  C   C57       1.0  0.21400  0.78350  0.93800  1.0000
  C   C58       1.0  0.78600  0.78350  0.56200  1.0000
  C   C59       1.0  0.71400  0.28350  0.93800  1.0000
  C   C60       1.0  0.28600  0.28350  0.56200  1.0000
  C   C61       1.0  0.78600  0.21650  0.06200  1.0000
  C   C62       1.0  0.21400  0.21650  0.43800  1.0000
  C   C63       1.0  0.28600  0.71650  0.06200  1.0000
  C   C64       1.0  0.71400  0.71650  0.43800  1.0000
  H   H17       1.0  0.19010  0.80590  0.89550  1.0000
  H   H18       1.0  0.80990  0.80590  0.60450  1.0000
  H   H19       1.0  0.69010  0.30590  0.89550  1.0000
  H   H20       1.0  0.30990  0.30590  0.60450  1.0000
  H   H21       1.0  0.80990  0.19410  0.10450  1.0000
  H   H22       1.0  0.19010  0.19410  0.39550  1.0000
  H   H23       1.0  0.30990  0.69410  0.10450  1.0000
  H   H24       1.0  0.69010  0.69410  0.39550  1.0000
  C   C65       1.0  0.03430  0.61890  0.13370  1.0000
  C   C66       1.0  0.96570  0.61890  0.36630  1.0000
  C   C67       1.0  0.53430  0.11890  0.13370  1.0000
  C   C68       1.0  0.46570  0.11890  0.36630  1.0000
  C   C69       1.0  0.96570  0.38110  0.86630  1.0000
  C   C70       1.0  0.03430  0.38110  0.63370  1.0000
  C   C71       1.0  0.46570  0.88110  0.86630  1.0000
  C   C72       1.0  0.53430  0.88110  0.63370  1.0000
  H   H25       1.0  0.04090  0.68280  0.14760  1.0000
  H   H26       1.0  0.95910  0.68280  0.35240  1.0000
  H   H27       1.0  0.54090  0.18280  0.14760  1.0000
  H   H28       1.0  0.45910  0.18280  0.35240  1.0000
  H   H29       1.0  0.95910  0.31720  0.85240  1.0000
  H   H30       1.0  0.04090  0.31720  0.64760  1.0000
  H   H31       1.0  0.45910  0.81720  0.85240  1.0000
  H   H32       1.0  0.54090  0.81720  0.64760  1.0000
  C   C73       1.0  0.01580  0.42980  0.09170  1.0000
  C   C74       1.0  0.98420  0.42980  0.40830  1.0000
  C   C75       1.0  0.51580  0.92980  0.09170  1.0000
  C   C76       1.0  0.48420  0.92980  0.40830  1.0000
  C   C77       1.0  0.98420  0.57020  0.90830  1.0000
  C   C78       1.0  0.01580  0.57020  0.59170  1.0000
  C   C79       1.0  0.48420  0.07020  0.90830  1.0000
  C   C80       1.0  0.51580  0.07020  0.59170  1.0000
  H   H33       1.0  0.00940  0.36600  0.07720  1.0000
  H   H34       1.0  0.99060  0.36600  0.42280  1.0000
  H   H35       1.0  0.50940  0.86600  0.07720  1.0000
  H   H36       1.0  0.49060  0.86600  0.42280  1.0000
  H   H37       1.0  0.99060  0.63400  0.92280  1.0000
  H   H38       1.0  0.00940  0.63400  0.57720  1.0000
  H   H39       1.0  0.49060  0.13400  0.92280  1.0000
  H   H40       1.0  0.50940  0.13400  0.57720  1.0000
  C   C81       1.0  0.26360  0.81100  0.05740  1.0000
  C   C82       1.0  0.73640  0.81100  0.44260  1.0000
  C   C83       1.0  0.76360  0.31100  0.05740  1.0000
  C   C84       1.0  0.23640  0.31100  0.44260  1.0000
  C   C85       1.0  0.73640  0.18900  0.94260  1.0000
  C   C86       1.0  0.26360  0.18900  0.55740  1.0000
  C   C87       1.0  0.23640  0.68900  0.94260  1.0000
  C   C88       1.0  0.76360  0.68900  0.55740  1.0000
  H   H41       1.0  0.27350  0.85210  0.09650  1.0000
  H   H42       1.0  0.72650  0.85210  0.40350  1.0000
  H   H43       1.0  0.77350  0.35210  0.09650  1.0000
  H   H44       1.0  0.22650  0.35210  0.40350  1.0000
  H   H45       1.0  0.72650  0.14790  0.90350  1.0000
  H   H46       1.0  0.27350  0.14790  0.59650  1.0000
  H   H47       1.0  0.22650  0.64790  0.90350  1.0000
  H   H48       1.0  0.77350  0.64790  0.59650  1.0000
  C   C89       1.0  0.09560  0.55820  0.13190  1.0000
  C   C90       1.0  0.90440  0.55820  0.36810  1.0000
  C   C91       1.0  0.59560  0.05820  0.13190  1.0000
  C   C92       1.0  0.40440  0.05820  0.36810  1.0000
  C   C93       1.0  0.90440  0.44180  0.86810  1.0000
  C   C94       1.0  0.09560  0.44180  0.63190  1.0000
  C   C95       1.0  0.40440  0.94180  0.86810  1.0000
  C   C96       1.0  0.59560  0.94180  0.63190  1.0000
  H   H49       1.0  0.14320  0.58140  0.14430  1.0000
  H   H50       1.0  0.85680  0.58140  0.35570  1.0000
  H   H51       1.0  0.64320  0.08140  0.14430  1.0000
  H   H52       1.0  0.35680  0.08140  0.35570  1.0000
  H   H53       1.0  0.85680  0.41860  0.85570  1.0000
  H   H54       1.0  0.14320  0.41860  0.64430  1.0000
  H   H55       1.0  0.35680  0.91860  0.85570  1.0000
  H   H56       1.0  0.64320  0.91860  0.64430  1.0000
  C   C97       1.0  0.50000  0.37730  0.25000  1.0000
  C   C98       1.0  0.00000  0.87730  0.25000  1.0000
  C   C99       1.0  0.50000  0.62270  0.75000  1.0000
  C   C100      1.0  0.00000  0.12270  0.75000  1.0000
  H   H57       1.0  0.50000  0.31030  0.25000  1.0000
  H   H58       1.0  0.00000  0.81030  0.25000  1.0000
  H   H59       1.0  0.50000  0.68970  0.75000  1.0000
  H   H60       1.0  0.00000  0.18970  0.75000  1.0000
  C   C101      1.0  0.19080  0.02420  0.21630  1.0000
  C   C102      1.0  0.80920  0.02420  0.28370  1.0000
  C   C103      1.0  0.69080  0.52420  0.21630  1.0000
  C   C104      1.0  0.30920  0.52420  0.28370  1.0000
  C   C105      1.0  0.80920  0.97580  0.78370  1.0000
  C   C106      1.0  0.19080  0.97580  0.71630  1.0000
  C   C107      1.0  0.30920  0.47580  0.78370  1.0000
  C   C108      1.0  0.69080  0.47580  0.71630  1.0000
  H   H61       1.0  0.21770  0.97540  0.19470  1.0000
  H   H62       1.0  0.78230  0.97540  0.30530  1.0000
  H   H63       1.0  0.71770  0.47540  0.19470  1.0000
  H   H64       1.0  0.28230  0.47540  0.30530  1.0000
  H   H65       1.0  0.78230  0.02460  0.80530  1.0000
  H   H66       1.0  0.21770  0.02460  0.69470  1.0000
  H   H67       1.0  0.28230  0.52460  0.80530  1.0000
  H   H68       1.0  0.71770  0.52460  0.69470  1.0000
  C   C109      1.0  0.28500  0.25200  0.24720  1.0000
  C   C110      1.0  0.71500  0.25200  0.25280  1.0000
  C   C111      1.0  0.78500  0.75200  0.24720  1.0000
  C   C112      1.0  0.21500  0.75200  0.25280  1.0000
  C   C113      1.0  0.71500  0.74800  0.75280  1.0000
  C   C114      1.0  0.28500  0.74800  0.74720  1.0000
  C   C115      1.0  0.21500  0.24800  0.75280  1.0000
  C   C116      1.0  0.78500  0.24800  0.74720  1.0000
  H   H69       1.0  0.26600  0.20520  0.27760  1.0000
  H   H70       1.0  0.73400  0.20520  0.22240  1.0000
  H   H71       1.0  0.76600  0.70520  0.27760  1.0000
  H   H72       1.0  0.23400  0.70520  0.22240  1.0000
  H   H73       1.0  0.73400  0.79480  0.72240  1.0000
  H   H74       1.0  0.26600  0.79480  0.77760  1.0000
  H   H75       1.0  0.23400  0.29480  0.72240  1.0000
  H   H76       1.0  0.76600  0.29480  0.77760  1.0000
  U   U1        1.0  0.21257  0.17403  0.07296  1.0000
  U   U2        1.0  0.78743  0.17403  0.42704  1.0000
  U   U3        1.0  0.71257  0.67403  0.07296  1.0000
  U   U4        1.0  0.28743  0.67403  0.42704  1.0000
  U   U5        1.0  0.78743  0.82597  0.92704  1.0000
  U   U6        1.0  0.21257  0.82597  0.57296  1.0000
  U   U7        1.0  0.28743  0.32597  0.92704  1.0000
  U   U8        1.0  0.71257  0.32597  0.57296  1.0000
  U   U9        1.0  0.34388  0.38353  0.13602  1.0000
  U   U10       1.0  0.65612  0.38353  0.36398  1.0000
  U   U11       1.0  0.84388  0.88353  0.13602  1.0000
  U   U12       1.0  0.15612  0.88353  0.36398  1.0000
  U   U13       1.0  0.65612  0.61647  0.86398  1.0000
  U   U14       1.0  0.34388  0.61647  0.63602  1.0000
  U   U15       1.0  0.15612  0.11647  0.86398  1.0000
  U   U16       1.0  0.84388  0.11647  0.63602  1.0000
  O   O89       1.0  0.29257  0.30629  0.04336  1.0000
  O   O90       1.0  0.70743  0.30629  0.45664  1.0000
  O   O91       1.0  0.79257  0.80629  0.04336  1.0000
  O   O92       1.0  0.20743  0.80629  0.45664  1.0000
  O   O93       1.0  0.70743  0.69371  0.95664  1.0000
  O   O94       1.0  0.29257  0.69371  0.54336  1.0000
  O   O95       1.0  0.20743  0.19371  0.95664  1.0000
  O   O96       1.0  0.79257  0.19371  0.54336  1.0000
  O   O97       1.0  0.83574  0.61776  0.09500  1.0000
  O   O98       1.0  0.16426  0.61776  0.40500  1.0000
  O   O99       1.0  0.33574  0.11776  0.09500  1.0000
  O   O100      1.0  0.66426  0.11776  0.40500  1.0000
  O   O101      1.0  0.16426  0.38224  0.90500  1.0000
  O   O102      1.0  0.83574  0.38224  0.59500  1.0000
  O   O103      1.0  0.66426  0.88224  0.90500  1.0000
  O   O104      1.0  0.33574  0.88224  0.59500  1.0000
  O   O105      1.0  0.90944  0.73426  0.14083  1.0000
  O   O106      1.0  0.09056  0.73426  0.35917  1.0000
  O   O107      1.0  0.40944  0.23426  0.14083  1.0000
  O   O108      1.0  0.59056  0.23426  0.35917  1.0000
  O   O109      1.0  0.09056  0.26574  0.85917  1.0000
  O   O110      1.0  0.90944  0.26574  0.64083  1.0000
  O   O111      1.0  0.59056  0.76574  0.85917  1.0000
  O   O112      1.0  0.40944  0.76574  0.64083  1.0000
  C   C117      1.0  0.89830  0.65120  0.11700  1.0000
  C   C118      1.0  0.10170  0.65120  0.38300  1.0000
  C   C119      1.0  0.39830  0.15120  0.11700  1.0000
  C   C120      1.0  0.60170  0.15120  0.38300  1.0000
  C   C121      1.0  0.10170  0.34880  0.88300  1.0000
  C   C122      1.0  0.89830  0.34880  0.61700  1.0000
  C   C123      1.0  0.60170  0.84880  0.88300  1.0000
  C   C124      1.0  0.39830  0.84880  0.61700  1.0000
