data_image0
_chemical_formula_structural       Zn4O32N8C8H8C16H8C16H8C40H16C8H8C8H16
_chemical_formula_sum              "Zn4 O32 N8 C96 H64"
_cell_length_a       16.3117
_cell_length_b       12.9232
_cell_length_c       13.5307
_cell_angle_alpha    90
_cell_angle_beta     100.131
_cell_angle_gamma    90

_space_group_name_H-M_alt    "P 1"
_space_group_IT_number       1

loop_
  _space_group_symop_operation_xyz
  'x, y, z'

loop_
  _atom_site_type_symbol
  _atom_site_label
  _atom_site_symmetry_multiplicity
  _atom_site_fract_x
  _atom_site_fract_y
  _atom_site_fract_z
  _atom_site_occupancy
  Zn  Zn1       1.0  0.00000  0.66232  0.75000  1.0000
  Zn  Zn2       1.0  0.50000  0.16232  0.75000  1.0000
  Zn  Zn3       1.0  0.00000  0.33768  0.25000  1.0000
  Zn  Zn4       1.0  0.50000  0.83768  0.25000  1.0000
  O   O1        1.0  0.55497  0.25728  0.66637  1.0000
  O   O2        1.0  0.44503  0.25728  0.83363  1.0000
  O   O3        1.0  0.05497  0.75728  0.66637  1.0000
  O   O4        1.0  0.94503  0.75728  0.83363  1.0000
  O   O5        1.0  0.44503  0.74272  0.33363  1.0000
  O   O6        1.0  0.55497  0.74272  0.16637  1.0000
  O   O7        1.0  0.94503  0.24272  0.33363  1.0000
  O   O8        1.0  0.05497  0.24272  0.16637  1.0000
  O   O9        1.0  0.91572  0.57268  0.67014  1.0000
  O   O10       1.0  0.08428  0.57268  0.82986  1.0000
  O   O11       1.0  0.41572  0.07268  0.67014  1.0000
  O   O12       1.0  0.58428  0.07268  0.82986  1.0000
  O   O13       1.0  0.08428  0.42732  0.32986  1.0000
  O   O14       1.0  0.91572  0.42732  0.17014  1.0000
  O   O15       1.0  0.58428  0.92732  0.32986  1.0000
  O   O16       1.0  0.41572  0.92732  0.17014  1.0000
  O   O17       1.0  0.63994  0.29714  0.80893  1.0000
  O   O18       1.0  0.36006  0.29714  0.69107  1.0000
  O   O19       1.0  0.13994  0.79714  0.80893  1.0000
  O   O20       1.0  0.86006  0.79714  0.69107  1.0000
  O   O21       1.0  0.36006  0.70286  0.19107  1.0000
  O   O22       1.0  0.63994  0.70286  0.30893  1.0000
  O   O23       1.0  0.86006  0.20286  0.19107  1.0000
  O   O24       1.0  0.13994  0.20286  0.30893  1.0000
  O   O25       1.0  0.86826  0.54375  0.81333  1.0000
  O   O26       1.0  0.13174  0.54375  0.68667  1.0000
  O   O27       1.0  0.36826  0.04375  0.81333  1.0000
  O   O28       1.0  0.63174  0.04375  0.68667  1.0000
  O   O29       1.0  0.13174  0.45625  0.18667  1.0000
  O   O30       1.0  0.86826  0.45625  0.31333  1.0000
  O   O31       1.0  0.63174  0.95625  0.18667  1.0000
  O   O32       1.0  0.36826  0.95625  0.31333  1.0000
  N   N1        1.0  0.71247  0.40558  0.39956  1.0000
  N   N2        1.0  0.28753  0.40558  0.10044  1.0000
  N   N3        1.0  0.21247  0.90558  0.39956  1.0000
  N   N4        1.0  0.78753  0.90558  0.10044  1.0000
  N   N5        1.0  0.28753  0.59442  0.60044  1.0000
  N   N6        1.0  0.71247  0.59442  0.89956  1.0000
  N   N7        1.0  0.78753  0.09442  0.60044  1.0000
  N   N8        1.0  0.21247  0.09442  0.89956  1.0000
  C   C1        1.0  0.78216  0.46822  0.55842  1.0000
  C   C2        1.0  0.21784  0.46822  0.94158  1.0000
  C   C3        1.0  0.28216  0.96822  0.55842  1.0000
  C   C4        1.0  0.71784  0.96822  0.94158  1.0000
  C   C5        1.0  0.21784  0.53178  0.44158  1.0000
  C   C6        1.0  0.78216  0.53178  0.05842  1.0000
  C   C7        1.0  0.71784  0.03178  0.44158  1.0000
  C   C8        1.0  0.28216  0.03178  0.05842  1.0000
  H   H1        1.0  0.81960  0.50460  0.52460  1.0000
  H   H2        1.0  0.18040  0.50460  0.97540  1.0000
  H   H3        1.0  0.31960  0.00460  0.52460  1.0000
  H   H4        1.0  0.68040  0.00460  0.97540  1.0000
  H   H5        1.0  0.18040  0.49540  0.47540  1.0000
  H   H6        1.0  0.81960  0.49540  0.02460  1.0000
  H   H7        1.0  0.68040  0.99540  0.47540  1.0000
  H   H8        1.0  0.31960  0.99540  0.02460  1.0000
  C   C9        1.0  0.67348  0.36299  0.65785  1.0000
  C   C10       1.0  0.32652  0.36299  0.84215  1.0000
  C   C11       1.0  0.17348  0.86299  0.65785  1.0000
  C   C12       1.0  0.82652  0.86299  0.84215  1.0000
  C   C13       1.0  0.32652  0.63701  0.34215  1.0000
  C   C14       1.0  0.67348  0.63701  0.15785  1.0000
  C   C15       1.0  0.82652  0.13701  0.34215  1.0000
  C   C16       1.0  0.17348  0.13701  0.15785  1.0000
  C   C17       1.0  0.73666  0.42284  0.71212  1.0000
  C   C18       1.0  0.26334  0.42284  0.78788  1.0000
  C   C19       1.0  0.23666  0.92284  0.71212  1.0000
  C   C20       1.0  0.76334  0.92284  0.78788  1.0000
  C   C21       1.0  0.26334  0.57716  0.28788  1.0000
  C   C22       1.0  0.73666  0.57716  0.21212  1.0000
  C   C23       1.0  0.76334  0.07716  0.28788  1.0000
  C   C24       1.0  0.23666  0.07716  0.21212  1.0000
  H   H9        1.0  0.74240  0.42780  0.78310  1.0000
  H   H10       1.0  0.25760  0.42780  0.71690  1.0000
  H   H11       1.0  0.24240  0.92780  0.78310  1.0000
  H   H12       1.0  0.75760  0.92780  0.71690  1.0000
  H   H13       1.0  0.25760  0.57220  0.21690  1.0000
  H   H14       1.0  0.74240  0.57220  0.28310  1.0000
  H   H15       1.0  0.75760  0.07220  0.21690  1.0000
  H   H16       1.0  0.24240  0.07220  0.28310  1.0000
  C   C25       1.0  0.61920  0.30166  0.71634  1.0000
  C   C26       1.0  0.38080  0.30166  0.78366  1.0000
  C   C27       1.0  0.11920  0.80166  0.71634  1.0000
  C   C28       1.0  0.88080  0.80166  0.78366  1.0000
  C   C29       1.0  0.38080  0.69834  0.28366  1.0000
  C   C30       1.0  0.61920  0.69834  0.21634  1.0000
  C   C31       1.0  0.88080  0.19834  0.28366  1.0000
  C   C32       1.0  0.11920  0.19834  0.21634  1.0000
  C   C33       1.0  0.66404  0.35510  0.55339  1.0000
  C   C34       1.0  0.33596  0.35510  0.94661  1.0000
  C   C35       1.0  0.16404  0.85510  0.55339  1.0000
  C   C36       1.0  0.83596  0.85510  0.94661  1.0000
  C   C37       1.0  0.33596  0.64490  0.44661  1.0000
  C   C38       1.0  0.66404  0.64490  0.05339  1.0000
  C   C39       1.0  0.83596  0.14490  0.44661  1.0000
  C   C40       1.0  0.16404  0.14490  0.05339  1.0000
  H   H17       1.0  0.62070  0.31380  0.51720  1.0000
  H   H18       1.0  0.37930  0.31380  0.98280  1.0000
  H   H19       1.0  0.12070  0.81380  0.51720  1.0000
  H   H20       1.0  0.87930  0.81380  0.98280  1.0000
  H   H21       1.0  0.37930  0.68620  0.48280  1.0000
  H   H22       1.0  0.62070  0.68620  0.01720  1.0000
  H   H23       1.0  0.87930  0.18620  0.48280  1.0000
  H   H24       1.0  0.12070  0.18620  0.01720  1.0000
  C   C41       1.0  0.79154  0.47548  0.66197  1.0000
  C   C42       1.0  0.20846  0.47548  0.83803  1.0000
  C   C43       1.0  0.29154  0.97548  0.66197  1.0000
  C   C44       1.0  0.70846  0.97548  0.83803  1.0000
  C   C45       1.0  0.20846  0.52452  0.33803  1.0000
  C   C46       1.0  0.79154  0.52452  0.16197  1.0000
  C   C47       1.0  0.70846  0.02452  0.33803  1.0000
  C   C48       1.0  0.29154  0.02452  0.16197  1.0000
  C   C49       1.0  0.58344  0.32687  0.29756  1.0000
  C   C50       1.0  0.41656  0.32687  0.20244  1.0000
  C   C51       1.0  0.08344  0.82687  0.29756  1.0000
  C   C52       1.0  0.91656  0.82687  0.20244  1.0000
  C   C53       1.0  0.41656  0.67313  0.70244  1.0000
  C   C54       1.0  0.58344  0.67313  0.79756  1.0000
  C   C55       1.0  0.91656  0.17313  0.70244  1.0000
  C   C56       1.0  0.08344  0.17313  0.79756  1.0000
  C   C57       1.0  0.71856  0.40823  0.50227  1.0000
  C   C58       1.0  0.28144  0.40823  0.99773  1.0000
  C   C59       1.0  0.21856  0.90823  0.50227  1.0000
  C   C60       1.0  0.78144  0.90823  0.99773  1.0000
  C   C61       1.0  0.28144  0.59177  0.49773  1.0000
  C   C62       1.0  0.71856  0.59177  0.00227  1.0000
  C   C63       1.0  0.78144  0.09177  0.49773  1.0000
  C   C64       1.0  0.21856  0.09177  0.00227  1.0000
  C   C65       1.0  0.86314  0.53527  0.72083  1.0000
  C   C66       1.0  0.13686  0.53527  0.77917  1.0000
  C   C67       1.0  0.36314  0.03527  0.72083  1.0000
  C   C68       1.0  0.63686  0.03527  0.77917  1.0000
  C   C69       1.0  0.13686  0.46473  0.27917  1.0000
  C   C70       1.0  0.86314  0.46473  0.22083  1.0000
  C   C71       1.0  0.63686  0.96473  0.27917  1.0000
  C   C72       1.0  0.36314  0.96473  0.22083  1.0000
  C   C73       1.0  0.67586  0.31890  0.34176  1.0000
  C   C74       1.0  0.32414  0.31890  0.15824  1.0000
  C   C75       1.0  0.17586  0.81890  0.34176  1.0000
  C   C76       1.0  0.82414  0.81890  0.15824  1.0000
  C   C77       1.0  0.32414  0.68110  0.65824  1.0000
  C   C78       1.0  0.67586  0.68110  0.84176  1.0000
  C   C79       1.0  0.82414  0.18110  0.65824  1.0000
  C   C80       1.0  0.17586  0.18110  0.84176  1.0000
  H   H25       1.0  0.68430  0.25670  0.38500  1.0000
  H   H26       1.0  0.31570  0.25670  0.11500  1.0000
  H   H27       1.0  0.18430  0.75670  0.38500  1.0000
  H   H28       1.0  0.81570  0.75670  0.11500  1.0000
  H   H29       1.0  0.31570  0.74330  0.61500  1.0000
  H   H30       1.0  0.68430  0.74330  0.88500  1.0000
  H   H31       1.0  0.81570  0.24330  0.61500  1.0000
  H   H32       1.0  0.18430  0.24330  0.88500  1.0000
  H   H33       1.0  0.70670  0.30780  0.28590  1.0000
  H   H34       1.0  0.29330  0.30780  0.21410  1.0000
  H   H35       1.0  0.20670  0.80780  0.28590  1.0000
  H   H36       1.0  0.79330  0.80780  0.21410  1.0000
  H   H37       1.0  0.29330  0.69220  0.71410  1.0000
  H   H38       1.0  0.70670  0.69220  0.78590  1.0000
  H   H39       1.0  0.79330  0.19220  0.71410  1.0000
  H   H40       1.0  0.20670  0.19220  0.78590  1.0000
  C   C81       1.0  0.54200  0.41990  0.27363  1.0000
  C   C82       1.0  0.45800  0.41990  0.22637  1.0000
  C   C83       1.0  0.04200  0.91990  0.27363  1.0000
  C   C84       1.0  0.95800  0.91990  0.22637  1.0000
  C   C85       1.0  0.45800  0.58010  0.72637  1.0000
  C   C86       1.0  0.54200  0.58010  0.77363  1.0000
  C   C87       1.0  0.95800  0.08010  0.72637  1.0000
  C   C88       1.0  0.04200  0.08010  0.77363  1.0000
  H   H41       1.0  0.57040  0.48360  0.28920  1.0000
  H   H42       1.0  0.42960  0.48360  0.21080  1.0000
  H   H43       1.0  0.07040  0.98360  0.28920  1.0000
  H   H44       1.0  0.92960  0.98360  0.21080  1.0000
  H   H45       1.0  0.42960  0.51640  0.71080  1.0000
  H   H46       1.0  0.57040  0.51640  0.78920  1.0000
  H   H47       1.0  0.92960  0.01640  0.71080  1.0000
  H   H48       1.0  0.07040  0.01640  0.78920  1.0000
  C   C89       1.0  0.54143  0.23530  0.27451  1.0000
  C   C90       1.0  0.45857  0.23530  0.22549  1.0000
  C   C91       1.0  0.04143  0.73530  0.27451  1.0000
  C   C92       1.0  0.95857  0.73530  0.22549  1.0000
  C   C93       1.0  0.45857  0.76470  0.72549  1.0000
  C   C94       1.0  0.54143  0.76470  0.77451  1.0000
  C   C95       1.0  0.95857  0.26470  0.72549  1.0000
  C   C96       1.0  0.04143  0.26470  0.77451  1.0000
  H   H49       1.0  0.56900  0.17140  0.29210  1.0000
  H   H50       1.0  0.43100  0.17140  0.20790  1.0000
  H   H51       1.0  0.06900  0.67140  0.29210  1.0000
  H   H52       1.0  0.93100  0.67140  0.20790  1.0000
  H   H53       1.0  0.43100  0.82860  0.70790  1.0000
  H   H54       1.0  0.56900  0.82860  0.79210  1.0000
  H   H55       1.0  0.93100  0.32860  0.70790  1.0000
  H   H56       1.0  0.06900  0.32860  0.79210  1.0000
  H   H57       1.0  0.75350  0.42700  0.37470  1.0000
  H   H58       1.0  0.24650  0.42700  0.12530  1.0000
  H   H59       1.0  0.25350  0.92700  0.37470  1.0000
  H   H60       1.0  0.74650  0.92700  0.12530  1.0000
  H   H61       1.0  0.24650  0.57300  0.62530  1.0000
  H   H62       1.0  0.75350  0.57300  0.87470  1.0000
  H   H63       1.0  0.74650  0.07300  0.62530  1.0000
  H   H64       1.0  0.25350  0.07300  0.87470  1.0000
