data_image0
_chemical_formula_structural       V80Cu8C8H8C8H8C8H8C8H16C8H16C8H16C8H16C8H8C8H8C8H8C8H8C8H8C8H8C8H16C8H16C8H16C8H16C8H8C8H8C8H8N64O208
_chemical_formula_sum              "V80 Cu8 C160 H224 N64 O208"
_cell_length_a       23.067
_cell_length_b       23.176
_cell_length_c       24.948
_cell_angle_alpha    90
_cell_angle_beta     90
_cell_angle_gamma    90

_space_group_name_H-M_alt    "P 1"
_space_group_IT_number       1

loop_
  _space_group_symop_operation_xyz
  'x, y, z'

loop_
  _atom_site_type_symbol
  _atom_site_label
  _atom_site_symmetry_multiplicity
  _atom_site_fract_x
  _atom_site_fract_y
  _atom_site_fract_z
  _atom_site_occupancy
  V   V1        1.0  0.75295  0.74557  0.03474  1.0000
  V   V2        1.0  0.24705  0.25443  0.03474  1.0000
  V   V3        1.0  0.75295  0.25443  0.96526  1.0000
  V   V4        1.0  0.24705  0.74557  0.96526  1.0000
  V   V5        1.0  0.25295  0.24557  0.53474  1.0000
  V   V6        1.0  0.74705  0.75443  0.53474  1.0000
  V   V7        1.0  0.25295  0.75443  0.46526  1.0000
  V   V8        1.0  0.74705  0.24557  0.46526  1.0000
  V   V9        1.0  0.72014  0.60116  0.07794  1.0000
  V   V10       1.0  0.27986  0.39884  0.07794  1.0000
  V   V11       1.0  0.72014  0.39884  0.92206  1.0000
  V   V12       1.0  0.27986  0.60116  0.92206  1.0000
  V   V13       1.0  0.22014  0.10116  0.57794  1.0000
  V   V14       1.0  0.77986  0.89884  0.57794  1.0000
  V   V15       1.0  0.22014  0.89884  0.42206  1.0000
  V   V16       1.0  0.77986  0.10116  0.42206  1.0000
  V   V17       1.0  0.89381  0.70875  0.08259  1.0000
  V   V18       1.0  0.10619  0.29125  0.08259  1.0000
  V   V19       1.0  0.89381  0.29125  0.91741  1.0000
  V   V20       1.0  0.10619  0.70875  0.91741  1.0000
  V   V21       1.0  0.39381  0.20875  0.58259  1.0000
  V   V22       1.0  0.60619  0.79125  0.58259  1.0000
  V   V23       1.0  0.39381  0.79125  0.41741  1.0000
  V   V24       1.0  0.60619  0.20875  0.41741  1.0000
  V   V25       1.0  0.78357  0.88293  0.09021  1.0000
  V   V26       1.0  0.21643  0.11707  0.09021  1.0000
  V   V27       1.0  0.78357  0.11707  0.90979  1.0000
  V   V28       1.0  0.21643  0.88293  0.90979  1.0000
  V   V29       1.0  0.28357  0.38293  0.59021  1.0000
  V   V30       1.0  0.71643  0.61707  0.59021  1.0000
  V   V31       1.0  0.28357  0.61707  0.40979  1.0000
  V   V32       1.0  0.71643  0.38293  0.40979  1.0000
  V   V33       1.0  0.67049  0.85404  0.16792  1.0000
  V   V34       1.0  0.32951  0.14596  0.16792  1.0000
  V   V35       1.0  0.67049  0.14596  0.83208  1.0000
  V   V36       1.0  0.32951  0.85404  0.83208  1.0000
  V   V37       1.0  0.17049  0.35404  0.66792  1.0000
  V   V38       1.0  0.82951  0.64596  0.66792  1.0000
  V   V39       1.0  0.17049  0.64596  0.33208  1.0000
  V   V40       1.0  0.82951  0.35404  0.33208  1.0000
  V   V41       1.0  0.61018  0.77339  0.08487  1.0000
  V   V42       1.0  0.38982  0.22661  0.08487  1.0000
  V   V43       1.0  0.61018  0.22661  0.91513  1.0000
  V   V44       1.0  0.38982  0.77339  0.91513  1.0000
  V   V45       1.0  0.11018  0.27339  0.58487  1.0000
  V   V46       1.0  0.88982  0.72661  0.58487  1.0000
  V   V47       1.0  0.11018  0.72661  0.41513  1.0000
  V   V48       1.0  0.88982  0.27339  0.41513  1.0000
  V   V49       1.0  0.62520  0.65439  0.15916  1.0000
  V   V50       1.0  0.37480  0.34561  0.15916  1.0000
  V   V51       1.0  0.62520  0.34561  0.84084  1.0000
  V   V52       1.0  0.37480  0.65439  0.84084  1.0000
  V   V53       1.0  0.12520  0.15439  0.65916  1.0000
  V   V54       1.0  0.87480  0.84561  0.65916  1.0000
  V   V55       1.0  0.12520  0.84561  0.34084  1.0000
  V   V56       1.0  0.87480  0.15439  0.34084  1.0000
  V   V57       1.0  0.74703  0.72757  0.21120  1.0000
  V   V58       1.0  0.25297  0.27243  0.21120  1.0000
  V   V59       1.0  0.74703  0.27243  0.78880  1.0000
  V   V60       1.0  0.25297  0.72757  0.78880  1.0000
  V   V61       1.0  0.24703  0.22757  0.71120  1.0000
  V   V62       1.0  0.75297  0.77243  0.71120  1.0000
  V   V63       1.0  0.24703  0.77243  0.28880  1.0000
  V   V64       1.0  0.75297  0.22757  0.28880  1.0000
  V   V65       1.0  0.82829  0.61027  0.15877  1.0000
  V   V66       1.0  0.17171  0.38973  0.15877  1.0000
  V   V67       1.0  0.82829  0.38973  0.84123  1.0000
  V   V68       1.0  0.17171  0.61027  0.84123  1.0000
  V   V69       1.0  0.32829  0.11027  0.65877  1.0000
  V   V70       1.0  0.67171  0.88973  0.65877  1.0000
  V   V71       1.0  0.32829  0.88973  0.34123  1.0000
  V   V72       1.0  0.67171  0.11027  0.34123  1.0000
  V   V73       1.0  0.86790  0.80938  0.16517  1.0000
  V   V74       1.0  0.13210  0.19062  0.16517  1.0000
  V   V75       1.0  0.86790  0.19062  0.83483  1.0000
  V   V76       1.0  0.13210  0.80938  0.83483  1.0000
  V   V77       1.0  0.36790  0.30938  0.66517  1.0000
  V   V78       1.0  0.63210  0.69062  0.66517  1.0000
  V   V79       1.0  0.36790  0.69062  0.33483  1.0000
  V   V80       1.0  0.63210  0.30938  0.33483  1.0000
  Cu  Cu1       1.0  0.74863  0.75520  0.87812  1.0000
  Cu  Cu2       1.0  0.25137  0.24480  0.87812  1.0000
  Cu  Cu3       1.0  0.74863  0.24480  0.12188  1.0000
  Cu  Cu4       1.0  0.25137  0.75520  0.12188  1.0000
  Cu  Cu5       1.0  0.24863  0.25520  0.37812  1.0000
  Cu  Cu6       1.0  0.75137  0.74480  0.37812  1.0000
  Cu  Cu7       1.0  0.24863  0.74480  0.62188  1.0000
  Cu  Cu8       1.0  0.75137  0.25520  0.62188  1.0000
  C   C1        1.0  0.62860  0.74590  0.83510  1.0000
  C   C2        1.0  0.37140  0.25410  0.83510  1.0000
  C   C3        1.0  0.62860  0.25410  0.16490  1.0000
  C   C4        1.0  0.37140  0.74590  0.16490  1.0000
  C   C5        1.0  0.12860  0.24590  0.33510  1.0000
  C   C6        1.0  0.87140  0.75410  0.33510  1.0000
  C   C7        1.0  0.12860  0.75410  0.66490  1.0000
  C   C8        1.0  0.87140  0.24590  0.66490  1.0000
  H   H1        1.0  0.64210  0.73160  0.80260  1.0000
  H   H2        1.0  0.35790  0.26840  0.80260  1.0000
  H   H3        1.0  0.64210  0.26840  0.19740  1.0000
  H   H4        1.0  0.35790  0.73160  0.19740  1.0000
  H   H5        1.0  0.14210  0.23160  0.30260  1.0000
  H   H6        1.0  0.85790  0.76840  0.30260  1.0000
  H   H7        1.0  0.14210  0.76840  0.69740  1.0000
  H   H8        1.0  0.85790  0.23160  0.69740  1.0000
  C   C9        1.0  0.62600  0.77750  0.91630  1.0000
  C   C10       1.0  0.37400  0.22250  0.91630  1.0000
  C   C11       1.0  0.62600  0.22250  0.08370  1.0000
  C   C12       1.0  0.37400  0.77750  0.08370  1.0000
  C   C13       1.0  0.12600  0.27750  0.41630  1.0000
  C   C14       1.0  0.87400  0.72250  0.41630  1.0000
  C   C15       1.0  0.12600  0.72250  0.58370  1.0000
  C   C16       1.0  0.87400  0.27750  0.58370  1.0000
  H   H9        1.0  0.63730  0.78960  0.95030  1.0000
  H   H10       1.0  0.36270  0.21040  0.95030  1.0000
  H   H11       1.0  0.63730  0.21040  0.04970  1.0000
  H   H12       1.0  0.36270  0.78960  0.04970  1.0000
  H   H13       1.0  0.13730  0.28960  0.45030  1.0000
  H   H14       1.0  0.86270  0.71040  0.45030  1.0000
  H   H15       1.0  0.13730  0.71040  0.54970  1.0000
  H   H16       1.0  0.86270  0.28960  0.54970  1.0000
  C   C17       1.0  0.56980  0.77540  0.89790  1.0000
  C   C18       1.0  0.43020  0.22460  0.89790  1.0000
  C   C19       1.0  0.56980  0.22460  0.10210  1.0000
  C   C20       1.0  0.43020  0.77540  0.10210  1.0000
  C   C21       1.0  0.06980  0.27540  0.39790  1.0000
  C   C22       1.0  0.93020  0.72460  0.39790  1.0000
  C   C23       1.0  0.06980  0.72460  0.60210  1.0000
  C   C24       1.0  0.93020  0.27540  0.60210  1.0000
  H   H17       1.0  0.53650  0.78530  0.91680  1.0000
  H   H18       1.0  0.46350  0.21470  0.91680  1.0000
  H   H19       1.0  0.53650  0.21470  0.08320  1.0000
  H   H20       1.0  0.46350  0.78530  0.08320  1.0000
  H   H21       1.0  0.03650  0.28530  0.41680  1.0000
  H   H22       1.0  0.96350  0.71470  0.41680  1.0000
  H   H23       1.0  0.03650  0.71470  0.58320  1.0000
  H   H24       1.0  0.96350  0.28530  0.58320  1.0000
  C   C25       1.0  0.52570  0.74840  0.80880  1.0000
  C   C26       1.0  0.47430  0.25160  0.80880  1.0000
  C   C27       1.0  0.52570  0.25160  0.19120  1.0000
  C   C28       1.0  0.47430  0.74840  0.19120  1.0000
  C   C29       1.0  0.02570  0.24840  0.30880  1.0000
  C   C30       1.0  0.97430  0.75160  0.30880  1.0000
  C   C31       1.0  0.02570  0.75160  0.69120  1.0000
  C   C32       1.0  0.97430  0.24840  0.69120  1.0000
  H   H25       1.0  0.49080  0.73960  0.82900  1.0000
  H   H26       1.0  0.50920  0.26040  0.82900  1.0000
  H   H27       1.0  0.49080  0.26040  0.17100  1.0000
  H   H28       1.0  0.50920  0.73960  0.17100  1.0000
  H   H29       1.0  0.99080  0.23960  0.32900  1.0000
  H   H30       1.0  0.00920  0.76040  0.32900  1.0000
  H   H31       1.0  0.99080  0.76040  0.67100  1.0000
  H   H32       1.0  0.00920  0.23960  0.67100  1.0000
  H   H33       1.0  0.53380  0.71560  0.78590  1.0000
  H   H34       1.0  0.46620  0.28440  0.78590  1.0000
  H   H35       1.0  0.53380  0.28440  0.21410  1.0000
  H   H36       1.0  0.46620  0.71560  0.21410  1.0000
  H   H37       1.0  0.03380  0.21560  0.28590  1.0000
  H   H38       1.0  0.96620  0.78440  0.28590  1.0000
  H   H39       1.0  0.03380  0.78440  0.71410  1.0000
  H   H40       1.0  0.96620  0.21560  0.71410  1.0000
  C   C33       1.0  0.51440  0.79990  0.77450  1.0000
  C   C34       1.0  0.48560  0.20010  0.77450  1.0000
  C   C35       1.0  0.51440  0.20010  0.22550  1.0000
  C   C36       1.0  0.48560  0.79990  0.22550  1.0000
  C   C37       1.0  0.01440  0.29990  0.27450  1.0000
  C   C38       1.0  0.98560  0.70010  0.27450  1.0000
  C   C39       1.0  0.01440  0.70010  0.72550  1.0000
  C   C40       1.0  0.98560  0.29990  0.72550  1.0000
  H   H41       1.0  0.54890  0.80770  0.75330  1.0000
  H   H42       1.0  0.45110  0.19230  0.75330  1.0000
  H   H43       1.0  0.54890  0.19230  0.24670  1.0000
  H   H44       1.0  0.45110  0.80770  0.24670  1.0000
  H   H45       1.0  0.04890  0.30770  0.25330  1.0000
  H   H46       1.0  0.95110  0.69230  0.25330  1.0000
  H   H47       1.0  0.04890  0.69230  0.74670  1.0000
  H   H48       1.0  0.95110  0.30770  0.74670  1.0000
  H   H49       1.0  0.50780  0.83300  0.79740  1.0000
  H   H50       1.0  0.49220  0.16700  0.79740  1.0000
  H   H51       1.0  0.50780  0.16700  0.20260  1.0000
  H   H52       1.0  0.49220  0.83300  0.20260  1.0000
  H   H53       1.0  0.00780  0.33300  0.29740  1.0000
  H   H54       1.0  0.99220  0.66700  0.29740  1.0000
  H   H55       1.0  0.00780  0.66700  0.70260  1.0000
  H   H56       1.0  0.99220  0.33300  0.70260  1.0000
  C   C41       1.0  0.46250  0.79340  0.73630  1.0000
  C   C42       1.0  0.53750  0.20660  0.73630  1.0000
  C   C43       1.0  0.46250  0.20660  0.26370  1.0000
  C   C44       1.0  0.53750  0.79340  0.26370  1.0000
  C   C45       1.0  0.96250  0.29340  0.23630  1.0000
  C   C46       1.0  0.03750  0.70660  0.23630  1.0000
  C   C47       1.0  0.96250  0.70660  0.76370  1.0000
  C   C48       1.0  0.03750  0.29340  0.76370  1.0000
  H   H57       1.0  0.42770  0.78750  0.75740  1.0000
  H   H58       1.0  0.57230  0.21250  0.75740  1.0000
  H   H59       1.0  0.42770  0.21250  0.24260  1.0000
  H   H60       1.0  0.57230  0.78750  0.24260  1.0000
  H   H61       1.0  0.92770  0.28750  0.25740  1.0000
  H   H62       1.0  0.07230  0.71250  0.25740  1.0000
  H   H63       1.0  0.92770  0.71250  0.74260  1.0000
  H   H64       1.0  0.07230  0.28750  0.74260  1.0000
  H   H65       1.0  0.45760  0.82910  0.71650  1.0000
  H   H66       1.0  0.54240  0.17090  0.71650  1.0000
  H   H67       1.0  0.45760  0.17090  0.28350  1.0000
  H   H68       1.0  0.54240  0.82910  0.28350  1.0000
  H   H69       1.0  0.95760  0.32910  0.21650  1.0000
  H   H70       1.0  0.04240  0.67090  0.21650  1.0000
  H   H71       1.0  0.95760  0.67090  0.78350  1.0000
  H   H72       1.0  0.04240  0.32910  0.78350  1.0000
  C   C49       1.0  0.46810  0.74720  0.69920  1.0000
  C   C50       1.0  0.53190  0.25280  0.69920  1.0000
  C   C51       1.0  0.46810  0.25280  0.30080  1.0000
  C   C52       1.0  0.53190  0.74720  0.30080  1.0000
  C   C53       1.0  0.96810  0.24720  0.19920  1.0000
  C   C54       1.0  0.03190  0.75280  0.19920  1.0000
  C   C55       1.0  0.96810  0.75280  0.80080  1.0000
  C   C56       1.0  0.03190  0.24720  0.80080  1.0000
  H   H73       1.0  0.46520  0.71080  0.71830  1.0000
  H   H74       1.0  0.53480  0.28920  0.71830  1.0000
  H   H75       1.0  0.46520  0.28920  0.28170  1.0000
  H   H76       1.0  0.53480  0.71080  0.28170  1.0000
  H   H77       1.0  0.96520  0.21080  0.21830  1.0000
  H   H78       1.0  0.03480  0.78920  0.21830  1.0000
  H   H79       1.0  0.96520  0.78920  0.78170  1.0000
  H   H80       1.0  0.03480  0.21080  0.78170  1.0000
  H   H81       1.0  0.50600  0.74890  0.68250  1.0000
  H   H82       1.0  0.49400  0.25110  0.68250  1.0000
  H   H83       1.0  0.50600  0.25110  0.31750  1.0000
  H   H84       1.0  0.49400  0.74890  0.31750  1.0000
  H   H85       1.0  0.00600  0.24890  0.18250  1.0000
  H   H86       1.0  0.99400  0.75110  0.18250  1.0000
  H   H87       1.0  0.00600  0.75110  0.81750  1.0000
  H   H88       1.0  0.99400  0.24890  0.81750  1.0000
  C   C57       1.0  0.36480  0.74080  0.66730  1.0000
  C   C58       1.0  0.63520  0.25920  0.66730  1.0000
  C   C59       1.0  0.36480  0.25920  0.33270  1.0000
  C   C60       1.0  0.63520  0.74080  0.33270  1.0000
  C   C61       1.0  0.86480  0.24080  0.16730  1.0000
  C   C62       1.0  0.13520  0.75920  0.16730  1.0000
  C   C63       1.0  0.86480  0.75920  0.83270  1.0000
  C   C64       1.0  0.13520  0.24080  0.83270  1.0000
  H   H89       1.0  0.34950  0.73100  0.70050  1.0000
  H   H90       1.0  0.65050  0.26900  0.70050  1.0000
  H   H91       1.0  0.34950  0.26900  0.29950  1.0000
  H   H92       1.0  0.65050  0.73100  0.29950  1.0000
  H   H93       1.0  0.84950  0.23100  0.20050  1.0000
  H   H94       1.0  0.15050  0.76900  0.20050  1.0000
  H   H95       1.0  0.84950  0.76900  0.79950  1.0000
  H   H96       1.0  0.15050  0.23100  0.79950  1.0000
  C   C65       1.0  0.37300  0.75980  0.58380  1.0000
  C   C66       1.0  0.62700  0.24020  0.58380  1.0000
  C   C67       1.0  0.37300  0.24020  0.41620  1.0000
  C   C68       1.0  0.62700  0.75980  0.41620  1.0000
  C   C69       1.0  0.87300  0.25980  0.08380  1.0000
  C   C70       1.0  0.12700  0.74020  0.08380  1.0000
  C   C71       1.0  0.87300  0.74020  0.91620  1.0000
  C   C72       1.0  0.12700  0.25980  0.91620  1.0000
  H   H97       1.0  0.36330  0.76460  0.54790  1.0000
  H   H98       1.0  0.63670  0.23540  0.54790  1.0000
  H   H99       1.0  0.36330  0.23540  0.45210  1.0000
  H   H100      1.0  0.63670  0.76460  0.45210  1.0000
  H   H101      1.0  0.86330  0.26460  0.04790  1.0000
  H   H102      1.0  0.13670  0.73540  0.04790  1.0000
  H   H103      1.0  0.86330  0.73540  0.95210  1.0000
  H   H104      1.0  0.13670  0.26460  0.95210  1.0000
  C   C73       1.0  0.42740  0.76350  0.60410  1.0000
  C   C74       1.0  0.57260  0.23650  0.60410  1.0000
  C   C75       1.0  0.42740  0.23650  0.39590  1.0000
  C   C76       1.0  0.57260  0.76350  0.39590  1.0000
  C   C77       1.0  0.92740  0.26350  0.10410  1.0000
  C   C78       1.0  0.07260  0.73650  0.10410  1.0000
  C   C79       1.0  0.92740  0.73650  0.89590  1.0000
  C   C80       1.0  0.07260  0.26350  0.89590  1.0000
  H   H105      1.0  0.46100  0.77340  0.58570  1.0000
  H   H106      1.0  0.53900  0.22660  0.58570  1.0000
  H   H107      1.0  0.46100  0.22660  0.41430  1.0000
  H   H108      1.0  0.53900  0.77340  0.41430  1.0000
  H   H109      1.0  0.96100  0.27340  0.08570  1.0000
  H   H110      1.0  0.03900  0.72660  0.08570  1.0000
  H   H111      1.0  0.96100  0.72660  0.91430  1.0000
  H   H112      1.0  0.03900  0.27340  0.91430  1.0000
  C   C81       1.0  0.75330  0.63870  0.82660  1.0000
  C   C82       1.0  0.24670  0.36130  0.82660  1.0000
  C   C83       1.0  0.75330  0.36130  0.17340  1.0000
  C   C84       1.0  0.24670  0.63870  0.17340  1.0000
  C   C85       1.0  0.25330  0.13870  0.32660  1.0000
  C   C86       1.0  0.74670  0.86130  0.32660  1.0000
  C   C87       1.0  0.25330  0.86130  0.67340  1.0000
  C   C88       1.0  0.74670  0.13870  0.67340  1.0000
  H   H113      1.0  0.76430  0.65400  0.79370  1.0000
  H   H114      1.0  0.23570  0.34600  0.79370  1.0000
  H   H115      1.0  0.76430  0.34600  0.20630  1.0000
  H   H116      1.0  0.23570  0.65400  0.20630  1.0000
  H   H117      1.0  0.26430  0.15400  0.29370  1.0000
  H   H118      1.0  0.73570  0.84600  0.29370  1.0000
  H   H119      1.0  0.26430  0.84600  0.70630  1.0000
  H   H120      1.0  0.73570  0.15400  0.70630  1.0000
  C   C89       1.0  0.73160  0.63030  0.90880  1.0000
  C   C90       1.0  0.26840  0.36970  0.90880  1.0000
  C   C91       1.0  0.73160  0.36970  0.09120  1.0000
  C   C92       1.0  0.26840  0.63030  0.09120  1.0000
  C   C93       1.0  0.23160  0.13030  0.40880  1.0000
  C   C94       1.0  0.76840  0.86970  0.40880  1.0000
  C   C95       1.0  0.23160  0.86970  0.59120  1.0000
  C   C96       1.0  0.76840  0.13030  0.59120  1.0000
  H   H121      1.0  0.72510  0.63900  0.94470  1.0000
  H   H122      1.0  0.27490  0.36100  0.94470  1.0000
  H   H123      1.0  0.72510  0.36100  0.05530  1.0000
  H   H124      1.0  0.27490  0.63900  0.05530  1.0000
  H   H125      1.0  0.22510  0.13900  0.44470  1.0000
  H   H126      1.0  0.77490  0.86100  0.44470  1.0000
  H   H127      1.0  0.22510  0.86100  0.55530  1.0000
  H   H128      1.0  0.77490  0.13900  0.55530  1.0000
  C   C97       1.0  0.72940  0.57670  0.88770  1.0000
  C   C98       1.0  0.27060  0.42330  0.88770  1.0000
  C   C99       1.0  0.72940  0.42330  0.11230  1.0000
  C   C100      1.0  0.27060  0.57670  0.11230  1.0000
  C   C101      1.0  0.22940  0.07670  0.38770  1.0000
  C   C102      1.0  0.77060  0.92330  0.38770  1.0000
  C   C103      1.0  0.22940  0.92330  0.61230  1.0000
  C   C104      1.0  0.77060  0.07670  0.61230  1.0000
  H   H129      1.0  0.71970  0.54280  0.90550  1.0000
  H   H130      1.0  0.28030  0.45720  0.90550  1.0000
  H   H131      1.0  0.71970  0.45720  0.09450  1.0000
  H   H132      1.0  0.28030  0.54280  0.09450  1.0000
  H   H133      1.0  0.21970  0.04280  0.40550  1.0000
  H   H134      1.0  0.78030  0.95720  0.40550  1.0000
  H   H135      1.0  0.21970  0.95720  0.59450  1.0000
  H   H136      1.0  0.78030  0.04280  0.59450  1.0000
  C   C105      1.0  0.74630  0.53650  0.79540  1.0000
  C   C106      1.0  0.25370  0.46350  0.79540  1.0000
  C   C107      1.0  0.74630  0.46350  0.20460  1.0000
  C   C108      1.0  0.25370  0.53650  0.20460  1.0000
  C   C109      1.0  0.24630  0.03650  0.29540  1.0000
  C   C110      1.0  0.75370  0.96350  0.29540  1.0000
  C   C111      1.0  0.24630  0.96350  0.70460  1.0000
  C   C112      1.0  0.75370  0.03650  0.70460  1.0000
  H   H137      1.0  0.73860  0.49980  0.81270  1.0000
  H   H138      1.0  0.26140  0.50020  0.81270  1.0000
  H   H139      1.0  0.73860  0.50020  0.18730  1.0000
  H   H140      1.0  0.26140  0.49980  0.18730  1.0000
  H   H141      1.0  0.23860  0.99980  0.31270  1.0000
  H   H142      1.0  0.76140  0.00020  0.31270  1.0000
  H   H143      1.0  0.23860  0.00020  0.68730  1.0000
  H   H144      1.0  0.76140  0.99980  0.68730  1.0000
  H   H145      1.0  0.78510  0.53480  0.78030  1.0000
  H   H146      1.0  0.21490  0.46520  0.78030  1.0000
  H   H147      1.0  0.78510  0.46520  0.21970  1.0000
  H   H148      1.0  0.21490  0.53480  0.21970  1.0000
  H   H149      1.0  0.28510  0.03480  0.28030  1.0000
  H   H150      1.0  0.71490  0.96520  0.28030  1.0000
  H   H151      1.0  0.28510  0.96520  0.71970  1.0000
  H   H152      1.0  0.71490  0.03480  0.71970  1.0000
  C   C113      1.0  0.70400  0.54510  0.75130  1.0000
  C   C114      1.0  0.29600  0.45490  0.75130  1.0000
  C   C115      1.0  0.70400  0.45490  0.24870  1.0000
  C   C116      1.0  0.29600  0.54510  0.24870  1.0000
  C   C117      1.0  0.20400  0.04510  0.25130  1.0000
  C   C118      1.0  0.79600  0.95490  0.25130  1.0000
  C   C119      1.0  0.20400  0.95490  0.74870  1.0000
  C   C120      1.0  0.79600  0.04510  0.74870  1.0000
  H   H153      1.0  0.71470  0.57890  0.73060  1.0000
  H   H154      1.0  0.28530  0.42110  0.73060  1.0000
  H   H155      1.0  0.71470  0.42110  0.26940  1.0000
  H   H156      1.0  0.28530  0.57890  0.26940  1.0000
  H   H157      1.0  0.21470  0.07890  0.23060  1.0000
  H   H158      1.0  0.78530  0.92110  0.23060  1.0000
  H   H159      1.0  0.21470  0.92110  0.76940  1.0000
  H   H160      1.0  0.78530  0.07890  0.76940  1.0000
  H   H161      1.0  0.66570  0.55160  0.76630  1.0000
  H   H162      1.0  0.33430  0.44840  0.76630  1.0000
  H   H163      1.0  0.66570  0.44840  0.23370  1.0000
  H   H164      1.0  0.33430  0.55160  0.23370  1.0000
  H   H165      1.0  0.16570  0.05160  0.26630  1.0000
  H   H166      1.0  0.83430  0.94840  0.26630  1.0000
  H   H167      1.0  0.16570  0.94840  0.73370  1.0000
  H   H168      1.0  0.83430  0.05160  0.73370  1.0000
  C   C121      1.0  0.70230  0.49260  0.71460  1.0000
  C   C122      1.0  0.29770  0.50740  0.71460  1.0000
  C   C123      1.0  0.70230  0.50740  0.28540  1.0000
  C   C124      1.0  0.29770  0.49260  0.28540  1.0000
  C   C125      1.0  0.20230  0.99260  0.21460  1.0000
  C   C126      1.0  0.79770  0.00740  0.21460  1.0000
  C   C127      1.0  0.20230  0.00740  0.78540  1.0000
  C   C128      1.0  0.79770  0.99260  0.78540  1.0000
  H   H169      1.0  0.69030  0.45950  0.73570  1.0000
  H   H170      1.0  0.30970  0.54050  0.73570  1.0000
  H   H171      1.0  0.69030  0.54050  0.26430  1.0000
  H   H172      1.0  0.30970  0.45950  0.26430  1.0000
  H   H173      1.0  0.19030  0.95950  0.23570  1.0000
  H   H174      1.0  0.80970  0.04050  0.23570  1.0000
  H   H175      1.0  0.19030  0.04050  0.76430  1.0000
  H   H176      1.0  0.80970  0.95950  0.76430  1.0000
  H   H177      1.0  0.67280  0.49900  0.68760  1.0000
  H   H178      1.0  0.32720  0.50100  0.68760  1.0000
  H   H179      1.0  0.67280  0.50100  0.31240  1.0000
  H   H180      1.0  0.32720  0.49900  0.31240  1.0000
  H   H181      1.0  0.17280  0.99900  0.18760  1.0000
  H   H182      1.0  0.82720  0.00100  0.18760  1.0000
  H   H183      1.0  0.17280  0.00100  0.81240  1.0000
  H   H184      1.0  0.82720  0.99900  0.81240  1.0000
  C   C129      1.0  0.75640  0.47820  0.68760  1.0000
  C   C130      1.0  0.24360  0.52180  0.68760  1.0000
  C   C131      1.0  0.75640  0.52180  0.31240  1.0000
  C   C132      1.0  0.24360  0.47820  0.31240  1.0000
  C   C133      1.0  0.25640  0.97820  0.18760  1.0000
  C   C134      1.0  0.74360  0.02180  0.18760  1.0000
  C   C135      1.0  0.25640  0.02180  0.81240  1.0000
  C   C136      1.0  0.74360  0.97820  0.81240  1.0000
  H   H185      1.0  0.78500  0.46800  0.71440  1.0000
  H   H186      1.0  0.21500  0.53200  0.71440  1.0000
  H   H187      1.0  0.78500  0.53200  0.28560  1.0000
  H   H188      1.0  0.21500  0.46800  0.28560  1.0000
  H   H189      1.0  0.28500  0.96800  0.21440  1.0000
  H   H190      1.0  0.71500  0.03200  0.21440  1.0000
  H   H191      1.0  0.28500  0.03200  0.78560  1.0000
  H   H192      1.0  0.71500  0.96800  0.78560  1.0000
  H   H193      1.0  0.77040  0.51240  0.66910  1.0000
  H   H194      1.0  0.22960  0.48760  0.66910  1.0000
  H   H195      1.0  0.77040  0.48760  0.33090  1.0000
  H   H196      1.0  0.22960  0.51240  0.33090  1.0000
  H   H197      1.0  0.27040  0.01240  0.16910  1.0000
  H   H198      1.0  0.72960  0.98760  0.16910  1.0000
  H   H199      1.0  0.27040  0.98760  0.83090  1.0000
  H   H200      1.0  0.72960  0.01240  0.83090  1.0000
  C   C137      1.0  0.76000  0.37490  0.66100  1.0000
  C   C138      1.0  0.24000  0.62510  0.66100  1.0000
  C   C139      1.0  0.76000  0.62510  0.33900  1.0000
  C   C140      1.0  0.24000  0.37490  0.33900  1.0000
  C   C141      1.0  0.26000  0.87490  0.16100  1.0000
  C   C142      1.0  0.74000  0.12510  0.16100  1.0000
  C   C143      1.0  0.26000  0.12510  0.83900  1.0000
  C   C144      1.0  0.74000  0.87490  0.83900  1.0000
  H   H201      1.0  0.77220  0.36190  0.69440  1.0000
  H   H202      1.0  0.22780  0.63810  0.69440  1.0000
  H   H203      1.0  0.77220  0.63810  0.30560  1.0000
  H   H204      1.0  0.22780  0.36190  0.30560  1.0000
  H   H205      1.0  0.27220  0.86190  0.19440  1.0000
  H   H206      1.0  0.72780  0.13810  0.19440  1.0000
  H   H207      1.0  0.27220  0.13810  0.80560  1.0000
  H   H208      1.0  0.72780  0.86190  0.80560  1.0000
  C   C145      1.0  0.73320  0.43240  0.59620  1.0000
  C   C146      1.0  0.26680  0.56760  0.59620  1.0000
  C   C147      1.0  0.73320  0.56760  0.40380  1.0000
  C   C148      1.0  0.26680  0.43240  0.40380  1.0000
  C   C149      1.0  0.23320  0.93240  0.09620  1.0000
  C   C150      1.0  0.76680  0.06760  0.09620  1.0000
  C   C151      1.0  0.23320  0.06760  0.90380  1.0000
  C   C152      1.0  0.76680  0.93240  0.90380  1.0000
  H   H209      1.0  0.72370  0.46510  0.57640  1.0000
  H   H210      1.0  0.27630  0.53490  0.57640  1.0000
  H   H211      1.0  0.72370  0.53490  0.42360  1.0000
  H   H212      1.0  0.27630  0.46510  0.42360  1.0000
  H   H213      1.0  0.22370  0.96510  0.07640  1.0000
  H   H214      1.0  0.77630  0.03490  0.07640  1.0000
  H   H215      1.0  0.22370  0.03490  0.92360  1.0000
  H   H216      1.0  0.77630  0.96510  0.92360  1.0000
  C   C153      1.0  0.73130  0.37710  0.57960  1.0000
  C   C154      1.0  0.26870  0.62290  0.57960  1.0000
  C   C155      1.0  0.73130  0.62290  0.42040  1.0000
  C   C156      1.0  0.26870  0.37710  0.42040  1.0000
  C   C157      1.0  0.23130  0.87710  0.07960  1.0000
  C   C158      1.0  0.76870  0.12290  0.07960  1.0000
  C   C159      1.0  0.23130  0.12290  0.92040  1.0000
  C   C160      1.0  0.76870  0.87710  0.92040  1.0000
  H   H217      1.0  0.72010  0.36520  0.54550  1.0000
  H   H218      1.0  0.27990  0.63480  0.54550  1.0000
  H   H219      1.0  0.72010  0.63480  0.45450  1.0000
  H   H220      1.0  0.27990  0.36520  0.45450  1.0000
  H   H221      1.0  0.22010  0.86520  0.04550  1.0000
  H   H222      1.0  0.77990  0.13480  0.04550  1.0000
  H   H223      1.0  0.22010  0.13480  0.95450  1.0000
  H   H224      1.0  0.77990  0.86520  0.95450  1.0000
  N   N1        1.0  0.66290  0.75890  0.87630  1.0000
  N   N2        1.0  0.33710  0.24110  0.87630  1.0000
  N   N3        1.0  0.66290  0.24110  0.12370  1.0000
  N   N4        1.0  0.33710  0.75890  0.12370  1.0000
  N   N5        1.0  0.16290  0.25890  0.37630  1.0000
  N   N6        1.0  0.83710  0.74110  0.37630  1.0000
  N   N7        1.0  0.16290  0.74110  0.62370  1.0000
  N   N8        1.0  0.83710  0.25890  0.62370  1.0000
  N   N9        1.0  0.57290  0.75570  0.84560  1.0000
  N   N10       1.0  0.42710  0.24430  0.84560  1.0000
  N   N11       1.0  0.57290  0.24430  0.15440  1.0000
  N   N12       1.0  0.42710  0.75570  0.15440  1.0000
  N   N13       1.0  0.07290  0.25570  0.34560  1.0000
  N   N14       1.0  0.92710  0.74430  0.34560  1.0000
  N   N15       1.0  0.07290  0.74430  0.65440  1.0000
  N   N16       1.0  0.92710  0.25570  0.65440  1.0000
  N   N17       1.0  0.42250  0.74950  0.65700  1.0000
  N   N18       1.0  0.57750  0.25050  0.65700  1.0000
  N   N19       1.0  0.42250  0.25050  0.34300  1.0000
  N   N20       1.0  0.57750  0.74950  0.34300  1.0000
  N   N21       1.0  0.92250  0.24950  0.15700  1.0000
  N   N22       1.0  0.07750  0.75050  0.15700  1.0000
  N   N23       1.0  0.92250  0.75050  0.84300  1.0000
  N   N24       1.0  0.07750  0.24950  0.84300  1.0000
  N   N25       1.0  0.33470  0.74820  0.62370  1.0000
  N   N26       1.0  0.66530  0.25180  0.62370  1.0000
  N   N27       1.0  0.33470  0.25180  0.37630  1.0000
  N   N28       1.0  0.66530  0.74820  0.37630  1.0000
  N   N29       1.0  0.83470  0.24820  0.12370  1.0000
  N   N30       1.0  0.16530  0.75180  0.12370  1.0000
  N   N31       1.0  0.83470  0.75180  0.87630  1.0000
  N   N32       1.0  0.16530  0.24820  0.87630  1.0000
  N   N33       1.0  0.74470  0.66970  0.87030  1.0000
  N   N34       1.0  0.25530  0.33030  0.87030  1.0000
  N   N35       1.0  0.74470  0.33030  0.12970  1.0000
  N   N36       1.0  0.25530  0.66970  0.12970  1.0000
  N   N37       1.0  0.24470  0.16970  0.37030  1.0000
  N   N38       1.0  0.75530  0.83030  0.37030  1.0000
  N   N39       1.0  0.24470  0.83030  0.62970  1.0000
  N   N40       1.0  0.75530  0.16970  0.62970  1.0000
  N   N41       1.0  0.74420  0.58230  0.83550  1.0000
  N   N42       1.0  0.25580  0.41770  0.83550  1.0000
  N   N43       1.0  0.74420  0.41770  0.16450  1.0000
  N   N44       1.0  0.25580  0.58230  0.16450  1.0000
  N   N45       1.0  0.24420  0.08230  0.33550  1.0000
  N   N46       1.0  0.75580  0.91770  0.33550  1.0000
  N   N47       1.0  0.24420  0.91770  0.66450  1.0000
  N   N48       1.0  0.75580  0.08230  0.66450  1.0000
  N   N49       1.0  0.75210  0.43040  0.64830  1.0000
  N   N50       1.0  0.24790  0.56960  0.64830  1.0000
  N   N51       1.0  0.75210  0.56960  0.35170  1.0000
  N   N52       1.0  0.24790  0.43040  0.35170  1.0000
  N   N53       1.0  0.25210  0.93040  0.14830  1.0000
  N   N54       1.0  0.74790  0.06960  0.14830  1.0000
  N   N55       1.0  0.25210  0.06960  0.85170  1.0000
  N   N56       1.0  0.74790  0.93040  0.85170  1.0000
  N   N57       1.0  0.74820  0.34110  0.62000  1.0000
  N   N58       1.0  0.25180  0.65890  0.62000  1.0000
  N   N59       1.0  0.74820  0.65890  0.38000  1.0000
  N   N60       1.0  0.25180  0.34110  0.38000  1.0000
  N   N61       1.0  0.24820  0.84110  0.12000  1.0000
  N   N62       1.0  0.75180  0.15890  0.12000  1.0000
  N   N63       1.0  0.24820  0.15890  0.88000  1.0000
  N   N64       1.0  0.75180  0.84110  0.88000  1.0000
  O   O1        1.0  0.74800  0.74480  0.97110  1.0000
  O   O2        1.0  0.25200  0.25520  0.97110  1.0000
  O   O3        1.0  0.74800  0.25520  0.02890  1.0000
  O   O4        1.0  0.25200  0.74480  0.02890  1.0000
  O   O5        1.0  0.24800  0.24480  0.47110  1.0000
  O   O6        1.0  0.75200  0.75520  0.47110  1.0000
  O   O7        1.0  0.24800  0.75520  0.52890  1.0000
  O   O8        1.0  0.75200  0.24480  0.52890  1.0000
  O   O9        1.0  0.56410  0.78410  0.03700  1.0000
  O   O10       1.0  0.43590  0.21590  0.03700  1.0000
  O   O11       1.0  0.56410  0.21590  0.96300  1.0000
  O   O12       1.0  0.43590  0.78410  0.96300  1.0000
  O   O13       1.0  0.06410  0.28410  0.53700  1.0000
  O   O14       1.0  0.93590  0.71590  0.53700  1.0000
  O   O15       1.0  0.06410  0.71590  0.46300  1.0000
  O   O16       1.0  0.93590  0.28410  0.46300  1.0000
  O   O17       1.0  0.79660  0.93680  0.05090  1.0000
  O   O18       1.0  0.20340  0.06320  0.05090  1.0000
  O   O19       1.0  0.79660  0.06320  0.94910  1.0000
  O   O20       1.0  0.20340  0.93680  0.94910  1.0000
  O   O21       1.0  0.29660  0.43680  0.55090  1.0000
  O   O22       1.0  0.70340  0.56320  0.55090  1.0000
  O   O23       1.0  0.29660  0.56320  0.44910  1.0000
  O   O24       1.0  0.70340  0.43680  0.44910  1.0000
  O   O25       1.0  0.65090  0.89060  0.21830  1.0000
  O   O26       1.0  0.34910  0.10940  0.21830  1.0000
  O   O27       1.0  0.65090  0.10940  0.78170  1.0000
  O   O28       1.0  0.34910  0.89060  0.78170  1.0000
  O   O29       1.0  0.15090  0.39060  0.71830  1.0000
  O   O30       1.0  0.84910  0.60940  0.71830  1.0000
  O   O31       1.0  0.15090  0.60940  0.28170  1.0000
  O   O32       1.0  0.84910  0.39060  0.28170  1.0000
  O   O33       1.0  0.94330  0.69640  0.03900  1.0000
  O   O34       1.0  0.05670  0.30360  0.03900  1.0000
  O   O35       1.0  0.94330  0.30360  0.96100  1.0000
  O   O36       1.0  0.05670  0.69640  0.96100  1.0000
  O   O37       1.0  0.44330  0.19640  0.53900  1.0000
  O   O38       1.0  0.55670  0.80360  0.53900  1.0000
  O   O39       1.0  0.44330  0.80360  0.46100  1.0000
  O   O40       1.0  0.55670  0.19640  0.46100  1.0000
  O   O41       1.0  0.90010  0.82530  0.22030  1.0000
  O   O42       1.0  0.09990  0.17470  0.22030  1.0000
  O   O43       1.0  0.90010  0.17470  0.77970  1.0000
  O   O44       1.0  0.09990  0.82530  0.77970  1.0000
  O   O45       1.0  0.40010  0.32530  0.72030  1.0000
  O   O46       1.0  0.59990  0.67470  0.72030  1.0000
  O   O47       1.0  0.40010  0.67470  0.27970  1.0000
  O   O48       1.0  0.59990  0.32530  0.27970  1.0000
  O   O49       1.0  0.85700  0.56380  0.19840  1.0000
  O   O50       1.0  0.14300  0.43620  0.19840  1.0000
  O   O51       1.0  0.85700  0.43620  0.80160  1.0000
  O   O52       1.0  0.14300  0.56380  0.80160  1.0000
  O   O53       1.0  0.35700  0.06380  0.69840  1.0000
  O   O54       1.0  0.64300  0.93620  0.69840  1.0000
  O   O55       1.0  0.35700  0.93620  0.30160  1.0000
  O   O56       1.0  0.64300  0.06380  0.30160  1.0000
  O   O57       1.0  0.75320  0.73530  0.27436  1.0000
  O   O58       1.0  0.24680  0.26470  0.27436  1.0000
  O   O59       1.0  0.75320  0.26470  0.72564  1.0000
  O   O60       1.0  0.24680  0.73530  0.72564  1.0000
  O   O61       1.0  0.25320  0.23530  0.77436  1.0000
  O   O62       1.0  0.74680  0.76470  0.77436  1.0000
  O   O63       1.0  0.25320  0.76470  0.22564  1.0000
  O   O64       1.0  0.74680  0.23530  0.22564  1.0000
  O   O65       1.0  0.57580  0.62570  0.19640  1.0000
  O   O66       1.0  0.42420  0.37430  0.19640  1.0000
  O   O67       1.0  0.57580  0.37430  0.80360  1.0000
  O   O68       1.0  0.42420  0.62570  0.80360  1.0000
  O   O69       1.0  0.07580  0.12570  0.69640  1.0000
  O   O70       1.0  0.92420  0.87430  0.69640  1.0000
  O   O71       1.0  0.07580  0.87430  0.30360  1.0000
  O   O72       1.0  0.92420  0.12570  0.30360  1.0000
  O   O73       1.0  0.70870  0.56280  0.02570  1.0000
  O   O74       1.0  0.29130  0.43720  0.02570  1.0000
  O   O75       1.0  0.70870  0.43720  0.97430  1.0000
  O   O76       1.0  0.29130  0.56280  0.97430  1.0000
  O   O77       1.0  0.20870  0.06280  0.52570  1.0000
  O   O78       1.0  0.79130  0.93720  0.52570  1.0000
  O   O79       1.0  0.20870  0.93720  0.47430  1.0000
  O   O80       1.0  0.79130  0.06280  0.47430  1.0000
  O   O81       1.0  0.59100  0.70890  0.11900  1.0000
  O   O82       1.0  0.40900  0.29110  0.11900  1.0000
  O   O83       1.0  0.59100  0.29110  0.88100  1.0000
  O   O84       1.0  0.40900  0.70890  0.88100  1.0000
  O   O85       1.0  0.09100  0.20890  0.61900  1.0000
  O   O86       1.0  0.90900  0.79110  0.61900  1.0000
  O   O87       1.0  0.09100  0.79110  0.38100  1.0000
  O   O88       1.0  0.90900  0.20890  0.38100  1.0000
  O   O89       1.0  0.60810  0.83500  0.12950  1.0000
  O   O90       1.0  0.39190  0.16500  0.12950  1.0000
  O   O91       1.0  0.60810  0.16500  0.87050  1.0000
  O   O92       1.0  0.39190  0.83500  0.87050  1.0000
  O   O93       1.0  0.10810  0.33500  0.62950  1.0000
  O   O94       1.0  0.89190  0.66500  0.62950  1.0000
  O   O95       1.0  0.10810  0.66500  0.37050  1.0000
  O   O96       1.0  0.89190  0.33500  0.37050  1.0000
  O   O97       1.0  0.72000  0.89680  0.12860  1.0000
  O   O98       1.0  0.28000  0.10320  0.12860  1.0000
  O   O99       1.0  0.72000  0.10320  0.87140  1.0000
  O   O100      1.0  0.28000  0.89680  0.87140  1.0000
  O   O101      1.0  0.22000  0.39680  0.62860  1.0000
  O   O102      1.0  0.78000  0.60320  0.62860  1.0000
  O   O103      1.0  0.22000  0.60320  0.37140  1.0000
  O   O104      1.0  0.78000  0.39680  0.37140  1.0000
  O   O105      1.0  0.67690  0.76730  0.05940  1.0000
  O   O106      1.0  0.32310  0.23270  0.05940  1.0000
  O   O107      1.0  0.67690  0.23270  0.94060  1.0000
  O   O108      1.0  0.32310  0.76730  0.94060  1.0000
  O   O109      1.0  0.17690  0.26730  0.55940  1.0000
  O   O110      1.0  0.82310  0.73270  0.55940  1.0000
  O   O111      1.0  0.17690  0.73270  0.44060  1.0000
  O   O112      1.0  0.82310  0.26730  0.44060  1.0000
  O   O113      1.0  0.84510  0.87490  0.13360  1.0000
  O   O114      1.0  0.15490  0.12510  0.13360  1.0000
  O   O115      1.0  0.84510  0.12510  0.86640  1.0000
  O   O116      1.0  0.15490  0.87490  0.86640  1.0000
  O   O117      1.0  0.34510  0.37490  0.63360  1.0000
  O   O118      1.0  0.65490  0.62510  0.63360  1.0000
  O   O119      1.0  0.34510  0.62510  0.36640  1.0000
  O   O120      1.0  0.65490  0.37490  0.36640  1.0000
  O   O121      1.0  0.77600  0.82340  0.05290  1.0000
  O   O122      1.0  0.22400  0.17660  0.05290  1.0000
  O   O123      1.0  0.77600  0.17660  0.94710  1.0000
  O   O124      1.0  0.22400  0.82340  0.94710  1.0000
  O   O125      1.0  0.27600  0.32340  0.55290  1.0000
  O   O126      1.0  0.72400  0.67660  0.55290  1.0000
  O   O127      1.0  0.27600  0.67660  0.44710  1.0000
  O   O128      1.0  0.72400  0.32340  0.44710  1.0000
  O   O129      1.0  0.83210  0.72400  0.04930  1.0000
  O   O130      1.0  0.16790  0.27600  0.04930  1.0000
  O   O131      1.0  0.83210  0.27600  0.95070  1.0000
  O   O132      1.0  0.16790  0.72400  0.95070  1.0000
  O   O133      1.0  0.33210  0.22400  0.54930  1.0000
  O   O134      1.0  0.66790  0.77600  0.54930  1.0000
  O   O135      1.0  0.33210  0.77600  0.45070  1.0000
  O   O136      1.0  0.66790  0.22400  0.45070  1.0000
  O   O137      1.0  0.80990  0.76790  0.17860  1.0000
  O   O138      1.0  0.19010  0.23210  0.17860  1.0000
  O   O139      1.0  0.80990  0.23210  0.82140  1.0000
  O   O140      1.0  0.19010  0.76790  0.82140  1.0000
  O   O141      1.0  0.30990  0.26790  0.67860  1.0000
  O   O142      1.0  0.69010  0.73210  0.67860  1.0000
  O   O143      1.0  0.30990  0.73210  0.32140  1.0000
  O   O144      1.0  0.69010  0.26790  0.32140  1.0000
  O   O145      1.0  0.73320  0.67010  0.06000  1.0000
  O   O146      1.0  0.26680  0.32990  0.06000  1.0000
  O   O147      1.0  0.73320  0.32990  0.94000  1.0000
  O   O148      1.0  0.26680  0.67010  0.94000  1.0000
  O   O149      1.0  0.23320  0.17010  0.56000  1.0000
  O   O150      1.0  0.76680  0.82990  0.56000  1.0000
  O   O151      1.0  0.23320  0.82990  0.44000  1.0000
  O   O152      1.0  0.76680  0.17010  0.44000  1.0000
  O   O153      1.0  0.70320  0.79390  0.18950  1.0000
  O   O154      1.0  0.29680  0.20610  0.18950  1.0000
  O   O155      1.0  0.70320  0.20610  0.81050  1.0000
  O   O156      1.0  0.29680  0.79390  0.81050  1.0000
  O   O157      1.0  0.20320  0.29390  0.68950  1.0000
  O   O158      1.0  0.79680  0.70610  0.68950  1.0000
  O   O159      1.0  0.20320  0.70610  0.31050  1.0000
  O   O160      1.0  0.79680  0.29390  0.31050  1.0000
  O   O161      1.0  0.67680  0.68330  0.19850  1.0000
  O   O162      1.0  0.32320  0.31670  0.19850  1.0000
  O   O163      1.0  0.67680  0.31670  0.80150  1.0000
  O   O164      1.0  0.32320  0.68330  0.80150  1.0000
  O   O165      1.0  0.17680  0.18330  0.69850  1.0000
  O   O166      1.0  0.82320  0.81670  0.69850  1.0000
  O   O167      1.0  0.17680  0.81670  0.30150  1.0000
  O   O168      1.0  0.82320  0.18330  0.30150  1.0000
  O   O169      1.0  0.65600  0.59890  0.11750  1.0000
  O   O170      1.0  0.34400  0.40110  0.11750  1.0000
  O   O171      1.0  0.65600  0.40110  0.88250  1.0000
  O   O172      1.0  0.34400  0.59890  0.88250  1.0000
  O   O173      1.0  0.15600  0.09890  0.61750  1.0000
  O   O174      1.0  0.84400  0.90110  0.61750  1.0000
  O   O175      1.0  0.15600  0.90110  0.38250  1.0000
  O   O176      1.0  0.84400  0.09890  0.38250  1.0000
  O   O177      1.0  0.78140  0.57210  0.11400  1.0000
  O   O178      1.0  0.21860  0.42790  0.11400  1.0000
  O   O179      1.0  0.78140  0.42790  0.88600  1.0000
  O   O180      1.0  0.21860  0.57210  0.88600  1.0000
  O   O181      1.0  0.28140  0.07210  0.61400  1.0000
  O   O182      1.0  0.71860  0.92790  0.61400  1.0000
  O   O183      1.0  0.28140  0.92790  0.38600  1.0000
  O   O184      1.0  0.71860  0.07210  0.38600  1.0000
  O   O185      1.0  0.78920  0.65730  0.19530  1.0000
  O   O186      1.0  0.21080  0.34270  0.19530  1.0000
  O   O187      1.0  0.78920  0.34270  0.80470  1.0000
  O   O188      1.0  0.21080  0.65730  0.80470  1.0000
  O   O189      1.0  0.28920  0.15730  0.69530  1.0000
  O   O190      1.0  0.71080  0.84270  0.69530  1.0000
  O   O191      1.0  0.28920  0.84270  0.30470  1.0000
  O   O192      1.0  0.71080  0.15730  0.30470  1.0000
  O   O193      1.0  0.88510  0.64550  0.12290  1.0000
  O   O194      1.0  0.11490  0.35450  0.12290  1.0000
  O   O195      1.0  0.88510  0.35450  0.87710  1.0000
  O   O196      1.0  0.11490  0.64550  0.87710  1.0000
  O   O197      1.0  0.38510  0.14550  0.62290  1.0000
  O   O198      1.0  0.61490  0.85450  0.62290  1.0000
  O   O199      1.0  0.38510  0.85450  0.37710  1.0000
  O   O200      1.0  0.61490  0.14550  0.37710  1.0000
  O   O201      1.0  0.91620  0.76940  0.12250  1.0000
  O   O202      1.0  0.08380  0.23060  0.12250  1.0000
  O   O203      1.0  0.91620  0.23060  0.87750  1.0000
  O   O204      1.0  0.08380  0.76940  0.87750  1.0000
  O   O205      1.0  0.41620  0.26940  0.62250  1.0000
  O   O206      1.0  0.58380  0.73060  0.62250  1.0000
  O   O207      1.0  0.41620  0.73060  0.37750  1.0000
  O   O208      1.0  0.58380  0.26940  0.37750  1.0000
