data_image0
_chemical_formula_structural       V80Cu8C8H8C8H8C8H8C8H16C8H16C8H16C8H16C8H8C8H8C8H8C8H8C8H8C8H8C8H16C8H16C8H16C8H16C8H8C8H8C8H8N64O208
_chemical_formula_sum              "V80 Cu8 C160 H224 N64 O208"
_cell_length_a       23.067
_cell_length_b       23.176
_cell_length_c       24.948
_cell_angle_alpha    90
_cell_angle_beta     90
_cell_angle_gamma    90

_space_group_name_H-M_alt    "P 1"
_space_group_IT_number       1

loop_
  _space_group_symop_operation_xyz
  'x, y, z'

loop_
  _atom_site_type_symbol
  _atom_site_label
  _atom_site_symmetry_multiplicity
  _atom_site_fract_x
  _atom_site_fract_y
  _atom_site_fract_z
  _atom_site_occupancy
  V   V1        1.0  0.24710  0.25441  0.96527  1.0000
  V   V2        1.0  0.75290  0.74559  0.96527  1.0000
  V   V3        1.0  0.24710  0.74559  0.03473  1.0000
  V   V4        1.0  0.75290  0.25441  0.03473  1.0000
  V   V5        1.0  0.74710  0.75441  0.46527  1.0000
  V   V6        1.0  0.25290  0.24559  0.46527  1.0000
  V   V7        1.0  0.74710  0.24559  0.53473  1.0000
  V   V8        1.0  0.25290  0.75441  0.53473  1.0000
  V   V9        1.0  0.27979  0.39878  0.92212  1.0000
  V   V10       1.0  0.72021  0.60122  0.92212  1.0000
  V   V11       1.0  0.27979  0.60122  0.07788  1.0000
  V   V12       1.0  0.72021  0.39878  0.07788  1.0000
  V   V13       1.0  0.77979  0.89878  0.42212  1.0000
  V   V14       1.0  0.22021  0.10122  0.42212  1.0000
  V   V15       1.0  0.77979  0.10122  0.57788  1.0000
  V   V16       1.0  0.22021  0.89878  0.57788  1.0000
  V   V17       1.0  0.10624  0.29127  0.91763  1.0000
  V   V18       1.0  0.89376  0.70873  0.91763  1.0000
  V   V19       1.0  0.10624  0.70873  0.08237  1.0000
  V   V20       1.0  0.89376  0.29127  0.08237  1.0000
  V   V21       1.0  0.60624  0.79127  0.41763  1.0000
  V   V22       1.0  0.39376  0.20873  0.41763  1.0000
  V   V23       1.0  0.60624  0.20873  0.58237  1.0000
  V   V24       1.0  0.39376  0.79127  0.58237  1.0000
  V   V25       1.0  0.21627  0.11736  0.90991  1.0000
  V   V26       1.0  0.78373  0.88264  0.90991  1.0000
  V   V27       1.0  0.21627  0.88264  0.09009  1.0000
  V   V28       1.0  0.78373  0.11736  0.09009  1.0000
  V   V29       1.0  0.71627  0.61736  0.40991  1.0000
  V   V30       1.0  0.28373  0.38264  0.40991  1.0000
  V   V31       1.0  0.71627  0.38264  0.59009  1.0000
  V   V32       1.0  0.28373  0.61736  0.59009  1.0000
  V   V33       1.0  0.32952  0.14615  0.83224  1.0000
  V   V34       1.0  0.67048  0.85385  0.83224  1.0000
  V   V35       1.0  0.32952  0.85385  0.16776  1.0000
  V   V36       1.0  0.67048  0.14615  0.16776  1.0000
  V   V37       1.0  0.82952  0.64615  0.33224  1.0000
  V   V38       1.0  0.17048  0.35385  0.33224  1.0000
  V   V39       1.0  0.82952  0.35385  0.66776  1.0000
  V   V40       1.0  0.17048  0.64615  0.66776  1.0000
  V   V41       1.0  0.38962  0.22653  0.91502  1.0000
  V   V42       1.0  0.61038  0.77347  0.91502  1.0000
  V   V43       1.0  0.38962  0.77347  0.08498  1.0000
  V   V44       1.0  0.61038  0.22653  0.08498  1.0000
  V   V45       1.0  0.88962  0.72653  0.41502  1.0000
  V   V46       1.0  0.11038  0.27347  0.41502  1.0000
  V   V47       1.0  0.88962  0.27347  0.58498  1.0000
  V   V48       1.0  0.11038  0.72653  0.58498  1.0000
  V   V49       1.0  0.37486  0.34560  0.84089  1.0000
  V   V50       1.0  0.62514  0.65440  0.84089  1.0000
  V   V51       1.0  0.37486  0.65440  0.15911  1.0000
  V   V52       1.0  0.62514  0.34560  0.15911  1.0000
  V   V53       1.0  0.87486  0.84560  0.34089  1.0000
  V   V54       1.0  0.12514  0.15440  0.34089  1.0000
  V   V55       1.0  0.87486  0.15440  0.65911  1.0000
  V   V56       1.0  0.12514  0.84560  0.65911  1.0000
  V   V57       1.0  0.25302  0.27254  0.78889  1.0000
  V   V58       1.0  0.74698  0.72746  0.78889  1.0000
  V   V59       1.0  0.25302  0.72746  0.21111  1.0000
  V   V60       1.0  0.74698  0.27254  0.21111  1.0000
  V   V61       1.0  0.75302  0.77254  0.28889  1.0000
  V   V62       1.0  0.24698  0.22746  0.28889  1.0000
  V   V63       1.0  0.75302  0.22746  0.71111  1.0000
  V   V64       1.0  0.24698  0.77254  0.71111  1.0000
  V   V65       1.0  0.17184  0.38986  0.84134  1.0000
  V   V66       1.0  0.82816  0.61014  0.84134  1.0000
  V   V67       1.0  0.17184  0.61014  0.15866  1.0000
  V   V68       1.0  0.82816  0.38986  0.15866  1.0000
  V   V69       1.0  0.67184  0.88986  0.34134  1.0000
  V   V70       1.0  0.32816  0.11014  0.34134  1.0000
  V   V71       1.0  0.67184  0.11014  0.65866  1.0000
  V   V72       1.0  0.32816  0.88986  0.65866  1.0000
  V   V73       1.0  0.13227  0.19079  0.83491  1.0000
  V   V74       1.0  0.86773  0.80921  0.83491  1.0000
  V   V75       1.0  0.13227  0.80921  0.16509  1.0000
  V   V76       1.0  0.86773  0.19079  0.16509  1.0000
  V   V77       1.0  0.63227  0.69079  0.33491  1.0000
  V   V78       1.0  0.36773  0.30921  0.33491  1.0000
  V   V79       1.0  0.63227  0.30921  0.66509  1.0000
  V   V80       1.0  0.36773  0.69079  0.66509  1.0000
  Cu  Cu1       1.0  0.25138  0.24478  0.12192  1.0000
  Cu  Cu2       1.0  0.74862  0.75522  0.12192  1.0000
  Cu  Cu3       1.0  0.25138  0.75522  0.87808  1.0000
  Cu  Cu4       1.0  0.74862  0.24478  0.87808  1.0000
  Cu  Cu5       1.0  0.75138  0.74478  0.62192  1.0000
  Cu  Cu6       1.0  0.24862  0.25522  0.62192  1.0000
  Cu  Cu7       1.0  0.75138  0.25522  0.37808  1.0000
  Cu  Cu8       1.0  0.24862  0.74478  0.37808  1.0000
  C   C1        1.0  0.37140  0.25530  0.16490  1.0000
  C   C2        1.0  0.62860  0.74470  0.16490  1.0000
  C   C3        1.0  0.37140  0.74470  0.83510  1.0000
  C   C4        1.0  0.62860  0.25530  0.83510  1.0000
  C   C5        1.0  0.87140  0.75530  0.66490  1.0000
  C   C6        1.0  0.12860  0.24470  0.66490  1.0000
  C   C7        1.0  0.87140  0.24470  0.33510  1.0000
  C   C8        1.0  0.12860  0.75530  0.33510  1.0000
  H   H1        1.0  0.35800  0.27130  0.19670  1.0000
  H   H2        1.0  0.64200  0.72870  0.19670  1.0000
  H   H3        1.0  0.35800  0.72870  0.80330  1.0000
  H   H4        1.0  0.64200  0.27130  0.80330  1.0000
  H   H5        1.0  0.85800  0.77130  0.69670  1.0000
  H   H6        1.0  0.14200  0.22870  0.69670  1.0000
  H   H7        1.0  0.85800  0.22870  0.30330  1.0000
  H   H8        1.0  0.14200  0.77130  0.30330  1.0000
  C   C9        1.0  0.37450  0.22220  0.08390  1.0000
  C   C10       1.0  0.62550  0.77780  0.08390  1.0000
  C   C11       1.0  0.37450  0.77780  0.91610  1.0000
  C   C12       1.0  0.62550  0.22220  0.91610  1.0000
  C   C13       1.0  0.87450  0.72220  0.58390  1.0000
  C   C14       1.0  0.12550  0.27780  0.58390  1.0000
  C   C15       1.0  0.87450  0.27780  0.41610  1.0000
  C   C16       1.0  0.12550  0.72220  0.41610  1.0000
  H   H9        1.0  0.36340  0.21030  0.04980  1.0000
  H   H10       1.0  0.63660  0.78970  0.04980  1.0000
  H   H11       1.0  0.36340  0.78970  0.95020  1.0000
  H   H12       1.0  0.63660  0.21030  0.95020  1.0000
  H   H13       1.0  0.86340  0.71030  0.54980  1.0000
  H   H14       1.0  0.13660  0.28970  0.54980  1.0000
  H   H15       1.0  0.86340  0.28970  0.45020  1.0000
  H   H16       1.0  0.13660  0.71030  0.45020  1.0000
  C   C17       1.0  0.42970  0.22430  0.10240  1.0000
  C   C18       1.0  0.57030  0.77570  0.10240  1.0000
  C   C19       1.0  0.42970  0.77570  0.89760  1.0000
  C   C20       1.0  0.57030  0.22430  0.89760  1.0000
  C   C21       1.0  0.92970  0.72430  0.60240  1.0000
  C   C22       1.0  0.07030  0.27570  0.60240  1.0000
  C   C23       1.0  0.92970  0.27570  0.39760  1.0000
  C   C24       1.0  0.07030  0.72430  0.39760  1.0000
  H   H17       1.0  0.46300  0.21420  0.08360  1.0000
  H   H18       1.0  0.53700  0.78580  0.08360  1.0000
  H   H19       1.0  0.46300  0.78580  0.91640  1.0000
  H   H20       1.0  0.53700  0.21420  0.91640  1.0000
  H   H21       1.0  0.96300  0.71420  0.58360  1.0000
  H   H22       1.0  0.03700  0.28580  0.58360  1.0000
  H   H23       1.0  0.96300  0.28580  0.41640  1.0000
  H   H24       1.0  0.03700  0.71420  0.41640  1.0000
  C   C25       1.0  0.47530  0.25370  0.19080  1.0000
  C   C26       1.0  0.52470  0.74630  0.19080  1.0000
  C   C27       1.0  0.47530  0.74630  0.80920  1.0000
  C   C28       1.0  0.52470  0.25370  0.80920  1.0000
  C   C29       1.0  0.97530  0.75370  0.69080  1.0000
  C   C30       1.0  0.02470  0.24630  0.69080  1.0000
  C   C31       1.0  0.97530  0.24630  0.30920  1.0000
  C   C32       1.0  0.02470  0.75370  0.30920  1.0000
  H   H25       1.0  0.46700  0.28650  0.21360  1.0000
  H   H26       1.0  0.53300  0.71350  0.21360  1.0000
  H   H27       1.0  0.46700  0.71350  0.78640  1.0000
  H   H28       1.0  0.53300  0.28650  0.78640  1.0000
  H   H29       1.0  0.96700  0.78650  0.71360  1.0000
  H   H30       1.0  0.03300  0.21350  0.71360  1.0000
  H   H31       1.0  0.96700  0.21350  0.28640  1.0000
  H   H32       1.0  0.03300  0.78650  0.28640  1.0000
  H   H33       1.0  0.51000  0.26240  0.17030  1.0000
  H   H34       1.0  0.49000  0.73760  0.17030  1.0000
  H   H35       1.0  0.51000  0.73760  0.82970  1.0000
  H   H36       1.0  0.49000  0.26240  0.82970  1.0000
  H   H37       1.0  0.01000  0.76240  0.67030  1.0000
  H   H38       1.0  0.99000  0.23760  0.67030  1.0000
  H   H39       1.0  0.01000  0.23760  0.32970  1.0000
  H   H40       1.0  0.99000  0.76240  0.32970  1.0000
  C   C33       1.0  0.48570  0.20110  0.22480  1.0000
  C   C34       1.0  0.51430  0.79890  0.22480  1.0000
  C   C35       1.0  0.48570  0.79890  0.77520  1.0000
  C   C36       1.0  0.51430  0.20110  0.77520  1.0000
  C   C37       1.0  0.98570  0.70110  0.72480  1.0000
  C   C38       1.0  0.01430  0.29890  0.72480  1.0000
  C   C39       1.0  0.98570  0.29890  0.27520  1.0000
  C   C40       1.0  0.01430  0.70110  0.27520  1.0000
  H   H41       1.0  0.49170  0.16820  0.20140  1.0000
  H   H42       1.0  0.50830  0.83180  0.20140  1.0000
  H   H43       1.0  0.49170  0.83180  0.79860  1.0000
  H   H44       1.0  0.50830  0.16820  0.79860  1.0000
  H   H45       1.0  0.99170  0.66820  0.70140  1.0000
  H   H46       1.0  0.00830  0.33180  0.70140  1.0000
  H   H47       1.0  0.99170  0.33180  0.29860  1.0000
  H   H48       1.0  0.00830  0.66820  0.29860  1.0000
  H   H49       1.0  0.45110  0.19360  0.24580  1.0000
  H   H50       1.0  0.54890  0.80640  0.24580  1.0000
  H   H51       1.0  0.45110  0.80640  0.75420  1.0000
  H   H52       1.0  0.54890  0.19360  0.75420  1.0000
  H   H53       1.0  0.95110  0.69360  0.74580  1.0000
  H   H54       1.0  0.04890  0.30640  0.74580  1.0000
  H   H55       1.0  0.95110  0.30640  0.25420  1.0000
  H   H56       1.0  0.04890  0.69360  0.25420  1.0000
  C   C41       1.0  0.53830  0.20590  0.26350  1.0000
  C   C42       1.0  0.46170  0.79410  0.26350  1.0000
  C   C43       1.0  0.53830  0.79410  0.73650  1.0000
  C   C44       1.0  0.46170  0.20590  0.73650  1.0000
  C   C45       1.0  0.03830  0.70590  0.76350  1.0000
  C   C46       1.0  0.96170  0.29410  0.76350  1.0000
  C   C47       1.0  0.03830  0.29410  0.23650  1.0000
  C   C48       1.0  0.96170  0.70590  0.23650  1.0000
  H   H57       1.0  0.54240  0.17000  0.28320  1.0000
  H   H58       1.0  0.45760  0.83000  0.28320  1.0000
  H   H59       1.0  0.54240  0.83000  0.71680  1.0000
  H   H60       1.0  0.45760  0.17000  0.71680  1.0000
  H   H61       1.0  0.04240  0.67000  0.78320  1.0000
  H   H62       1.0  0.95760  0.33000  0.78320  1.0000
  H   H63       1.0  0.04240  0.33000  0.21680  1.0000
  H   H64       1.0  0.95760  0.67000  0.21680  1.0000
  H   H65       1.0  0.57330  0.21170  0.24270  1.0000
  H   H66       1.0  0.42670  0.78830  0.24270  1.0000
  H   H67       1.0  0.57330  0.78830  0.75730  1.0000
  H   H68       1.0  0.42670  0.21170  0.75730  1.0000
  H   H69       1.0  0.07330  0.71170  0.74270  1.0000
  H   H70       1.0  0.92670  0.28830  0.74270  1.0000
  H   H71       1.0  0.07330  0.28830  0.25730  1.0000
  H   H72       1.0  0.92670  0.71170  0.25730  1.0000
  C   C49       1.0  0.53200  0.25280  0.30120  1.0000
  C   C50       1.0  0.46800  0.74720  0.30120  1.0000
  C   C51       1.0  0.53200  0.74720  0.69880  1.0000
  C   C52       1.0  0.46800  0.25280  0.69880  1.0000
  C   C53       1.0  0.03200  0.75280  0.80120  1.0000
  C   C54       1.0  0.96800  0.24720  0.80120  1.0000
  C   C55       1.0  0.03200  0.24720  0.19880  1.0000
  C   C56       1.0  0.96800  0.75280  0.19880  1.0000
  H   H73       1.0  0.49420  0.25050  0.31810  1.0000
  H   H74       1.0  0.50580  0.74950  0.31810  1.0000
  H   H75       1.0  0.49420  0.74950  0.68190  1.0000
  H   H76       1.0  0.50580  0.25050  0.68190  1.0000
  H   H77       1.0  0.99420  0.75050  0.81810  1.0000
  H   H78       1.0  0.00580  0.24950  0.81810  1.0000
  H   H79       1.0  0.99420  0.24950  0.18190  1.0000
  H   H80       1.0  0.00580  0.75050  0.18190  1.0000
  H   H81       1.0  0.53420  0.28930  0.28210  1.0000
  H   H82       1.0  0.46580  0.71070  0.28210  1.0000
  H   H83       1.0  0.53420  0.71070  0.71790  1.0000
  H   H84       1.0  0.46580  0.28930  0.71790  1.0000
  H   H85       1.0  0.03420  0.78930  0.78210  1.0000
  H   H86       1.0  0.96580  0.21070  0.78210  1.0000
  H   H87       1.0  0.03420  0.21070  0.21790  1.0000
  H   H88       1.0  0.96580  0.78930  0.21790  1.0000
  C   C57       1.0  0.63490  0.26040  0.33230  1.0000
  C   C58       1.0  0.36510  0.73960  0.33230  1.0000
  C   C59       1.0  0.63490  0.73960  0.66770  1.0000
  C   C60       1.0  0.36510  0.26040  0.66770  1.0000
  C   C61       1.0  0.13490  0.76040  0.83230  1.0000
  C   C62       1.0  0.86510  0.23960  0.83230  1.0000
  C   C63       1.0  0.13490  0.23960  0.16770  1.0000
  C   C64       1.0  0.86510  0.76040  0.16770  1.0000
  H   H89       1.0  0.65000  0.27090  0.29910  1.0000
  H   H90       1.0  0.35000  0.72910  0.29910  1.0000
  H   H91       1.0  0.65000  0.72910  0.70090  1.0000
  H   H92       1.0  0.35000  0.27090  0.70090  1.0000
  H   H93       1.0  0.15000  0.77090  0.79910  1.0000
  H   H94       1.0  0.85000  0.22910  0.79910  1.0000
  H   H95       1.0  0.15000  0.22910  0.20090  1.0000
  H   H96       1.0  0.85000  0.77090  0.20090  1.0000
  C   C65       1.0  0.62690  0.23960  0.41610  1.0000
  C   C66       1.0  0.37310  0.76040  0.41610  1.0000
  C   C67       1.0  0.62690  0.76040  0.58390  1.0000
  C   C68       1.0  0.37310  0.23960  0.58390  1.0000
  C   C69       1.0  0.12690  0.73960  0.91610  1.0000
  C   C70       1.0  0.87310  0.26040  0.91610  1.0000
  C   C71       1.0  0.12690  0.26040  0.08390  1.0000
  C   C72       1.0  0.87310  0.73960  0.08390  1.0000
  H   H97       1.0  0.63670  0.23360  0.45190  1.0000
  H   H98       1.0  0.36330  0.76640  0.45190  1.0000
  H   H99       1.0  0.63670  0.76640  0.54810  1.0000
  H   H100      1.0  0.36330  0.23360  0.54810  1.0000
  H   H101      1.0  0.13670  0.73360  0.95190  1.0000
  H   H102      1.0  0.86330  0.26640  0.95190  1.0000
  H   H103      1.0  0.13670  0.26640  0.04810  1.0000
  H   H104      1.0  0.86330  0.73360  0.04810  1.0000
  C   C73       1.0  0.57310  0.23700  0.39610  1.0000
  C   C74       1.0  0.42690  0.76300  0.39610  1.0000
  C   C75       1.0  0.57310  0.76300  0.60390  1.0000
  C   C76       1.0  0.42690  0.23700  0.60390  1.0000
  C   C77       1.0  0.07310  0.73700  0.89610  1.0000
  C   C78       1.0  0.92690  0.26300  0.89610  1.0000
  C   C79       1.0  0.07310  0.26300  0.10390  1.0000
  C   C80       1.0  0.92690  0.73700  0.10390  1.0000
  H   H105      1.0  0.53940  0.22760  0.41460  1.0000
  H   H106      1.0  0.46060  0.77240  0.41460  1.0000
  H   H107      1.0  0.53940  0.77240  0.58540  1.0000
  H   H108      1.0  0.46060  0.22760  0.58540  1.0000
  H   H109      1.0  0.03940  0.72760  0.91460  1.0000
  H   H110      1.0  0.96060  0.27240  0.91460  1.0000
  H   H111      1.0  0.03940  0.27240  0.08540  1.0000
  H   H112      1.0  0.96060  0.72760  0.08540  1.0000
  C   C81       1.0  0.24620  0.36120  0.17350  1.0000
  C   C82       1.0  0.75380  0.63880  0.17350  1.0000
  C   C83       1.0  0.24620  0.63880  0.82650  1.0000
  C   C84       1.0  0.75380  0.36120  0.82650  1.0000
  C   C85       1.0  0.74620  0.86120  0.67350  1.0000
  C   C86       1.0  0.25380  0.13880  0.67350  1.0000
  C   C87       1.0  0.74620  0.13880  0.32650  1.0000
  C   C88       1.0  0.25380  0.86120  0.32650  1.0000
  H   H113      1.0  0.23470  0.34570  0.20620  1.0000
  H   H114      1.0  0.76530  0.65430  0.20620  1.0000
  H   H115      1.0  0.23470  0.65430  0.79380  1.0000
  H   H116      1.0  0.76530  0.34570  0.79380  1.0000
  H   H117      1.0  0.73470  0.84570  0.70620  1.0000
  H   H118      1.0  0.26530  0.15430  0.70620  1.0000
  H   H119      1.0  0.73470  0.15430  0.29380  1.0000
  H   H120      1.0  0.26530  0.84570  0.29380  1.0000
  C   C89       1.0  0.26870  0.36980  0.09120  1.0000
  C   C90       1.0  0.73130  0.63020  0.09120  1.0000
  C   C91       1.0  0.26870  0.63020  0.90880  1.0000
  C   C92       1.0  0.73130  0.36980  0.90880  1.0000
  C   C93       1.0  0.76870  0.86980  0.59120  1.0000
  C   C94       1.0  0.23130  0.13020  0.59120  1.0000
  C   C95       1.0  0.76870  0.13020  0.40880  1.0000
  C   C96       1.0  0.23130  0.86980  0.40880  1.0000
  H   H121      1.0  0.27540  0.36110  0.05530  1.0000
  H   H122      1.0  0.72460  0.63890  0.05530  1.0000
  H   H123      1.0  0.27540  0.63890  0.94470  1.0000
  H   H124      1.0  0.72460  0.36110  0.94470  1.0000
  H   H125      1.0  0.77540  0.86110  0.55530  1.0000
  H   H126      1.0  0.22460  0.13890  0.55530  1.0000
  H   H127      1.0  0.77540  0.13890  0.44470  1.0000
  H   H128      1.0  0.22460  0.86110  0.44470  1.0000
  C   C97       1.0  0.27080  0.42360  0.11230  1.0000
  C   C98       1.0  0.72920  0.57640  0.11230  1.0000
  C   C99       1.0  0.27080  0.57640  0.88770  1.0000
  C   C100      1.0  0.72920  0.42360  0.88770  1.0000
  C   C101      1.0  0.77080  0.92360  0.61230  1.0000
  C   C102      1.0  0.22920  0.07640  0.61230  1.0000
  C   C103      1.0  0.77080  0.07640  0.38770  1.0000
  C   C104      1.0  0.22920  0.92360  0.38770  1.0000
  H   H129      1.0  0.28070  0.45750  0.09450  1.0000
  H   H130      1.0  0.71930  0.54250  0.09450  1.0000
  H   H131      1.0  0.28070  0.54250  0.90550  1.0000
  H   H132      1.0  0.71930  0.45750  0.90550  1.0000
  H   H133      1.0  0.78070  0.95750  0.59450  1.0000
  H   H134      1.0  0.21930  0.04250  0.59450  1.0000
  H   H135      1.0  0.78070  0.04250  0.40550  1.0000
  H   H136      1.0  0.21930  0.95750  0.40550  1.0000
  C   C105      1.0  0.25300  0.46330  0.20460  1.0000
  C   C106      1.0  0.74700  0.53670  0.20460  1.0000
  C   C107      1.0  0.25300  0.53670  0.79540  1.0000
  C   C108      1.0  0.74700  0.46330  0.79540  1.0000
  C   C109      1.0  0.75300  0.96330  0.70460  1.0000
  C   C110      1.0  0.24700  0.03670  0.70460  1.0000
  C   C111      1.0  0.75300  0.03670  0.29540  1.0000
  C   C112      1.0  0.24700  0.96330  0.29540  1.0000
  H   H137      1.0  0.21430  0.46470  0.21970  1.0000
  H   H138      1.0  0.78570  0.53530  0.21970  1.0000
  H   H139      1.0  0.21430  0.53530  0.78030  1.0000
  H   H140      1.0  0.78570  0.46470  0.78030  1.0000
  H   H141      1.0  0.71430  0.96470  0.71970  1.0000
  H   H142      1.0  0.28570  0.03530  0.71970  1.0000
  H   H143      1.0  0.71430  0.03530  0.28030  1.0000
  H   H144      1.0  0.28570  0.96470  0.28030  1.0000
  H   H145      1.0  0.26060  0.50020  0.18760  1.0000
  H   H146      1.0  0.73940  0.49980  0.18760  1.0000
  H   H147      1.0  0.26060  0.49980  0.81240  1.0000
  H   H148      1.0  0.73940  0.50020  0.81240  1.0000
  H   H149      1.0  0.76060  0.00020  0.68760  1.0000
  H   H150      1.0  0.23940  0.99980  0.68760  1.0000
  H   H151      1.0  0.76060  0.99980  0.31240  1.0000
  H   H152      1.0  0.23940  0.00020  0.31240  1.0000
  C   C113      1.0  0.29570  0.45440  0.24870  1.0000
  C   C114      1.0  0.70430  0.54560  0.24870  1.0000
  C   C115      1.0  0.29570  0.54560  0.75130  1.0000
  C   C116      1.0  0.70430  0.45440  0.75130  1.0000
  C   C117      1.0  0.79570  0.95440  0.74870  1.0000
  C   C118      1.0  0.20430  0.04560  0.74870  1.0000
  C   C119      1.0  0.79570  0.04560  0.25130  1.0000
  C   C120      1.0  0.20430  0.95440  0.25130  1.0000
  H   H153      1.0  0.33370  0.44720  0.23340  1.0000
  H   H154      1.0  0.66630  0.55280  0.23340  1.0000
  H   H155      1.0  0.33370  0.55280  0.76660  1.0000
  H   H156      1.0  0.66630  0.44720  0.76660  1.0000
  H   H157      1.0  0.83370  0.94720  0.73340  1.0000
  H   H158      1.0  0.16630  0.05280  0.73340  1.0000
  H   H159      1.0  0.83370  0.05280  0.26660  1.0000
  H   H160      1.0  0.16630  0.94720  0.26660  1.0000
  H   H161      1.0  0.28460  0.42070  0.26940  1.0000
  H   H162      1.0  0.71540  0.57930  0.26940  1.0000
  H   H163      1.0  0.28460  0.57930  0.73060  1.0000
  H   H164      1.0  0.71540  0.42070  0.73060  1.0000
  H   H165      1.0  0.78460  0.92070  0.76940  1.0000
  H   H166      1.0  0.21540  0.07930  0.76940  1.0000
  H   H167      1.0  0.78460  0.07930  0.23060  1.0000
  H   H168      1.0  0.21540  0.92070  0.23060  1.0000
  C   C121      1.0  0.29870  0.50750  0.28600  1.0000
  C   C122      1.0  0.70130  0.49250  0.28600  1.0000
  C   C123      1.0  0.29870  0.49250  0.71400  1.0000
  C   C124      1.0  0.70130  0.50750  0.71400  1.0000
  C   C125      1.0  0.79870  0.00750  0.78600  1.0000
  C   C126      1.0  0.20130  0.99250  0.78600  1.0000
  C   C127      1.0  0.79870  0.99250  0.21400  1.0000
  C   C128      1.0  0.20130  0.00750  0.21400  1.0000
  H   H169      1.0  0.32780  0.50070  0.31330  1.0000
  H   H170      1.0  0.67220  0.49930  0.31330  1.0000
  H   H171      1.0  0.32780  0.49930  0.68670  1.0000
  H   H172      1.0  0.67220  0.50070  0.68670  1.0000
  H   H173      1.0  0.82780  0.00070  0.81330  1.0000
  H   H174      1.0  0.17220  0.99930  0.81330  1.0000
  H   H175      1.0  0.82780  0.99930  0.18670  1.0000
  H   H176      1.0  0.17220  0.00070  0.18670  1.0000
  H   H177      1.0  0.31090  0.54080  0.26520  1.0000
  H   H178      1.0  0.68910  0.45920  0.26520  1.0000
  H   H179      1.0  0.31090  0.45920  0.73480  1.0000
  H   H180      1.0  0.68910  0.54080  0.73480  1.0000
  H   H181      1.0  0.81090  0.04080  0.76520  1.0000
  H   H182      1.0  0.18910  0.95920  0.76520  1.0000
  H   H183      1.0  0.81090  0.95920  0.23480  1.0000
  H   H184      1.0  0.18910  0.04080  0.23480  1.0000
  C   C129      1.0  0.24180  0.52120  0.31290  1.0000
  C   C130      1.0  0.75820  0.47880  0.31290  1.0000
  C   C131      1.0  0.24180  0.47880  0.68710  1.0000
  C   C132      1.0  0.75820  0.52120  0.68710  1.0000
  C   C133      1.0  0.74180  0.02120  0.81290  1.0000
  C   C134      1.0  0.25820  0.97880  0.81290  1.0000
  C   C135      1.0  0.74180  0.97880  0.18710  1.0000
  C   C136      1.0  0.25820  0.02120  0.18710  1.0000
  H   H185      1.0  0.21330  0.53140  0.28590  1.0000
  H   H186      1.0  0.78670  0.46860  0.28590  1.0000
  H   H187      1.0  0.21330  0.46860  0.71410  1.0000
  H   H188      1.0  0.78670  0.53140  0.71410  1.0000
  H   H189      1.0  0.71330  0.03140  0.78590  1.0000
  H   H190      1.0  0.28670  0.96860  0.78590  1.0000
  H   H191      1.0  0.71330  0.96860  0.21410  1.0000
  H   H192      1.0  0.28670  0.03140  0.21410  1.0000
  H   H193      1.0  0.22790  0.48710  0.33160  1.0000
  H   H194      1.0  0.77210  0.51290  0.33160  1.0000
  H   H195      1.0  0.22790  0.51290  0.66840  1.0000
  H   H196      1.0  0.77210  0.48710  0.66840  1.0000
  H   H197      1.0  0.72790  0.98710  0.83160  1.0000
  H   H198      1.0  0.27210  0.01290  0.83160  1.0000
  H   H199      1.0  0.72790  0.01290  0.16840  1.0000
  H   H200      1.0  0.27210  0.98710  0.16840  1.0000
  C   C137      1.0  0.23910  0.62440  0.33910  1.0000
  C   C138      1.0  0.76090  0.37560  0.33910  1.0000
  C   C139      1.0  0.23910  0.37560  0.66090  1.0000
  C   C140      1.0  0.76090  0.62440  0.66090  1.0000
  C   C141      1.0  0.73910  0.12440  0.83910  1.0000
  C   C142      1.0  0.26090  0.87560  0.83910  1.0000
  C   C143      1.0  0.73910  0.87560  0.16090  1.0000
  C   C144      1.0  0.26090  0.12440  0.16090  1.0000
  H   H201      1.0  0.22640  0.63720  0.30580  1.0000
  H   H202      1.0  0.77360  0.36280  0.30580  1.0000
  H   H203      1.0  0.22640  0.36280  0.69420  1.0000
  H   H204      1.0  0.77360  0.63720  0.69420  1.0000
  H   H205      1.0  0.72640  0.13720  0.80580  1.0000
  H   H206      1.0  0.27360  0.86280  0.80580  1.0000
  H   H207      1.0  0.72640  0.86280  0.19420  1.0000
  H   H208      1.0  0.27360  0.13720  0.19420  1.0000
  C   C145      1.0  0.26680  0.56760  0.40370  1.0000
  C   C146      1.0  0.73320  0.43240  0.40370  1.0000
  C   C147      1.0  0.26680  0.43240  0.59630  1.0000
  C   C148      1.0  0.73320  0.56760  0.59630  1.0000
  C   C149      1.0  0.76680  0.06760  0.90370  1.0000
  C   C150      1.0  0.23320  0.93240  0.90370  1.0000
  C   C151      1.0  0.76680  0.93240  0.09630  1.0000
  C   C152      1.0  0.23320  0.06760  0.09630  1.0000
  H   H209      1.0  0.27640  0.53470  0.42320  1.0000
  H   H210      1.0  0.72360  0.46530  0.42320  1.0000
  H   H211      1.0  0.27640  0.46530  0.57680  1.0000
  H   H212      1.0  0.72360  0.53470  0.57680  1.0000
  H   H213      1.0  0.77640  0.03470  0.92320  1.0000
  H   H214      1.0  0.22360  0.96530  0.92320  1.0000
  H   H215      1.0  0.77640  0.96530  0.07680  1.0000
  H   H216      1.0  0.22360  0.03470  0.07680  1.0000
  C   C153      1.0  0.26910  0.62260  0.42070  1.0000
  C   C154      1.0  0.73090  0.37740  0.42070  1.0000
  C   C155      1.0  0.26910  0.37740  0.57930  1.0000
  C   C156      1.0  0.73090  0.62260  0.57930  1.0000
  C   C157      1.0  0.76910  0.12260  0.92070  1.0000
  C   C158      1.0  0.23090  0.87740  0.92070  1.0000
  C   C159      1.0  0.76910  0.87740  0.07930  1.0000
  C   C160      1.0  0.23090  0.12260  0.07930  1.0000
  H   H217      1.0  0.28090  0.63430  0.45470  1.0000
  H   H218      1.0  0.71910  0.36570  0.45470  1.0000
  H   H219      1.0  0.28090  0.36570  0.54530  1.0000
  H   H220      1.0  0.71910  0.63430  0.54530  1.0000
  H   H221      1.0  0.78090  0.13430  0.95470  1.0000
  H   H222      1.0  0.21910  0.86570  0.95470  1.0000
  H   H223      1.0  0.78090  0.86570  0.04530  1.0000
  H   H224      1.0  0.21910  0.13430  0.04530  1.0000
  N   N1        1.0  0.33740  0.24080  0.12410  1.0000
  N   N2        1.0  0.66260  0.75920  0.12410  1.0000
  N   N3        1.0  0.33740  0.75920  0.87590  1.0000
  N   N4        1.0  0.66260  0.24080  0.87590  1.0000
  N   N5        1.0  0.83740  0.74080  0.62410  1.0000
  N   N6        1.0  0.16260  0.25920  0.62410  1.0000
  N   N7        1.0  0.83740  0.25920  0.37590  1.0000
  N   N8        1.0  0.16260  0.74080  0.37590  1.0000
  N   N9        1.0  0.42720  0.24420  0.15450  1.0000
  N   N10       1.0  0.57280  0.75580  0.15450  1.0000
  N   N11       1.0  0.42720  0.75580  0.84550  1.0000
  N   N12       1.0  0.57280  0.24420  0.84550  1.0000
  N   N13       1.0  0.92720  0.74420  0.65450  1.0000
  N   N14       1.0  0.07280  0.25580  0.65450  1.0000
  N   N15       1.0  0.92720  0.25580  0.34550  1.0000
  N   N16       1.0  0.07280  0.74420  0.34550  1.0000
  N   N17       1.0  0.57770  0.25100  0.34290  1.0000
  N   N18       1.0  0.42230  0.74900  0.34290  1.0000
  N   N19       1.0  0.57770  0.74900  0.65710  1.0000
  N   N20       1.0  0.42230  0.25100  0.65710  1.0000
  N   N21       1.0  0.07770  0.75100  0.84290  1.0000
  N   N22       1.0  0.92230  0.24900  0.84290  1.0000
  N   N23       1.0  0.07770  0.24900  0.15710  1.0000
  N   N24       1.0  0.92230  0.75100  0.15710  1.0000
  N   N25       1.0  0.66520  0.25240  0.37630  1.0000
  N   N26       1.0  0.33480  0.74760  0.37630  1.0000
  N   N27       1.0  0.66520  0.74760  0.62370  1.0000
  N   N28       1.0  0.33480  0.25240  0.62370  1.0000
  N   N29       1.0  0.16520  0.75240  0.87630  1.0000
  N   N30       1.0  0.83480  0.24760  0.87630  1.0000
  N   N31       1.0  0.16520  0.24760  0.12370  1.0000
  N   N32       1.0  0.83480  0.75240  0.12370  1.0000
  N   N33       1.0  0.25540  0.33030  0.12932  1.0000
  N   N34       1.0  0.74460  0.66970  0.12932  1.0000
  N   N35       1.0  0.25540  0.66970  0.87068  1.0000
  N   N36       1.0  0.74460  0.33030  0.87068  1.0000
  N   N37       1.0  0.75540  0.83030  0.62932  1.0000
  N   N38       1.0  0.24460  0.16970  0.62932  1.0000
  N   N39       1.0  0.75540  0.16970  0.37068  1.0000
  N   N40       1.0  0.24460  0.83030  0.37068  1.0000
  N   N41       1.0  0.25560  0.41790  0.16450  1.0000
  N   N42       1.0  0.74440  0.58210  0.16450  1.0000
  N   N43       1.0  0.25560  0.58210  0.83550  1.0000
  N   N44       1.0  0.74440  0.41790  0.83550  1.0000
  N   N45       1.0  0.75560  0.91790  0.66450  1.0000
  N   N46       1.0  0.24440  0.08210  0.66450  1.0000
  N   N47       1.0  0.75560  0.08210  0.33550  1.0000
  N   N48       1.0  0.24440  0.91790  0.33550  1.0000
  N   N49       1.0  0.24760  0.56960  0.35180  1.0000
  N   N50       1.0  0.75240  0.43040  0.35180  1.0000
  N   N51       1.0  0.24760  0.43040  0.64820  1.0000
  N   N52       1.0  0.75240  0.56960  0.64820  1.0000
  N   N53       1.0  0.74760  0.06960  0.85180  1.0000
  N   N54       1.0  0.25240  0.93040  0.85180  1.0000
  N   N55       1.0  0.74760  0.93040  0.14820  1.0000
  N   N56       1.0  0.25240  0.06960  0.14820  1.0000
  N   N57       1.0  0.25130  0.65900  0.38040  1.0000
  N   N58       1.0  0.74870  0.34100  0.38040  1.0000
  N   N59       1.0  0.25130  0.34100  0.61960  1.0000
  N   N60       1.0  0.74870  0.65900  0.61960  1.0000
  N   N61       1.0  0.75130  0.15900  0.88040  1.0000
  N   N62       1.0  0.24870  0.84100  0.88040  1.0000
  N   N63       1.0  0.75130  0.84100  0.11960  1.0000
  N   N64       1.0  0.24870  0.15900  0.11960  1.0000
  O   O1        1.0  0.25194  0.25499  0.02897  1.0000
  O   O2        1.0  0.74806  0.74501  0.02897  1.0000
  O   O3        1.0  0.25194  0.74501  0.97103  1.0000
  O   O4        1.0  0.74806  0.25499  0.97103  1.0000
  O   O5        1.0  0.75194  0.75499  0.52897  1.0000
  O   O6        1.0  0.24806  0.24501  0.52897  1.0000
  O   O7        1.0  0.75194  0.24501  0.47103  1.0000
  O   O8        1.0  0.24806  0.75499  0.47103  1.0000
  O   O9        1.0  0.43540  0.21620  0.96290  1.0000
  O   O10       1.0  0.56460  0.78380  0.96290  1.0000
  O   O11       1.0  0.43540  0.78380  0.03710  1.0000
  O   O12       1.0  0.56460  0.21620  0.03710  1.0000
  O   O13       1.0  0.93540  0.71620  0.46290  1.0000
  O   O14       1.0  0.06460  0.28380  0.46290  1.0000
  O   O15       1.0  0.93540  0.28380  0.53710  1.0000
  O   O16       1.0  0.06460  0.71620  0.53710  1.0000
  O   O17       1.0  0.20420  0.06320  0.94940  1.0000
  O   O18       1.0  0.79580  0.93680  0.94940  1.0000
  O   O19       1.0  0.20420  0.93680  0.05060  1.0000
  O   O20       1.0  0.79580  0.06320  0.05060  1.0000
  O   O21       1.0  0.70420  0.56320  0.44940  1.0000
  O   O22       1.0  0.29580  0.43680  0.44940  1.0000
  O   O23       1.0  0.70420  0.43680  0.55060  1.0000
  O   O24       1.0  0.29580  0.56320  0.55060  1.0000
  O   O25       1.0  0.34910  0.10910  0.78150  1.0000
  O   O26       1.0  0.65090  0.89090  0.78150  1.0000
  O   O27       1.0  0.34910  0.89090  0.21850  1.0000
  O   O28       1.0  0.65090  0.10910  0.21850  1.0000
  O   O29       1.0  0.84910  0.60910  0.28150  1.0000
  O   O30       1.0  0.15090  0.39090  0.28150  1.0000
  O   O31       1.0  0.84910  0.39090  0.71850  1.0000
  O   O32       1.0  0.15090  0.60910  0.71850  1.0000
  O   O33       1.0  0.05670  0.30460  0.96130  1.0000
  O   O34       1.0  0.94330  0.69540  0.96130  1.0000
  O   O35       1.0  0.05670  0.69540  0.03870  1.0000
  O   O36       1.0  0.94330  0.30460  0.03870  1.0000
  O   O37       1.0  0.55670  0.80460  0.46130  1.0000
  O   O38       1.0  0.44330  0.19540  0.46130  1.0000
  O   O39       1.0  0.55670  0.19540  0.53870  1.0000
  O   O40       1.0  0.44330  0.80460  0.53870  1.0000
  O   O41       1.0  0.09990  0.17410  0.77980  1.0000
  O   O42       1.0  0.90010  0.82590  0.77980  1.0000
  O   O43       1.0  0.09990  0.82590  0.22020  1.0000
  O   O44       1.0  0.90010  0.17410  0.22020  1.0000
  O   O45       1.0  0.59990  0.67410  0.27980  1.0000
  O   O46       1.0  0.40010  0.32590  0.27980  1.0000
  O   O47       1.0  0.59990  0.32590  0.72020  1.0000
  O   O48       1.0  0.40010  0.67410  0.72020  1.0000
  O   O49       1.0  0.14300  0.43650  0.80140  1.0000
  O   O50       1.0  0.85700  0.56350  0.80140  1.0000
  O   O51       1.0  0.14300  0.56350  0.19860  1.0000
  O   O52       1.0  0.85700  0.43650  0.19860  1.0000
  O   O53       1.0  0.64300  0.93650  0.30140  1.0000
  O   O54       1.0  0.35700  0.06350  0.30140  1.0000
  O   O55       1.0  0.64300  0.06350  0.69860  1.0000
  O   O56       1.0  0.35700  0.93650  0.69860  1.0000
  O   O57       1.0  0.24698  0.26410  0.72565  1.0000
  O   O58       1.0  0.75302  0.73590  0.72565  1.0000
  O   O59       1.0  0.24698  0.73590  0.27435  1.0000
  O   O60       1.0  0.75302  0.26410  0.27435  1.0000
  O   O61       1.0  0.74698  0.76410  0.22565  1.0000
  O   O62       1.0  0.25302  0.23590  0.22565  1.0000
  O   O63       1.0  0.74698  0.23590  0.77435  1.0000
  O   O64       1.0  0.25302  0.76410  0.77435  1.0000
  O   O65       1.0  0.42490  0.37440  0.80430  1.0000
  O   O66       1.0  0.57510  0.62560  0.80430  1.0000
  O   O67       1.0  0.42490  0.62560  0.19570  1.0000
  O   O68       1.0  0.57510  0.37440  0.19570  1.0000
  O   O69       1.0  0.92490  0.87440  0.30430  1.0000
  O   O70       1.0  0.07510  0.12560  0.30430  1.0000
  O   O71       1.0  0.92490  0.12560  0.69570  1.0000
  O   O72       1.0  0.07510  0.87440  0.69570  1.0000
  O   O73       1.0  0.29180  0.43800  0.97360  1.0000
  O   O74       1.0  0.70820  0.56200  0.97360  1.0000
  O   O75       1.0  0.29180  0.56200  0.02640  1.0000
  O   O76       1.0  0.70820  0.43800  0.02640  1.0000
  O   O77       1.0  0.79180  0.93800  0.47360  1.0000
  O   O78       1.0  0.20820  0.06200  0.47360  1.0000
  O   O79       1.0  0.79180  0.06200  0.52640  1.0000
  O   O80       1.0  0.20820  0.93800  0.52640  1.0000
  O   O81       1.0  0.40872  0.29120  0.88060  1.0000
  O   O82       1.0  0.59128  0.70880  0.88060  1.0000
  O   O83       1.0  0.40872  0.70880  0.11940  1.0000
  O   O84       1.0  0.59128  0.29120  0.11940  1.0000
  O   O85       1.0  0.90872  0.79120  0.38060  1.0000
  O   O86       1.0  0.09128  0.20880  0.38060  1.0000
  O   O87       1.0  0.90872  0.20880  0.61940  1.0000
  O   O88       1.0  0.09128  0.79120  0.61940  1.0000
  O   O89       1.0  0.39200  0.16550  0.87050  1.0000
  O   O90       1.0  0.60800  0.83450  0.87050  1.0000
  O   O91       1.0  0.39200  0.83450  0.12950  1.0000
  O   O92       1.0  0.60800  0.16550  0.12950  1.0000
  O   O93       1.0  0.89200  0.66550  0.37050  1.0000
  O   O94       1.0  0.10800  0.33450  0.37050  1.0000
  O   O95       1.0  0.89200  0.33450  0.62950  1.0000
  O   O96       1.0  0.10800  0.66550  0.62950  1.0000
  O   O97       1.0  0.27980  0.10340  0.87133  1.0000
  O   O98       1.0  0.72020  0.89660  0.87133  1.0000
  O   O99       1.0  0.27980  0.89660  0.12867  1.0000
  O   O100      1.0  0.72020  0.10340  0.12867  1.0000
  O   O101      1.0  0.77980  0.60340  0.37133  1.0000
  O   O102      1.0  0.22020  0.39660  0.37133  1.0000
  O   O103      1.0  0.77980  0.39660  0.62867  1.0000
  O   O104      1.0  0.22020  0.60340  0.62867  1.0000
  O   O105      1.0  0.32330  0.23270  0.94020  1.0000
  O   O106      1.0  0.67670  0.76730  0.94020  1.0000
  O   O107      1.0  0.32330  0.76730  0.05980  1.0000
  O   O108      1.0  0.67670  0.23270  0.05980  1.0000
  O   O109      1.0  0.82330  0.73270  0.44020  1.0000
  O   O110      1.0  0.17670  0.26730  0.44020  1.0000
  O   O111      1.0  0.82330  0.26730  0.55980  1.0000
  O   O112      1.0  0.17670  0.73270  0.55980  1.0000
  O   O113      1.0  0.15510  0.12530  0.86635  1.0000
  O   O114      1.0  0.84490  0.87470  0.86635  1.0000
  O   O115      1.0  0.15510  0.87470  0.13365  1.0000
  O   O116      1.0  0.84490  0.12530  0.13365  1.0000
  O   O117      1.0  0.65510  0.62530  0.36635  1.0000
  O   O118      1.0  0.34490  0.37470  0.36635  1.0000
  O   O119      1.0  0.65510  0.37470  0.63365  1.0000
  O   O120      1.0  0.34490  0.62530  0.63365  1.0000
  O   O121      1.0  0.22470  0.17650  0.94741  1.0000
  O   O122      1.0  0.77530  0.82350  0.94741  1.0000
  O   O123      1.0  0.22470  0.82350  0.05259  1.0000
  O   O124      1.0  0.77530  0.17650  0.05259  1.0000
  O   O125      1.0  0.72470  0.67650  0.44741  1.0000
  O   O126      1.0  0.27530  0.32350  0.44741  1.0000
  O   O127      1.0  0.72470  0.32350  0.55259  1.0000
  O   O128      1.0  0.27530  0.67650  0.55259  1.0000
  O   O129      1.0  0.16802  0.27630  0.95070  1.0000
  O   O130      1.0  0.83198  0.72370  0.95070  1.0000
  O   O131      1.0  0.16802  0.72370  0.04930  1.0000
  O   O132      1.0  0.83198  0.27630  0.04930  1.0000
  O   O133      1.0  0.66802  0.77630  0.45070  1.0000
  O   O134      1.0  0.33198  0.22370  0.45070  1.0000
  O   O135      1.0  0.66802  0.22370  0.54930  1.0000
  O   O136      1.0  0.33198  0.77630  0.54930  1.0000
  O   O137      1.0  0.19000  0.23290  0.82220  1.0000
  O   O138      1.0  0.81000  0.76710  0.82220  1.0000
  O   O139      1.0  0.19000  0.76710  0.17780  1.0000
  O   O140      1.0  0.81000  0.23290  0.17780  1.0000
  O   O141      1.0  0.69000  0.73290  0.32220  1.0000
  O   O142      1.0  0.31000  0.26710  0.32220  1.0000
  O   O143      1.0  0.69000  0.26710  0.67780  1.0000
  O   O144      1.0  0.31000  0.73290  0.67780  1.0000
  O   O145      1.0  0.26680  0.32960  0.94000  1.0000
  O   O146      1.0  0.73320  0.67040  0.94000  1.0000
  O   O147      1.0  0.26680  0.67040  0.06000  1.0000
  O   O148      1.0  0.73320  0.32960  0.06000  1.0000
  O   O149      1.0  0.76680  0.82960  0.44000  1.0000
  O   O150      1.0  0.23320  0.17040  0.44000  1.0000
  O   O151      1.0  0.76680  0.17040  0.56000  1.0000
  O   O152      1.0  0.23320  0.82960  0.56000  1.0000
  O   O153      1.0  0.29700  0.20600  0.81080  1.0000
  O   O154      1.0  0.70300  0.79400  0.81080  1.0000
  O   O155      1.0  0.29700  0.79400  0.18920  1.0000
  O   O156      1.0  0.70300  0.20600  0.18920  1.0000
  O   O157      1.0  0.79700  0.70600  0.31080  1.0000
  O   O158      1.0  0.20300  0.29400  0.31080  1.0000
  O   O159      1.0  0.79700  0.29400  0.68920  1.0000
  O   O160      1.0  0.20300  0.70600  0.68920  1.0000
  O   O161      1.0  0.32310  0.31660  0.80150  1.0000
  O   O162      1.0  0.67690  0.68340  0.80150  1.0000
  O   O163      1.0  0.32310  0.68340  0.19850  1.0000
  O   O164      1.0  0.67690  0.31660  0.19850  1.0000
  O   O165      1.0  0.82310  0.81660  0.30150  1.0000
  O   O166      1.0  0.17690  0.18340  0.30150  1.0000
  O   O167      1.0  0.82310  0.18340  0.69850  1.0000
  O   O168      1.0  0.17690  0.81660  0.69850  1.0000
  O   O169      1.0  0.34410  0.40140  0.88230  1.0000
  O   O170      1.0  0.65590  0.59860  0.88230  1.0000
  O   O171      1.0  0.34410  0.59860  0.11770  1.0000
  O   O172      1.0  0.65590  0.40140  0.11770  1.0000
  O   O173      1.0  0.84410  0.90140  0.38230  1.0000
  O   O174      1.0  0.15590  0.09860  0.38230  1.0000
  O   O175      1.0  0.84410  0.09860  0.61770  1.0000
  O   O176      1.0  0.15590  0.90140  0.61770  1.0000
  O   O177      1.0  0.21890  0.42830  0.88628  1.0000
  O   O178      1.0  0.78110  0.57170  0.88628  1.0000
  O   O179      1.0  0.21890  0.57170  0.11372  1.0000
  O   O180      1.0  0.78110  0.42830  0.11372  1.0000
  O   O181      1.0  0.71890  0.92830  0.38628  1.0000
  O   O182      1.0  0.28110  0.07170  0.38628  1.0000
  O   O183      1.0  0.71890  0.07170  0.61372  1.0000
  O   O184      1.0  0.28110  0.92830  0.61372  1.0000
  O   O185      1.0  0.21050  0.34270  0.80480  1.0000
  O   O186      1.0  0.78950  0.65730  0.80480  1.0000
  O   O187      1.0  0.21050  0.65730  0.19520  1.0000
  O   O188      1.0  0.78950  0.34270  0.19520  1.0000
  O   O189      1.0  0.71050  0.84270  0.30480  1.0000
  O   O190      1.0  0.28950  0.15730  0.30480  1.0000
  O   O191      1.0  0.71050  0.15730  0.69520  1.0000
  O   O192      1.0  0.28950  0.84270  0.69520  1.0000
  O   O193      1.0  0.11490  0.35500  0.87760  1.0000
  O   O194      1.0  0.88510  0.64500  0.87760  1.0000
  O   O195      1.0  0.11490  0.64500  0.12240  1.0000
  O   O196      1.0  0.88510  0.35500  0.12240  1.0000
  O   O197      1.0  0.61490  0.85500  0.37760  1.0000
  O   O198      1.0  0.38510  0.14500  0.37760  1.0000
  O   O199      1.0  0.61490  0.14500  0.62240  1.0000
  O   O200      1.0  0.38510  0.85500  0.62240  1.0000
  O   O201      1.0  0.08401  0.23090  0.87784  1.0000
  O   O202      1.0  0.91599  0.76910  0.87784  1.0000
  O   O203      1.0  0.08401  0.76910  0.12216  1.0000
  O   O204      1.0  0.91599  0.23090  0.12216  1.0000
  O   O205      1.0  0.58401  0.73090  0.37784  1.0000
  O   O206      1.0  0.41599  0.26910  0.37784  1.0000
  O   O207      1.0  0.58401  0.26910  0.62216  1.0000
  O   O208      1.0  0.41599  0.73090  0.62216  1.0000
