data_image0
_chemical_formula_structural       C28H4C8H4C8H4C12H4C8H4C8H4C8Yb8O64
_chemical_formula_sum              "C80 H24 Yb8 O64"
_cell_length_a       18.825
_cell_length_b       15.373
_cell_length_c       9.047
_cell_angle_alpha    90
_cell_angle_beta     90
_cell_angle_gamma    90

_space_group_name_H-M_alt    "P 1"
_space_group_IT_number       1

loop_
  _space_group_symop_operation_xyz
  'x, y, z'

loop_
  _atom_site_type_symbol
  _atom_site_label
  _atom_site_symmetry_multiplicity
  _atom_site_fract_x
  _atom_site_fract_y
  _atom_site_fract_z
  _atom_site_occupancy
  C   C1        1.0  0.98640  0.84430  0.64610  1.0000
  C   C2        1.0  0.01360  0.15570  0.14610  1.0000
  C   C3        1.0  0.48640  0.65570  0.64610  1.0000
  C   C4        1.0  0.51360  0.34430  0.14610  1.0000
  C   C5        1.0  0.00060  0.84490  0.81210  1.0000
  C   C6        1.0  0.99940  0.15510  0.31210  1.0000
  C   C7        1.0  0.50060  0.65510  0.81210  1.0000
  C   C8        1.0  0.49940  0.34490  0.31210  1.0000
  C   C9        1.0  0.15660  0.98750  0.42210  1.0000
  C   C10       1.0  0.84340  0.01250  0.92210  1.0000
  C   C11       1.0  0.65660  0.51250  0.42210  1.0000
  C   C12       1.0  0.34340  0.48750  0.92210  1.0000
  C   C13       1.0  0.15380  0.04140  0.56560  1.0000
  C   C14       1.0  0.84620  0.95860  0.06560  1.0000
  C   C15       1.0  0.65380  0.45860  0.56560  1.0000
  C   C16       1.0  0.34620  0.54140  0.06560  1.0000
  C   C17       1.0  0.15500  0.65250  0.85430  1.0000
  C   C18       1.0  0.84500  0.34750  0.35430  1.0000
  C   C19       1.0  0.65500  0.84750  0.85430  1.0000
  C   C20       1.0  0.34500  0.15250  0.35430  1.0000
  C   C21       1.0  0.11720  0.57890  0.93360  1.0000
  C   C22       1.0  0.88280  0.42110  0.43360  1.0000
  C   C23       1.0  0.61720  0.92110  0.93360  1.0000
  C   C24       1.0  0.38280  0.07890  0.43360  1.0000
  C   C25       1.0  0.15490  0.51500  0.00020  1.0000
  C   C26       1.0  0.84510  0.48500  0.50020  1.0000
  C   C27       1.0  0.65490  0.98500  0.00020  1.0000
  C   C28       1.0  0.34510  0.01500  0.50020  1.0000
  H   H1        1.0  0.20430  0.51710  0.99760  1.0000
  H   H2        1.0  0.79570  0.48290  0.49760  1.0000
  H   H3        1.0  0.70430  0.98290  0.99760  1.0000
  H   H4        1.0  0.29570  0.01710  0.49760  1.0000
  C   C29       1.0  0.12230  0.44690  0.07160  1.0000
  C   C30       1.0  0.87770  0.55310  0.57160  1.0000
  C   C31       1.0  0.62230  0.05310  0.07160  1.0000
  C   C32       1.0  0.37770  0.94690  0.57160  1.0000
  C   C33       1.0  0.04860  0.44320  0.07090  1.0000
  C   C34       1.0  0.95140  0.55680  0.57090  1.0000
  C   C35       1.0  0.54860  0.05680  0.07090  1.0000
  C   C36       1.0  0.45140  0.94320  0.57090  1.0000
  H   H5        1.0  0.02610  0.39710  0.11810  1.0000
  H   H6        1.0  0.97390  0.60290  0.61810  1.0000
  H   H7        1.0  0.52610  0.10290  0.11810  1.0000
  H   H8        1.0  0.47390  0.89710  0.61810  1.0000
  C   C37       1.0  0.00760  0.50630  0.00160  1.0000
  C   C38       1.0  0.99240  0.49370  0.50160  1.0000
  C   C39       1.0  0.50760  0.99370  0.00160  1.0000
  C   C40       1.0  0.49240  0.00630  0.50160  1.0000
  C   C41       1.0  0.04300  0.57560  0.93480  1.0000
  C   C42       1.0  0.95700  0.42440  0.43480  1.0000
  C   C43       1.0  0.54300  0.92440  0.93480  1.0000
  C   C44       1.0  0.45700  0.07560  0.43480  1.0000
  H   H9        1.0  0.01700  0.62010  0.89080  1.0000
  H   H10       1.0  0.98300  0.37990  0.39080  1.0000
  H   H11       1.0  0.51700  0.87990  0.89080  1.0000
  H   H12       1.0  0.48300  0.12010  0.39080  1.0000
  C   C45       1.0  0.16430  0.37270  0.13860  1.0000
  C   C46       1.0  0.83570  0.62730  0.63860  1.0000
  C   C47       1.0  0.66430  0.12730  0.13860  1.0000
  C   C48       1.0  0.33570  0.87270  0.63860  1.0000
  C   C49       1.0  0.92860  0.49960  0.99890  1.0000
  C   C50       1.0  0.07140  0.50040  0.49890  1.0000
  C   C51       1.0  0.42860  0.00040  0.99890  1.0000
  C   C52       1.0  0.57140  0.99960  0.49890  1.0000
  C   C53       1.0  0.89480  0.42070  0.01120  1.0000
  C   C54       1.0  0.10520  0.57930  0.51120  1.0000
  C   C55       1.0  0.39480  0.07930  0.01120  1.0000
  C   C56       1.0  0.60520  0.92070  0.51120  1.0000
  H   H13       1.0  0.92210  0.37070  0.02300  1.0000
  H   H14       1.0  0.07790  0.62930  0.52300  1.0000
  H   H15       1.0  0.42210  0.12930  0.02300  1.0000
  H   H16       1.0  0.57790  0.87070  0.52300  1.0000
  C   C57       1.0  0.82030  0.41290  0.00640  1.0000
  C   C58       1.0  0.17970  0.58710  0.50640  1.0000
  C   C59       1.0  0.32030  0.08710  0.00640  1.0000
  C   C60       1.0  0.67970  0.91290  0.50640  1.0000
  C   C61       1.0  0.78030  0.48730  0.99120  1.0000
  C   C62       1.0  0.21970  0.51270  0.49120  1.0000
  C   C63       1.0  0.28030  0.01270  0.99120  1.0000
  C   C64       1.0  0.71970  0.98730  0.49120  1.0000
  H   H17       1.0  0.73100  0.48350  0.99290  1.0000
  H   H18       1.0  0.26900  0.51650  0.49290  1.0000
  H   H19       1.0  0.23100  0.01650  0.99290  1.0000
  H   H20       1.0  0.76900  0.98350  0.49290  1.0000
  C   C65       1.0  0.81200  0.56650  0.97370  1.0000
  C   C66       1.0  0.18800  0.43350  0.47370  1.0000
  C   C67       1.0  0.31200  0.93350  0.97370  1.0000
  C   C68       1.0  0.68800  0.06650  0.47370  1.0000
  C   C69       1.0  0.88540  0.57320  0.97990  1.0000
  C   C70       1.0  0.11460  0.42680  0.47990  1.0000
  C   C71       1.0  0.38540  0.92680  0.97990  1.0000
  C   C72       1.0  0.61460  0.07320  0.47990  1.0000
  H   H21       1.0  0.90650  0.62760  0.97130  1.0000
  H   H22       1.0  0.09350  0.37240  0.47130  1.0000
  H   H23       1.0  0.40650  0.87240  0.97130  1.0000
  H   H24       1.0  0.59350  0.12760  0.47130  1.0000
  C   C73       1.0  0.76920  0.64670  0.94020  1.0000
  C   C74       1.0  0.23080  0.35330  0.44020  1.0000
  C   C75       1.0  0.26920  0.85330  0.94020  1.0000
  C   C76       1.0  0.73080  0.14670  0.44020  1.0000
  C   C77       1.0  0.78650  0.32960  0.03670  1.0000
  C   C78       1.0  0.21350  0.67040  0.53670  1.0000
  C   C79       1.0  0.28650  0.17040  0.03670  1.0000
  C   C80       1.0  0.71350  0.82960  0.53670  1.0000
  Yb  Yb1       1.0  0.83464  0.82224  0.79565  1.0000
  Yb  Yb2       1.0  0.16536  0.17776  0.29565  1.0000
  Yb  Yb3       1.0  0.33464  0.67776  0.79565  1.0000
  Yb  Yb4       1.0  0.66536  0.32224  0.29565  1.0000
  Yb  Yb5       1.0  0.15271  0.84772  0.68251  1.0000
  Yb  Yb6       1.0  0.84729  0.15228  0.18251  1.0000
  Yb  Yb7       1.0  0.65271  0.65228  0.68251  1.0000
  Yb  Yb8       1.0  0.34729  0.34772  0.18251  1.0000
  O   O1        1.0  0.92250  0.85080  0.60360  1.0000
  O   O2        1.0  0.07750  0.14920  0.10360  1.0000
  O   O3        1.0  0.42250  0.64920  0.60360  1.0000
  O   O4        1.0  0.57750  0.35080  0.10360  1.0000
  O   O5        1.0  0.94960  0.82150  0.89450  1.0000
  O   O6        1.0  0.05040  0.17850  0.39450  1.0000
  O   O7        1.0  0.44960  0.67850  0.89450  1.0000
  O   O8        1.0  0.55040  0.32150  0.39450  1.0000
  O   O9        1.0  0.06050  0.87150  0.85050  1.0000
  O   O10       1.0  0.93950  0.12850  0.35050  1.0000
  O   O11       1.0  0.56050  0.62850  0.85050  1.0000
  O   O12       1.0  0.43950  0.37150  0.35050  1.0000
  O   O13       1.0  0.04080  0.83720  0.56420  1.0000
  O   O14       1.0  0.95920  0.16280  0.06420  1.0000
  O   O15       1.0  0.54080  0.66280  0.56420  1.0000
  O   O16       1.0  0.45920  0.33720  0.06420  1.0000
  O   O17       1.0  0.15860  0.90700  0.43730  1.0000
  O   O18       1.0  0.84140  0.09300  0.93730  1.0000
  O   O19       1.0  0.65860  0.59300  0.43730  1.0000
  O   O20       1.0  0.34140  0.40700  0.93730  1.0000
  O   O21       1.0  0.15600  0.02870  0.30220  1.0000
  O   O22       1.0  0.84400  0.97130  0.80220  1.0000
  O   O23       1.0  0.65600  0.47130  0.30220  1.0000
  O   O24       1.0  0.34400  0.52870  0.80220  1.0000
  O   O25       1.0  0.14520  0.99910  0.68460  1.0000
  O   O26       1.0  0.85480  0.00090  0.18460  1.0000
  O   O27       1.0  0.64520  0.50090  0.68460  1.0000
  O   O28       1.0  0.35480  0.49910  0.18460  1.0000
  O   O29       1.0  0.16130  0.12120  0.55430  1.0000
  O   O30       1.0  0.83870  0.87880  0.05430  1.0000
  O   O31       1.0  0.66130  0.37880  0.55430  1.0000
  O   O32       1.0  0.33870  0.62120  0.05430  1.0000
  O   O33       1.0  0.11940  0.71440  0.80550  1.0000
  O   O34       1.0  0.88060  0.28560  0.30550  1.0000
  O   O35       1.0  0.61940  0.78560  0.80550  1.0000
  O   O36       1.0  0.38060  0.21440  0.30550  1.0000
  O   O37       1.0  0.22150  0.64420  0.84410  1.0000
  O   O38       1.0  0.77850  0.35580  0.34410  1.0000
  O   O39       1.0  0.72150  0.85580  0.84410  1.0000
  O   O40       1.0  0.27850  0.14420  0.34410  1.0000
  O   O41       1.0  0.23000  0.37980  0.14170  1.0000
  O   O42       1.0  0.77000  0.62020  0.64170  1.0000
  O   O43       1.0  0.73000  0.12020  0.14170  1.0000
  O   O44       1.0  0.27000  0.87980  0.64170  1.0000
  O   O45       1.0  0.12910  0.30890  0.18520  1.0000
  O   O46       1.0  0.87090  0.69110  0.68520  1.0000
  O   O47       1.0  0.62910  0.19110  0.18520  1.0000
  O   O48       1.0  0.37090  0.80890  0.68520  1.0000
  O   O49       1.0  0.82190  0.26240  0.02970  1.0000
  O   O50       1.0  0.17810  0.73760  0.52970  1.0000
  O   O51       1.0  0.32190  0.23760  0.02970  1.0000
  O   O52       1.0  0.67810  0.76240  0.52970  1.0000
  O   O53       1.0  0.72060  0.32990  0.07110  1.0000
  O   O54       1.0  0.27940  0.67010  0.57110  1.0000
  O   O55       1.0  0.22060  0.17010  0.07110  1.0000
  O   O56       1.0  0.77940  0.82990  0.57110  1.0000
  O   O57       1.0  0.70550  0.63630  0.90860  1.0000
  O   O58       1.0  0.29450  0.36370  0.40860  1.0000
  O   O59       1.0  0.20550  0.86370  0.90860  1.0000
  O   O60       1.0  0.79450  0.13630  0.40860  1.0000
  O   O61       1.0  0.80120  0.71680  0.94630  1.0000
  O   O62       1.0  0.19880  0.28320  0.44630  1.0000
  O   O63       1.0  0.30120  0.78320  0.94630  1.0000
  O   O64       1.0  0.69880  0.21680  0.44630  1.0000
