data_image0
_chemical_formula_structural       C28H4C8H4C8H4C12H4C8H4C8H4C8Sm8O64
_chemical_formula_sum              "C80 H24 Sm8 O64"
_cell_length_a       19.116
_cell_length_b       15.714
_cell_length_c       9.069
_cell_angle_alpha    90
_cell_angle_beta     90
_cell_angle_gamma    90

_space_group_name_H-M_alt    "P 1"
_space_group_IT_number       1

loop_
  _space_group_symop_operation_xyz
  'x, y, z'

loop_
  _atom_site_type_symbol
  _atom_site_label
  _atom_site_symmetry_multiplicity
  _atom_site_fract_x
  _atom_site_fract_y
  _atom_site_fract_z
  _atom_site_occupancy
  C   C1        1.0  0.01410  0.15420  0.35620  1.0000
  C   C2        1.0  0.98590  0.84580  0.85620  1.0000
  C   C3        1.0  0.51410  0.34580  0.35620  1.0000
  C   C4        1.0  0.48590  0.65420  0.85620  1.0000
  C   C5        1.0  0.00000  0.15220  0.18590  1.0000
  C   C6        1.0  0.00000  0.84780  0.68590  1.0000
  C   C7        1.0  0.50000  0.34780  0.18590  1.0000
  C   C8        1.0  0.50000  0.65220  0.68590  1.0000
  C   C9        1.0  0.84190  0.01190  0.57740  1.0000
  C   C10       1.0  0.15810  0.98810  0.07740  1.0000
  C   C11       1.0  0.34190  0.48810  0.57740  1.0000
  C   C12       1.0  0.65810  0.51190  0.07740  1.0000
  C   C13       1.0  0.84400  0.95860  0.43410  1.0000
  C   C14       1.0  0.15600  0.04140  0.93410  1.0000
  C   C15       1.0  0.34400  0.54140  0.43410  1.0000
  C   C16       1.0  0.65600  0.45860  0.93410  1.0000
  C   C17       1.0  0.84950  0.34740  0.14470  1.0000
  C   C18       1.0  0.15050  0.65260  0.64470  1.0000
  C   C19       1.0  0.34950  0.15260  0.14470  1.0000
  C   C20       1.0  0.65050  0.84740  0.64470  1.0000
  C   C21       1.0  0.88670  0.42110  0.06900  1.0000
  C   C22       1.0  0.11330  0.57890  0.56900  1.0000
  C   C23       1.0  0.38670  0.07890  0.06900  1.0000
  C   C24       1.0  0.61330  0.92110  0.56900  1.0000
  C   C25       1.0  0.84740  0.48390  0.00260  1.0000
  C   C26       1.0  0.15260  0.51610  0.50260  1.0000
  C   C27       1.0  0.34740  0.01610  0.00260  1.0000
  C   C28       1.0  0.65260  0.98390  0.50260  1.0000
  H   H1        1.0  0.79890  0.48030  0.00370  1.0000
  H   H2        1.0  0.20110  0.51970  0.50370  1.0000
  H   H3        1.0  0.29890  0.01970  0.00370  1.0000
  H   H4        1.0  0.70110  0.98030  0.50370  1.0000
  C   C29       1.0  0.87960  0.55240  0.93410  1.0000
  C   C30       1.0  0.12040  0.44760  0.43410  1.0000
  C   C31       1.0  0.37960  0.94760  0.93410  1.0000
  C   C32       1.0  0.62040  0.05240  0.43410  1.0000
  C   C33       1.0  0.95250  0.55620  0.93460  1.0000
  C   C34       1.0  0.04750  0.44380  0.43460  1.0000
  C   C35       1.0  0.45250  0.94380  0.93460  1.0000
  C   C36       1.0  0.54750  0.05620  0.43460  1.0000
  H   H5        1.0  0.97440  0.60190  0.88870  1.0000
  H   H6        1.0  0.02560  0.39810  0.38870  1.0000
  H   H7        1.0  0.47440  0.89810  0.88870  1.0000
  H   H8        1.0  0.52560  0.10190  0.38870  1.0000
  C   C37       1.0  0.99380  0.49380  0.00180  1.0000
  C   C38       1.0  0.00620  0.50620  0.50180  1.0000
  C   C39       1.0  0.49380  0.00620  0.00180  1.0000
  C   C40       1.0  0.50620  0.99380  0.50180  1.0000
  C   C41       1.0  0.95820  0.42590  0.06730  1.0000
  C   C42       1.0  0.04180  0.57410  0.56730  1.0000
  C   C43       1.0  0.45820  0.07410  0.06730  1.0000
  C   C44       1.0  0.54180  0.92590  0.56730  1.0000
  H   H9        1.0  0.98400  0.38250  0.11100  1.0000
  H   H10       1.0  0.01600  0.61750  0.61100  1.0000
  H   H11       1.0  0.48400  0.11750  0.11100  1.0000
  H   H12       1.0  0.51600  0.88250  0.61100  1.0000
  C   C45       1.0  0.83830  0.62400  0.86490  1.0000
  C   C46       1.0  0.16170  0.37600  0.36490  1.0000
  C   C47       1.0  0.33830  0.87600  0.86490  1.0000
  C   C48       1.0  0.66170  0.12400  0.36490  1.0000
  C   C49       1.0  0.07070  0.50020  0.00480  1.0000
  C   C50       1.0  0.92930  0.49980  0.50480  1.0000
  C   C51       1.0  0.57070  0.99980  0.00480  1.0000
  C   C52       1.0  0.42930  0.00020  0.50480  1.0000
  C   C53       1.0  0.10410  0.57870  0.99120  1.0000
  C   C54       1.0  0.89590  0.42130  0.49120  1.0000
  C   C55       1.0  0.60410  0.92130  0.99120  1.0000
  C   C56       1.0  0.39590  0.07870  0.49120  1.0000
  H   H13       1.0  0.07710  0.62760  0.98150  1.0000
  H   H14       1.0  0.92290  0.37240  0.48150  1.0000
  H   H15       1.0  0.57710  0.87240  0.98150  1.0000
  H   H16       1.0  0.42290  0.12760  0.48150  1.0000
  C   C57       1.0  0.17660  0.58560  0.99180  1.0000
  C   C58       1.0  0.82340  0.41440  0.49180  1.0000
  C   C59       1.0  0.67660  0.91440  0.99180  1.0000
  C   C60       1.0  0.32340  0.08560  0.49180  1.0000
  C   C61       1.0  0.21750  0.51350  0.01010  1.0000
  C   C62       1.0  0.78250  0.48650  0.51010  1.0000
  C   C63       1.0  0.71750  0.98650  0.01010  1.0000
  C   C64       1.0  0.28250  0.01350  0.51010  1.0000
  H   H17       1.0  0.26600  0.51760  0.01180  1.0000
  H   H18       1.0  0.73400  0.48240  0.51180  1.0000
  H   H19       1.0  0.76600  0.98240  0.01180  1.0000
  H   H20       1.0  0.23400  0.01760  0.51180  1.0000
  C   C65       1.0  0.18490  0.43490  0.02590  1.0000
  C   C66       1.0  0.81510  0.56510  0.52590  1.0000
  C   C67       1.0  0.68490  0.06510  0.02590  1.0000
  C   C68       1.0  0.31510  0.93490  0.52590  1.0000
  C   C69       1.0  0.11290  0.42910  0.02120  1.0000
  C   C70       1.0  0.88710  0.57090  0.52120  1.0000
  C   C71       1.0  0.61290  0.07090  0.02120  1.0000
  C   C72       1.0  0.38710  0.92910  0.52120  1.0000
  H   H21       1.0  0.09200  0.37580  0.02940  1.0000
  H   H22       1.0  0.90800  0.62420  0.52940  1.0000
  H   H23       1.0  0.59200  0.12420  0.02940  1.0000
  H   H24       1.0  0.40800  0.87580  0.52940  1.0000
  C   C73       1.0  0.22850  0.35760  0.05260  1.0000
  C   C74       1.0  0.77150  0.64240  0.55260  1.0000
  C   C75       1.0  0.72850  0.14240  0.05260  1.0000
  C   C76       1.0  0.27150  0.85760  0.55260  1.0000
  C   C77       1.0  0.21190  0.66890  0.96770  1.0000
  C   C78       1.0  0.78810  0.33110  0.46770  1.0000
  C   C79       1.0  0.71190  0.83110  0.96770  1.0000
  C   C80       1.0  0.28810  0.16890  0.46770  1.0000
  Sm  Sm1       1.0  0.16706  0.17940  0.20644  1.0000
  Sm  Sm2       1.0  0.83294  0.82060  0.70644  1.0000
  Sm  Sm3       1.0  0.66706  0.32060  0.20644  1.0000
  Sm  Sm4       1.0  0.33294  0.67940  0.70644  1.0000
  Sm  Sm5       1.0  0.84620  0.15286  0.31565  1.0000
  Sm  Sm6       1.0  0.15380  0.84714  0.81565  1.0000
  Sm  Sm7       1.0  0.34620  0.34714  0.31565  1.0000
  Sm  Sm8       1.0  0.65380  0.65286  0.81565  1.0000
  O   O1        1.0  0.07680  0.14990  0.39510  1.0000
  O   O2        1.0  0.92320  0.85010  0.89510  1.0000
  O   O3        1.0  0.57680  0.35010  0.39510  1.0000
  O   O4        1.0  0.42320  0.64990  0.89510  1.0000
  O   O5        1.0  0.04910  0.17670  0.10560  1.0000
  O   O6        1.0  0.95090  0.82330  0.60560  1.0000
  O   O7        1.0  0.54910  0.32330  0.10560  1.0000
  O   O8        1.0  0.45090  0.67670  0.60560  1.0000
  O   O9        1.0  0.94160  0.12540  0.14890  1.0000
  O   O10       1.0  0.05840  0.87460  0.64890  1.0000
  O   O11       1.0  0.44160  0.37460  0.14890  1.0000
  O   O12       1.0  0.55840  0.62540  0.64890  1.0000
  O   O13       1.0  0.96110  0.16000  0.43610  1.0000
  O   O14       1.0  0.03890  0.84000  0.93610  1.0000
  O   O15       1.0  0.46110  0.34000  0.43610  1.0000
  O   O16       1.0  0.53890  0.66000  0.93610  1.0000
  O   O17       1.0  0.84070  0.09060  0.56360  1.0000
  O   O18       1.0  0.15930  0.90940  0.06360  1.0000
  O   O19       1.0  0.34070  0.40940  0.56360  1.0000
  O   O20       1.0  0.65930  0.59060  0.06360  1.0000
  O   O21       1.0  0.84170  0.97280  0.69820  1.0000
  O   O22       1.0  0.15830  0.02720  0.19820  1.0000
  O   O23       1.0  0.34170  0.52720  0.69820  1.0000
  O   O24       1.0  0.65830  0.47280  0.19820  1.0000
  O   O25       1.0  0.85380  0.99840  0.31900  1.0000
  O   O26       1.0  0.14620  0.00160  0.81900  1.0000
  O   O27       1.0  0.35380  0.50160  0.31900  1.0000
  O   O28       1.0  0.64620  0.49840  0.81900  1.0000
  O   O29       1.0  0.83620  0.88090  0.44840  1.0000
  O   O30       1.0  0.16380  0.11910  0.94840  1.0000
  O   O31       1.0  0.33620  0.61910  0.44840  1.0000
  O   O32       1.0  0.66380  0.38090  0.94840  1.0000
  O   O33       1.0  0.88560  0.28650  0.19030  1.0000
  O   O34       1.0  0.11440  0.71350  0.69030  1.0000
  O   O35       1.0  0.38560  0.21350  0.19030  1.0000
  O   O36       1.0  0.61440  0.78650  0.69030  1.0000
  O   O37       1.0  0.78440  0.35270  0.15730  1.0000
  O   O38       1.0  0.21560  0.64730  0.65730  1.0000
  O   O39       1.0  0.28440  0.14730  0.15730  1.0000
  O   O40       1.0  0.71560  0.85270  0.65730  1.0000
  O   O41       1.0  0.77350  0.61750  0.86050  1.0000
  O   O42       1.0  0.22650  0.38250  0.36050  1.0000
  O   O43       1.0  0.27350  0.88250  0.86050  1.0000
  O   O44       1.0  0.72650  0.11750  0.36050  1.0000
  O   O45       1.0  0.87270  0.68800  0.82030  1.0000
  O   O46       1.0  0.12730  0.31200  0.32030  1.0000
  O   O47       1.0  0.37270  0.81200  0.82030  1.0000
  O   O48       1.0  0.62730  0.18800  0.32030  1.0000
  O   O49       1.0  0.17520  0.73450  0.97800  1.0000
  O   O50       1.0  0.82480  0.26550  0.47800  1.0000
  O   O51       1.0  0.67520  0.76550  0.97800  1.0000
  O   O52       1.0  0.32480  0.23450  0.47800  1.0000
  O   O53       1.0  0.27640  0.66910  0.93830  1.0000
  O   O54       1.0  0.72360  0.33090  0.43830  1.0000
  O   O55       1.0  0.77640  0.83090  0.93830  1.0000
  O   O56       1.0  0.22360  0.16910  0.43830  1.0000
  O   O57       1.0  0.29270  0.36640  0.07980  1.0000
  O   O58       1.0  0.70730  0.63360  0.57980  1.0000
  O   O59       1.0  0.79270  0.13360  0.07980  1.0000
  O   O60       1.0  0.20730  0.86640  0.57980  1.0000
  O   O61       1.0  0.19770  0.28750  0.04680  1.0000
  O   O62       1.0  0.80230  0.71250  0.54680  1.0000
  O   O63       1.0  0.69770  0.21250  0.04680  1.0000
  O   O64       1.0  0.30230  0.78750  0.54680  1.0000
