data_image0
_chemical_formula_structural       Cu4O16N4C12H4C4H4C4H4C8Cu4O32N8C12H4C4H4C4H4C20H4C4H4C4H4C8Cu4O16N8C12H4C4H4C4H4C8N4H4C4H8C4H8C4H8C4H8C4H8C4H8
_chemical_formula_sum              "Cu12 O64 N24 C136 H100"
_cell_length_a       16.471
_cell_length_b       13.801
_cell_length_c       18.659
_cell_angle_alpha    90
_cell_angle_beta     91.86
_cell_angle_gamma    90

_space_group_name_H-M_alt    "P 1"
_space_group_IT_number       1

loop_
  _space_group_symop_operation_xyz
  'x, y, z'

loop_
  _atom_site_type_symbol
  _atom_site_label
  _atom_site_symmetry_multiplicity
  _atom_site_fract_x
  _atom_site_fract_y
  _atom_site_fract_z
  _atom_site_occupancy
  Cu  Cu1       1.0  0.32562  0.15773  0.51219  1.0000
  Cu  Cu2       1.0  0.67438  0.15773  0.98781  1.0000
  Cu  Cu3       1.0  0.67438  0.84227  0.48781  1.0000
  Cu  Cu4       1.0  0.32562  0.84227  0.01219  1.0000
  O   O1        1.0  0.38596  0.17882  0.42152  1.0000
  O   O2        1.0  0.61404  0.17882  0.07848  1.0000
  O   O3        1.0  0.61404  0.82118  0.57848  1.0000
  O   O4        1.0  0.38596  0.82118  0.92152  1.0000
  O   O5        1.0  0.50985  0.16707  0.37536  1.0000
  O   O6        1.0  0.49015  0.16707  0.12464  1.0000
  O   O7        1.0  0.49015  0.83293  0.62464  1.0000
  O   O8        1.0  0.50985  0.83293  0.87536  1.0000
  O   O9        1.0  0.30234  0.12202  0.61312  1.0000
  O   O10       1.0  0.69766  0.12202  0.88688  1.0000
  O   O11       1.0  0.69766  0.87798  0.38688  1.0000
  O   O12       1.0  0.30234  0.87798  0.11312  1.0000
  O   O13       1.0  0.36336  0.06490  0.71425  1.0000
  O   O14       1.0  0.63664  0.06490  0.78575  1.0000
  O   O15       1.0  0.63664  0.93510  0.28575  1.0000
  O   O16       1.0  0.36336  0.93510  0.21425  1.0000
  N   N1        1.0  0.43278  0.11985  0.54421  1.0000
  N   N2        1.0  0.56722  0.11985  0.95579  1.0000
  N   N3        1.0  0.56722  0.88015  0.45579  1.0000
  N   N4        1.0  0.43278  0.88015  0.04421  1.0000
  C   C1        1.0  0.46375  0.16030  0.42505  1.0000
  C   C2        1.0  0.53625  0.16030  0.07495  1.0000
  C   C3        1.0  0.53625  0.83970  0.57495  1.0000
  C   C4        1.0  0.46375  0.83970  0.92505  1.0000
  C   C5        1.0  0.49317  0.12846  0.49909  1.0000
  C   C6        1.0  0.50683  0.12846  0.00091  1.0000
  C   C7        1.0  0.50683  0.87154  0.50091  1.0000
  C   C8        1.0  0.49317  0.87154  0.99909  1.0000
  C   C9        1.0  0.57254  0.11030  0.52198  1.0000
  C   C10       1.0  0.42746  0.11030  0.97802  1.0000
  C   C11       1.0  0.42746  0.88970  0.47802  1.0000
  C   C12       1.0  0.57254  0.88970  0.02198  1.0000
  H   H1        1.0  0.61631  0.11644  0.49037  1.0000
  H   H2        1.0  0.38369  0.11644  0.00963  1.0000
  H   H3        1.0  0.38369  0.88356  0.50963  1.0000
  H   H4        1.0  0.61631  0.88356  0.99037  1.0000
  C   C13       1.0  0.58560  0.08260  0.59365  1.0000
  C   C14       1.0  0.41440  0.08260  0.90635  1.0000
  C   C15       1.0  0.41440  0.91740  0.40635  1.0000
  C   C16       1.0  0.58560  0.91740  0.09365  1.0000
  H   H5        1.0  0.63921  0.06855  0.61097  1.0000
  H   H6        1.0  0.36079  0.06855  0.88903  1.0000
  H   H7        1.0  0.36079  0.93145  0.38903  1.0000
  H   H8        1.0  0.63921  0.93145  0.11097  1.0000
  C   C17       1.0  0.52120  0.07550  0.63981  1.0000
  C   C18       1.0  0.47880  0.07550  0.86019  1.0000
  C   C19       1.0  0.47880  0.92450  0.36019  1.0000
  C   C20       1.0  0.52120  0.92450  0.13981  1.0000
  H   H9        1.0  0.53010  0.05794  0.68867  1.0000
  H   H10       1.0  0.46990  0.05794  0.81133  1.0000
  H   H11       1.0  0.46990  0.94206  0.31133  1.0000
  H   H12       1.0  0.53010  0.94206  0.18867  1.0000
  C   C21       1.0  0.44420  0.09470  0.61251  1.0000
  C   C22       1.0  0.55580  0.09470  0.88749  1.0000
  C   C23       1.0  0.55580  0.90530  0.38749  1.0000
  C   C24       1.0  0.44420  0.90530  0.11251  1.0000
  C   C25       1.0  0.36470  0.09270  0.65140  1.0000
  C   C26       1.0  0.63530  0.09270  0.84860  1.0000
  C   C27       1.0  0.63530  0.90730  0.34860  1.0000
  C   C28       1.0  0.36470  0.90730  0.15140  1.0000
  Cu  Cu5       1.0  0.27689  0.54275  0.53564  1.0000
  Cu  Cu6       1.0  0.72311  0.54275  0.96436  1.0000
  Cu  Cu7       1.0  0.72311  0.45725  0.46436  1.0000
  Cu  Cu8       1.0  0.27689  0.45725  0.03564  1.0000
  O   O17       1.0  0.23506  0.24311  0.48487  1.0000
  O   O18       1.0  0.76494  0.24311  0.01513  1.0000
  O   O19       1.0  0.76494  0.75689  0.51513  1.0000
  O   O20       1.0  0.23506  0.75689  0.98487  1.0000
  O   O21       1.0  0.30193  0.37344  0.52760  1.0000
  O   O22       1.0  0.69807  0.37344  0.97240  1.0000
  O   O23       1.0  0.69807  0.62656  0.47240  1.0000
  O   O24       1.0  0.30193  0.62656  0.02760  1.0000
  O   O25       1.0  0.17356  0.67161  0.54798  1.0000
  O   O26       1.0  0.82644  0.67161  0.95202  1.0000
  O   O27       1.0  0.82644  0.32839  0.45202  1.0000
  O   O28       1.0  0.17356  0.32839  0.04798  1.0000
  O   O29       1.0  0.07470  0.71266  0.46942  1.0000
  O   O30       1.0  0.92530  0.71266  0.03058  1.0000
  O   O31       1.0  0.92530  0.28734  0.53058  1.0000
  O   O32       1.0  0.07470  0.28734  0.96942  1.0000
  O   O33       1.0  0.28239  0.52454  0.64276  1.0000
  O   O34       1.0  0.71761  0.52454  0.85724  1.0000
  O   O35       1.0  0.71761  0.47546  0.35724  1.0000
  O   O36       1.0  0.28239  0.47546  0.14276  1.0000
  O   O37       1.0  0.37208  0.53020  0.73508  1.0000
  O   O38       1.0  0.62792  0.53020  0.76492  1.0000
  O   O39       1.0  0.62792  0.46980  0.26492  1.0000
  O   O40       1.0  0.37208  0.46980  0.23508  1.0000
  O   O41       1.0  0.30422  0.58933  0.43704  1.0000
  O   O42       1.0  0.69578  0.58933  0.06296  1.0000
  O   O43       1.0  0.69578  0.41067  0.56296  1.0000
  O   O44       1.0  0.30422  0.41067  0.93704  1.0000
  O   O45       1.0  0.40310  0.65500  0.37456  1.0000
  O   O46       1.0  0.59690  0.65500  0.12544  1.0000
  O   O47       1.0  0.59690  0.34500  0.62544  1.0000
  O   O48       1.0  0.40310  0.34500  0.87456  1.0000
  N   N5        1.0  0.17368  0.48838  0.49571  1.0000
  N   N6        1.0  0.82632  0.48838  0.00429  1.0000
  N   N7        1.0  0.82632  0.51162  0.50429  1.0000
  N   N8        1.0  0.17368  0.51162  0.99571  1.0000
  N   N9        1.0  0.38588  0.58407  0.55416  1.0000
  N   N10       1.0  0.61412  0.58407  0.94584  1.0000
  N   N11       1.0  0.61412  0.41593  0.44584  1.0000
  N   N12       1.0  0.38588  0.41593  0.05416  1.0000
  C   C29       1.0  0.24214  0.33300  0.49857  1.0000
  C   C30       1.0  0.75786  0.33300  0.00143  1.0000
  C   C31       1.0  0.75786  0.66700  0.50143  1.0000
  C   C32       1.0  0.24214  0.66700  0.99857  1.0000
  C   C33       1.0  0.17032  0.39438  0.47582  1.0000
  C   C34       1.0  0.82968  0.39438  0.02418  1.0000
  C   C35       1.0  0.82968  0.60562  0.52418  1.0000
  C   C36       1.0  0.17032  0.60562  0.97582  1.0000
  C   C37       1.0  0.10516  0.35880  0.43427  1.0000
  C   C38       1.0  0.89484  0.35880  0.06573  1.0000
  C   C39       1.0  0.89484  0.64120  0.56573  1.0000
  C   C40       1.0  0.10516  0.64120  0.93427  1.0000
  H   H13       1.0  0.10270  0.29206  0.42198  1.0000
  H   H14       1.0  0.89730  0.29206  0.07802  1.0000
  H   H15       1.0  0.89730  0.70794  0.57802  1.0000
  H   H16       1.0  0.10270  0.70794  0.92198  1.0000
  C   C41       1.0  0.04392  0.42130  0.41094  1.0000
  C   C42       1.0  0.95608  0.42130  0.08906  1.0000
  C   C43       1.0  0.95608  0.57870  0.58906  1.0000
  C   C44       1.0  0.04392  0.57870  0.91094  1.0000
  H   H17       1.0  0.99916  0.39816  0.38244  1.0000
  H   H18       1.0  0.00084  0.39816  0.11756  1.0000
  H   H19       1.0  0.00084  0.60184  0.61756  1.0000
  H   H20       1.0  0.99916  0.60184  0.88244  1.0000
  C   C45       1.0  0.04943  0.51860  0.43017  1.0000
  C   C46       1.0  0.95057  0.51860  0.06983  1.0000
  C   C47       1.0  0.95057  0.48140  0.56983  1.0000
  C   C48       1.0  0.04943  0.48140  0.93017  1.0000
  H   H21       1.0  0.00925  0.56360  0.41389  1.0000
  H   H22       1.0  0.99075  0.56360  0.08611  1.0000
  H   H23       1.0  0.99075  0.43640  0.58611  1.0000
  H   H24       1.0  0.00925  0.43640  0.91389  1.0000
  C   C49       1.0  0.11466  0.54870  0.47356  1.0000
  C   C50       1.0  0.88534  0.54870  0.02644  1.0000
  C   C51       1.0  0.88534  0.45130  0.52644  1.0000
  C   C52       1.0  0.11466  0.45130  0.97356  1.0000
  C   C53       1.0  0.12067  0.65300  0.49779  1.0000
  C   C54       1.0  0.87933  0.65300  0.00221  1.0000
  C   C55       1.0  0.87933  0.34700  0.50221  1.0000
  C   C56       1.0  0.12067  0.34700  0.99779  1.0000
  C   C57       1.0  0.35400  0.53770  0.67160  1.0000
  C   C58       1.0  0.64600  0.53770  0.82840  1.0000
  C   C59       1.0  0.64600  0.46230  0.32840  1.0000
  C   C60       1.0  0.35400  0.46230  0.17160  1.0000
  C   C61       1.0  0.41800  0.56800  0.61880  1.0000
  C   C62       1.0  0.58200  0.56800  0.88120  1.0000
  C   C63       1.0  0.58200  0.43200  0.38120  1.0000
  C   C64       1.0  0.41800  0.43200  0.11880  1.0000
  C   C65       1.0  0.50150  0.57870  0.63160  1.0000
  C   C66       1.0  0.49850  0.57870  0.86840  1.0000
  C   C67       1.0  0.49850  0.42130  0.36840  1.0000
  C   C68       1.0  0.50150  0.42130  0.13160  1.0000
  H   H25       1.0  0.52622  0.56699  0.67745  1.0000
  H   H26       1.0  0.47378  0.56699  0.82255  1.0000
  H   H27       1.0  0.47378  0.43301  0.32255  1.0000
  H   H28       1.0  0.52622  0.43301  0.17745  1.0000
  C   C69       1.0  0.54650  0.60750  0.57350  1.0000
  C   C70       1.0  0.45350  0.60750  0.92650  1.0000
  C   C71       1.0  0.45350  0.39250  0.42650  1.0000
  C   C72       1.0  0.54650  0.39250  0.07350  1.0000
  H   H29       1.0  0.60358  0.61491  0.58028  1.0000
  H   H30       1.0  0.39642  0.61491  0.91972  1.0000
  H   H31       1.0  0.39642  0.38509  0.41972  1.0000
  H   H32       1.0  0.60358  0.38509  0.08028  1.0000
  C   C73       1.0  0.51200  0.62570  0.50620  1.0000
  C   C74       1.0  0.48800  0.62570  0.99380  1.0000
  C   C75       1.0  0.48800  0.37430  0.49380  1.0000
  C   C76       1.0  0.51200  0.37430  0.00620  1.0000
  H   H33       1.0  0.54370  0.64654  0.46742  1.0000
  H   H34       1.0  0.45630  0.64654  0.03258  1.0000
  H   H35       1.0  0.45630  0.35346  0.53258  1.0000
  H   H36       1.0  0.54370  0.35346  0.96742  1.0000
  C   C77       1.0  0.42910  0.61200  0.49830  1.0000
  C   C78       1.0  0.57090  0.61200  0.00170  1.0000
  C   C79       1.0  0.57090  0.38800  0.50170  1.0000
  C   C80       1.0  0.42910  0.38800  0.99830  1.0000
  C   C81       1.0  0.37680  0.62080  0.43020  1.0000
  C   C82       1.0  0.62320  0.62080  0.06980  1.0000
  C   C83       1.0  0.62320  0.37920  0.56980  1.0000
  C   C84       1.0  0.37680  0.37920  0.93020  1.0000
  Cu  Cu9       1.0  0.14918  0.80644  0.57516  1.0000
  Cu  Cu10      1.0  0.85082  0.80644  0.92484  1.0000
  Cu  Cu11      1.0  0.85082  0.19356  0.42484  1.0000
  Cu  Cu12      1.0  0.14918  0.19356  0.07516  1.0000
  O   O49       1.0  0.04434  0.77871  0.63022  1.0000
  O   O50       1.0  0.95566  0.77871  0.86978  1.0000
  O   O51       1.0  0.95566  0.22129  0.36978  1.0000
  O   O52       1.0  0.04434  0.22129  0.13022  1.0000
  O   O53       1.0  0.93181  0.85322  0.66566  1.0000
  O   O54       1.0  0.06819  0.85322  0.83434  1.0000
  O   O55       1.0  0.06819  0.14678  0.33434  1.0000
  O   O56       1.0  0.93181  0.14678  0.16566  1.0000
  O   O57       1.0  0.22938  0.87738  0.51254  1.0000
  O   O58       1.0  0.77062  0.87738  0.98746  1.0000
  O   O59       1.0  0.77062  0.12262  0.48746  1.0000
  O   O60       1.0  0.22938  0.12262  0.01254  1.0000
  O   O61       1.0  0.25828  0.02589  0.47173  1.0000
  O   O62       1.0  0.74172  0.02589  0.02827  1.0000
  O   O63       1.0  0.74172  0.97411  0.52827  1.0000
  O   O64       1.0  0.25828  0.97411  0.97173  1.0000
  N   N13       1.0  0.10202  0.93294  0.57484  1.0000
  N   N14       1.0  0.89798  0.93294  0.92516  1.0000
  N   N15       1.0  0.89798  0.06706  0.42516  1.0000
  N   N16       1.0  0.10202  0.06706  0.07484  1.0000
  N   N17       1.0  0.22534  0.81068  0.67816  1.0000
  N   N18       1.0  0.77466  0.81068  0.82184  1.0000
  N   N19       1.0  0.77466  0.18932  0.32184  1.0000
  N   N20       1.0  0.22534  0.18932  0.17816  1.0000
  C   C85       1.0  0.99814  0.85320  0.63773  1.0000
  C   C86       1.0  0.00186  0.85320  0.86227  1.0000
  C   C87       1.0  0.00186  0.14680  0.36227  1.0000
  C   C88       1.0  0.99814  0.14680  0.13773  1.0000
  C   C89       1.0  0.03174  0.94530  0.60709  1.0000
  C   C90       1.0  0.96826  0.94530  0.89291  1.0000
  C   C91       1.0  0.96826  0.05470  0.39291  1.0000
  C   C92       1.0  0.03174  0.05470  0.10709  1.0000
  C   C93       1.0  0.99580  0.03700  0.60770  1.0000
  C   C94       1.0  0.00420  0.03700  0.89230  1.0000
  C   C95       1.0  0.00420  0.96300  0.39230  1.0000
  C   C96       1.0  0.99580  0.96300  0.10770  1.0000
  H   H37       1.0  0.94584  0.04737  0.63058  1.0000
  H   H38       1.0  0.05416  0.04737  0.86942  1.0000
  H   H39       1.0  0.05416  0.95263  0.36942  1.0000
  H   H40       1.0  0.94584  0.95263  0.13058  1.0000
  C   C97       1.0  0.03490  0.11250  0.57390  1.0000
  C   C98       1.0  0.96510  0.11250  0.92610  1.0000
  C   C99       1.0  0.96510  0.88750  0.42610  1.0000
  C   C100      1.0  0.03490  0.88750  0.07390  1.0000
  H   H41       1.0  0.01232  0.17585  0.57467  1.0000
  H   H42       1.0  0.98768  0.17585  0.92533  1.0000
  H   H43       1.0  0.98768  0.82415  0.42533  1.0000
  H   H44       1.0  0.01232  0.82415  0.07467  1.0000
  C   C101      1.0  0.10715  0.09620  0.53891  1.0000
  C   C102      1.0  0.89285  0.09620  0.96109  1.0000
  C   C103      1.0  0.89285  0.90380  0.46109  1.0000
  C   C104      1.0  0.10715  0.90380  0.03891  1.0000
  H   H45       1.0  0.13328  0.14723  0.51445  1.0000
  H   H46       1.0  0.86672  0.14723  0.98555  1.0000
  H   H47       1.0  0.86672  0.85277  0.48555  1.0000
  H   H48       1.0  0.13328  0.85277  0.01445  1.0000
  C   C105      1.0  0.14001  0.00353  0.54065  1.0000
  C   C106      1.0  0.85999  0.00353  0.95935  1.0000
  C   C107      1.0  0.85999  0.99647  0.45935  1.0000
  C   C108      1.0  0.14001  0.99647  0.04065  1.0000
  C   C109      1.0  0.21568  0.96823  0.50535  1.0000
  C   C110      1.0  0.78432  0.96823  0.99465  1.0000
  C   C111      1.0  0.78432  0.03177  0.49465  1.0000
  C   C112      1.0  0.21568  0.03177  0.00535  1.0000
  N   N21       1.0  0.30904  0.81220  0.79429  1.0000
  N   N22       1.0  0.69096  0.81220  0.70571  1.0000
  N   N23       1.0  0.69096  0.18780  0.20571  1.0000
  N   N24       1.0  0.30904  0.18780  0.29429  1.0000
  H   H49       1.0  0.34219  0.81265  0.84015  1.0000
  H   H50       1.0  0.65781  0.81265  0.65985  1.0000
  H   H51       1.0  0.65781  0.18735  0.15985  1.0000
  H   H52       1.0  0.34219  0.18735  0.34015  1.0000
  C   C113      1.0  0.31286  0.80900  0.66287  1.0000
  C   C114      1.0  0.68714  0.80900  0.83713  1.0000
  C   C115      1.0  0.68714  0.19100  0.33713  1.0000
  C   C116      1.0  0.31286  0.19100  0.16287  1.0000
  H   H53       1.0  0.32620  0.86572  0.63294  1.0000
  H   H54       1.0  0.67380  0.86572  0.86706  1.0000
  H   H55       1.0  0.67380  0.13428  0.36706  1.0000
  H   H56       1.0  0.32620  0.13428  0.13294  1.0000
  H   H57       1.0  0.32537  0.74970  0.63555  1.0000
  H   H58       1.0  0.67463  0.74970  0.86445  1.0000
  H   H59       1.0  0.67463  0.25030  0.36445  1.0000
  H   H60       1.0  0.32537  0.25030  0.13555  1.0000
  C   C117      1.0  0.36521  0.81130  0.73257  1.0000
  C   C118      1.0  0.63479  0.81130  0.76743  1.0000
  C   C119      1.0  0.63479  0.18870  0.26743  1.0000
  C   C120      1.0  0.36521  0.18870  0.23257  1.0000
  H   H61       1.0  0.40085  0.75362  0.73542  1.0000
  H   H62       1.0  0.59915  0.75362  0.76458  1.0000
  H   H63       1.0  0.59915  0.24638  0.26458  1.0000
  H   H64       1.0  0.40085  0.24638  0.23542  1.0000
  H   H65       1.0  0.39983  0.86999  0.73386  1.0000
  H   H66       1.0  0.60017  0.86999  0.76614  1.0000
  H   H67       1.0  0.60017  0.13001  0.26614  1.0000
  H   H68       1.0  0.39983  0.13001  0.23386  1.0000
  C   C121      1.0  0.20502  0.72560  0.72284  1.0000
  C   C122      1.0  0.79498  0.72560  0.77716  1.0000
  C   C123      1.0  0.79498  0.27440  0.27716  1.0000
  C   C124      1.0  0.20502  0.27440  0.22284  1.0000
  H   H69       1.0  0.21441  0.66544  0.69548  1.0000
  H   H70       1.0  0.78559  0.66544  0.80452  1.0000
  H   H71       1.0  0.78559  0.33456  0.30452  1.0000
  H   H72       1.0  0.21441  0.33456  0.19548  1.0000
  H   H73       1.0  0.14680  0.72812  0.73433  1.0000
  H   H74       1.0  0.85320  0.72812  0.76567  1.0000
  H   H75       1.0  0.85320  0.27188  0.26567  1.0000
  H   H76       1.0  0.14680  0.27188  0.23433  1.0000
  C   C125      1.0  0.25660  0.72380  0.79249  1.0000
  C   C126      1.0  0.74340  0.72380  0.70751  1.0000
  C   C127      1.0  0.74340  0.27620  0.20751  1.0000
  C   C128      1.0  0.25660  0.27620  0.29249  1.0000
  H   H77       1.0  0.22115  0.72329  0.83431  1.0000
  H   H78       1.0  0.77885  0.72329  0.66569  1.0000
  H   H79       1.0  0.77885  0.27671  0.16569  1.0000
  H   H80       1.0  0.22115  0.27671  0.33431  1.0000
  H   H81       1.0  0.29081  0.66477  0.79437  1.0000
  H   H82       1.0  0.70919  0.66477  0.70563  1.0000
  H   H83       1.0  0.70919  0.33523  0.20563  1.0000
  H   H84       1.0  0.29081  0.33523  0.29437  1.0000
  C   C129      1.0  0.20846  0.90030  0.71941  1.0000
  C   C130      1.0  0.79154  0.90030  0.78059  1.0000
  C   C131      1.0  0.79154  0.09970  0.28059  1.0000
  C   C132      1.0  0.20846  0.09970  0.21941  1.0000
  H   H85       1.0  0.14965  0.90428  0.72841  1.0000
  H   H86       1.0  0.85035  0.90428  0.77159  1.0000
  H   H87       1.0  0.85035  0.09572  0.27159  1.0000
  H   H88       1.0  0.14965  0.09572  0.22841  1.0000
  H   H89       1.0  0.22348  0.95776  0.69093  1.0000
  H   H90       1.0  0.77652  0.95776  0.80907  1.0000
  H   H91       1.0  0.77652  0.04224  0.30907  1.0000
  H   H92       1.0  0.22348  0.04224  0.19093  1.0000
  C   C133      1.0  0.25679  0.90080  0.79130  1.0000
  C   C134      1.0  0.74321  0.90080  0.70870  1.0000
  C   C135      1.0  0.74321  0.09920  0.20870  1.0000
  C   C136      1.0  0.25679  0.09920  0.29130  1.0000
  H   H93       1.0  0.29098  0.95971  0.79511  1.0000
  H   H94       1.0  0.70902  0.95971  0.70489  1.0000
  H   H95       1.0  0.70902  0.04029  0.20489  1.0000
  H   H96       1.0  0.29098  0.04029  0.29511  1.0000
  H   H97       1.0  0.21915  0.90067  0.83160  1.0000
  H   H98       1.0  0.78085  0.90067  0.66840  1.0000
  H   H99       1.0  0.78085  0.09933  0.16840  1.0000
  H   H100      1.0  0.21915  0.09933  0.33160  1.0000
