data_image0
_chemical_formula_structural       CuO8C2H2C2N2C8N2C2H2C2H2C2H2C2H2C2H2C2H4C2H2C2H2C2H2
_chemical_formula_sum              "Cu1 O8 C30 H22 N4"
_cell_length_a       8.6401
_cell_length_b       13.569
_cell_length_c       13.734
_cell_angle_alpha    82.65
_cell_angle_beta     71.95
_cell_angle_gamma    89.35

_space_group_name_H-M_alt    "P 1"
_space_group_IT_number       1

loop_
  _space_group_symop_operation_xyz
  'x, y, z'

loop_
  _atom_site_type_symbol
  _atom_site_label
  _atom_site_symmetry_multiplicity
  _atom_site_fract_x
  _atom_site_fract_y
  _atom_site_fract_z
  _atom_site_occupancy
  Cu  Cu1       1.0  0.00000  0.50000  0.50000  1.0000
  O   O1        1.0  0.62730  0.87060  0.87390  1.0000
  O   O2        1.0  0.37270  0.12940  0.12610  1.0000
  O   O3        1.0  0.96240  0.62760  0.65780  1.0000
  O   O4        1.0  0.03760  0.37240  0.34220  1.0000
  O   O5        1.0  0.42580  0.80970  0.01180  1.0000
  O   O6        1.0  0.57420  0.19030  0.98820  1.0000
  O   O7        1.0  0.82040  0.50810  0.62680  1.0000
  O   O8        1.0  0.17960  0.49190  0.37320  1.0000
  C   C1        1.0  0.68180  0.68420  0.80610  1.0000
  C   C2        1.0  0.31820  0.31580  0.19390  1.0000
  H   H1        1.0  0.76450  0.73250  0.77740  1.0000
  H   H2        1.0  0.23550  0.26750  0.22260  1.0000
  C   C3        1.0  0.54820  0.70340  0.88800  1.0000
  C   C4        1.0  0.45180  0.29660  0.11200  1.0000
  N   N1        1.0  0.06820  0.21910  0.62170  1.0000
  N   N2        1.0  0.93180  0.78090  0.37830  1.0000
  C   C5        1.0  0.69430  0.59530  0.76640  1.0000
  C   C6        1.0  0.30570  0.40470  0.23360  1.0000
  C   C7        1.0  0.83670  0.57770  0.67740  1.0000
  C   C8        1.0  0.16330  0.42230  0.32260  1.0000
  C   C9        1.0  0.53460  0.80250  0.92710  1.0000
  C   C10       1.0  0.46540  0.19750  0.07290  1.0000
  C   C11       1.0  0.00660  0.05780  0.57510  1.0000
  C   C12       1.0  0.99340  0.94220  0.42490  1.0000
  N   N3        1.0  0.07410  0.37630  0.56070  1.0000
  N   N4        1.0  0.92590  0.62370  0.43930  1.0000
  C   C13       1.0  0.94550  0.96360  0.60280  1.0000
  C   C14       1.0  0.05450  0.03640  0.39720  1.0000
  H   H3        1.0  0.90840  0.93800  0.67240  1.0000
  H   H4        1.0  0.09160  0.06200  0.32760  1.0000
  C   C15       1.0  0.57250  0.52260  0.81350  1.0000
  C   C16       1.0  0.42750  0.47740  0.18650  1.0000
  H   H5        1.0  0.58090  0.46100  0.78970  1.0000
  H   H6        1.0  0.41910  0.53900  0.21030  1.0000
  C   C17       1.0  0.43070  0.63060  0.93080  1.0000
  C   C18       1.0  0.56930  0.36940  0.06920  1.0000
  H   H7        1.0  0.34120  0.64230  0.98610  1.0000
  H   H8        1.0  0.65880  0.35770  0.01390  1.0000
  C   C19       1.0  0.06320  0.09640  0.47140  1.0000
  C   C20       1.0  0.93680  0.90360  0.52860  1.0000
  H   H9        1.0  0.10620  0.16100  0.45140  1.0000
  H   H10       1.0  0.89380  0.83900  0.54860  1.0000
  C   C21       1.0  0.44050  0.54080  0.89450  1.0000
  C   C22       1.0  0.55950  0.45920  0.10550  1.0000
  H   H11       1.0  0.35840  0.49240  0.92450  1.0000
  H   H12       1.0  0.64160  0.50760  0.07550  1.0000
  C   C23       1.0  0.01830  0.11890  0.65820  1.0000
  C   C24       1.0  0.98170  0.88110  0.34180  1.0000
  H   H13       1.0  0.91270  0.11710  0.71060  1.0000
  H   H14       1.0  0.08730  0.88290  0.28940  1.0000
  H   H15       1.0  0.09470  0.08820  0.69090  1.0000
  H   H16       1.0  0.90530  0.91180  0.30910  1.0000
  C   C25       1.0  0.98770  0.29860  0.60410  1.0000
  C   C26       1.0  0.01230  0.70140  0.39590  1.0000
  H   H17       1.0  0.87470  0.29780  0.62240  1.0000
  H   H18       1.0  0.12530  0.70220  0.37760  1.0000
  C   C27       1.0  0.23300  0.34610  0.54490  1.0000
  C   C28       1.0  0.76700  0.65390  0.45510  1.0000
  H   H19       1.0  0.32570  0.38640  0.51240  1.0000
  H   H20       1.0  0.67430  0.61360  0.48760  1.0000
  C   C29       1.0  0.23310  0.25170  0.58290  1.0000
  C   C30       1.0  0.76690  0.74830  0.41710  1.0000
  H   H21       1.0  0.32360  0.21420  0.58400  1.0000
  H   H22       1.0  0.67640  0.78580  0.41600  1.0000
