data_image0
_chemical_formula_structural       Sn8O24C8H4C8H4C8H4C16H12C4H12C4H12C4H12C4H12C4H12
_chemical_formula_sum              "Sn8 O24 C60 H84"
_cell_length_a       11.3431
_cell_length_b       20.0231
_cell_length_c       13.0078
_cell_angle_alpha    90
_cell_angle_beta     101.845
_cell_angle_gamma    90

_space_group_name_H-M_alt    "P 1"
_space_group_IT_number       1

loop_
  _space_group_symop_operation_xyz
  'x, y, z'

loop_
  _atom_site_type_symbol
  _atom_site_label
  _atom_site_symmetry_multiplicity
  _atom_site_fract_x
  _atom_site_fract_y
  _atom_site_fract_z
  _atom_site_occupancy
  Sn  Sn1       1.0  0.75238  0.45471  0.20247  1.0000
  Sn  Sn2       1.0  0.74762  0.95471  0.29753  1.0000
  Sn  Sn3       1.0  0.24762  0.54529  0.79753  1.0000
  Sn  Sn4       1.0  0.25238  0.04529  0.70247  1.0000
  Sn  Sn5       1.0  0.42903  0.14040  0.27681  1.0000
  Sn  Sn6       1.0  0.07097  0.64040  0.22319  1.0000
  Sn  Sn7       1.0  0.57097  0.85960  0.72319  1.0000
  Sn  Sn8       1.0  0.92903  0.35960  0.77681  1.0000
  O   O1        1.0  0.93208  0.42623  0.17133  1.0000
  O   O2        1.0  0.56792  0.92623  0.32867  1.0000
  O   O3        1.0  0.06792  0.57377  0.82867  1.0000
  O   O4        1.0  0.43208  0.07377  0.67133  1.0000
  O   O5        1.0  0.00427  0.52902  0.17202  1.0000
  O   O6        1.0  0.49573  0.02902  0.32798  1.0000
  O   O7        1.0  0.99573  0.47098  0.82798  1.0000
  O   O8        1.0  0.50427  0.97098  0.67202  1.0000
  O   O9        1.0  0.39448  0.24424  0.23414  1.0000
  O   O10       1.0  0.10552  0.74424  0.26586  1.0000
  O   O11       1.0  0.60552  0.75576  0.76586  1.0000
  O   O12       1.0  0.89448  0.25576  0.73414  1.0000
  O   O13       1.0  0.19659  0.22826  0.20106  1.0000
  O   O14       1.0  0.30341  0.72826  0.29894  1.0000
  O   O15       1.0  0.80341  0.77174  0.79894  1.0000
  O   O16       1.0  0.69659  0.27174  0.70106  1.0000
  O   O17       1.0  0.56778  0.46746  0.24683  1.0000
  O   O18       1.0  0.93222  0.96746  0.25317  1.0000
  O   O19       1.0  0.43222  0.53254  0.75317  1.0000
  O   O20       1.0  0.06778  0.03254  0.74683  1.0000
  O   O21       1.0  0.44942  0.55438  0.18612  1.0000
  O   O22       1.0  0.05058  0.05438  0.31388  1.0000
  O   O23       1.0  0.55058  0.44562  0.81388  1.0000
  O   O24       1.0  0.94942  0.94562  0.68612  1.0000
  C   C1        1.0  0.14145  0.43698  0.18093  1.0000
  C   C2        1.0  0.35855  0.93698  0.31907  1.0000
  C   C3        1.0  0.85855  0.56302  0.81907  1.0000
  C   C4        1.0  0.64145  0.06302  0.68093  1.0000
  C   C5        1.0  0.24261  0.47757  0.18716  1.0000
  C   C6        1.0  0.25739  0.97757  0.31284  1.0000
  C   C7        1.0  0.75739  0.52243  0.81284  1.0000
  C   C8        1.0  0.74261  0.02243  0.68716  1.0000
  H   H1        1.0  0.23310  0.52470  0.18140  1.0000
  H   H2        1.0  0.26690  0.02470  0.31860  1.0000
  H   H3        1.0  0.76690  0.47530  0.81860  1.0000
  H   H4        1.0  0.73310  0.97530  0.68140  1.0000
  C   C9        1.0  0.35755  0.44978  0.20171  1.0000
  C   C10       1.0  0.14245  0.94978  0.29829  1.0000
  C   C11       1.0  0.64245  0.55022  0.79829  1.0000
  C   C12       1.0  0.85755  0.05022  0.70171  1.0000
  C   C13       1.0  0.37097  0.38094  0.20881  1.0000
  C   C14       1.0  0.12903  0.88094  0.29119  1.0000
  C   C15       1.0  0.62903  0.61906  0.79119  1.0000
  C   C16       1.0  0.87097  0.11906  0.70881  1.0000
  H   H5        1.0  0.44920  0.36180  0.21990  1.0000
  H   H6        1.0  0.05080  0.86180  0.28010  1.0000
  H   H7        1.0  0.55080  0.63820  0.78010  1.0000
  H   H8        1.0  0.94920  0.13820  0.71990  1.0000
  C   C17       1.0  0.27009  0.33954  0.19969  1.0000
  C   C18       1.0  0.22991  0.83954  0.30031  1.0000
  C   C19       1.0  0.72991  0.66046  0.80031  1.0000
  C   C20       1.0  0.77009  0.16046  0.69969  1.0000
  C   C21       1.0  0.15568  0.36801  0.18568  1.0000
  C   C22       1.0  0.34432  0.86801  0.31432  1.0000
  C   C23       1.0  0.84432  0.63199  0.81432  1.0000
  C   C24       1.0  0.65568  0.13199  0.68568  1.0000
  H   H9        1.0  0.08690  0.34000  0.17930  1.0000
  H   H10       1.0  0.41310  0.84000  0.32070  1.0000
  H   H11       1.0  0.91310  0.66000  0.82070  1.0000
  H   H12       1.0  0.58690  0.16000  0.67930  1.0000
  C   C25       1.0  0.01795  0.46746  0.17359  1.0000
  C   C26       1.0  0.48205  0.96746  0.32641  1.0000
  C   C27       1.0  0.98205  0.53254  0.82641  1.0000
  C   C28       1.0  0.51795  0.03254  0.67359  1.0000
  C   C29       1.0  0.46662  0.49446  0.21162  1.0000
  C   C30       1.0  0.03338  0.99446  0.28838  1.0000
  C   C31       1.0  0.53338  0.50554  0.78838  1.0000
  C   C32       1.0  0.96662  0.00554  0.71162  1.0000
  C   C33       1.0  0.28580  0.26553  0.21121  1.0000
  C   C34       1.0  0.21420  0.76553  0.28879  1.0000
  C   C35       1.0  0.71420  0.73447  0.78879  1.0000
  C   C36       1.0  0.78580  0.23447  0.71121  1.0000
  C   C37       1.0  0.70630  0.35229  0.18120  1.0000
  C   C38       1.0  0.79370  0.85229  0.31880  1.0000
  C   C39       1.0  0.29370  0.64771  0.81880  1.0000
  C   C40       1.0  0.20630  0.14771  0.68120  1.0000
  H   H13       1.0  0.62260  0.34830  0.14300  1.0000
  H   H14       1.0  0.87740  0.84830  0.35700  1.0000
  H   H15       1.0  0.37740  0.65170  0.85700  1.0000
  H   H16       1.0  0.12260  0.15170  0.64300  1.0000
  H   H17       1.0  0.71520  0.33060  0.24990  1.0000
  H   H18       1.0  0.78480  0.83060  0.25010  1.0000
  H   H19       1.0  0.28480  0.66940  0.75010  1.0000
  H   H20       1.0  0.21520  0.16940  0.74990  1.0000
  H   H21       1.0  0.75970  0.33070  0.14080  1.0000
  H   H22       1.0  0.74030  0.83070  0.35920  1.0000
  H   H23       1.0  0.24030  0.66930  0.85920  1.0000
  H   H24       1.0  0.25970  0.16930  0.64080  1.0000
  C   C41       1.0  0.69960  0.51590  0.06940  1.0000
  C   C42       1.0  0.80040  0.01590  0.43060  1.0000
  C   C43       1.0  0.30040  0.48410  0.93060  1.0000
  C   C44       1.0  0.19960  0.98410  0.56940  1.0000
  H   H25       1.0  0.65260  0.55370  0.08700  1.0000
  H   H26       1.0  0.84740  0.05370  0.41300  1.0000
  H   H27       1.0  0.34740  0.44630  0.91300  1.0000
  H   H28       1.0  0.15260  0.94630  0.58700  1.0000
  H   H29       1.0  0.65030  0.48990  0.01250  1.0000
  H   H30       1.0  0.84970  0.98990  0.48750  1.0000
  H   H31       1.0  0.34970  0.51010  0.98750  1.0000
  H   H32       1.0  0.15030  0.01010  0.51250  1.0000
  H   H33       1.0  0.77130  0.53250  0.04650  1.0000
  H   H34       1.0  0.72870  0.03250  0.45350  1.0000
  H   H35       1.0  0.22870  0.46750  0.95350  1.0000
  H   H36       1.0  0.27130  0.96750  0.54650  1.0000
  C   C45       1.0  0.83370  0.48880  0.35430  1.0000
  C   C46       1.0  0.66630  0.98880  0.14570  1.0000
  C   C47       1.0  0.16630  0.51120  0.64570  1.0000
  C   C48       1.0  0.33370  0.01120  0.85430  1.0000
  H   H37       1.0  0.91830  0.47470  0.37090  1.0000
  H   H38       1.0  0.58170  0.97470  0.12910  1.0000
  H   H39       1.0  0.08170  0.52530  0.62910  1.0000
  H   H40       1.0  0.41830  0.02530  0.87090  1.0000
  H   H41       1.0  0.79120  0.46980  0.40590  1.0000
  H   H42       1.0  0.70880  0.96980  0.09410  1.0000
  H   H43       1.0  0.20880  0.53020  0.59410  1.0000
  H   H44       1.0  0.29120  0.03020  0.90590  1.0000
  H   H45       1.0  0.82940  0.53760  0.35640  1.0000
  H   H46       1.0  0.67060  0.03760  0.14360  1.0000
  H   H47       1.0  0.17060  0.46240  0.64360  1.0000
  H   H48       1.0  0.32940  0.96240  0.85640  1.0000
  C   C49       1.0  0.35330  0.14579  0.41270  1.0000
  C   C50       1.0  0.14670  0.64579  0.08730  1.0000
  C   C51       1.0  0.64670  0.85421  0.58730  1.0000
  C   C52       1.0  0.85330  0.35421  0.91270  1.0000
  H   H49       1.0  0.26750  0.13450  0.39400  1.0000
  H   H50       1.0  0.23250  0.63450  0.10600  1.0000
  H   H51       1.0  0.73250  0.86550  0.60600  1.0000
  H   H52       1.0  0.76750  0.36550  0.89400  1.0000
  H   H53       1.0  0.36280  0.19120  0.44140  1.0000
  H   H54       1.0  0.13720  0.69120  0.05860  1.0000
  H   H55       1.0  0.63720  0.80880  0.55860  1.0000
  H   H56       1.0  0.86280  0.30880  0.94140  1.0000
  H   H57       1.0  0.39470  0.11420  0.46550  1.0000
  H   H58       1.0  0.10530  0.61420  0.03450  1.0000
  H   H59       1.0  0.60530  0.88580  0.53450  1.0000
  H   H60       1.0  0.89470  0.38580  0.96550  1.0000
  C   C53       1.0  0.61460  0.16291  0.29670  1.0000
  C   C54       1.0  0.88540  0.66291  0.20330  1.0000
  C   C55       1.0  0.38540  0.83709  0.70330  1.0000
  C   C56       1.0  0.11460  0.33709  0.79670  1.0000
  H   H61       1.0  0.64980  0.16760  0.37170  1.0000
  H   H62       1.0  0.85020  0.66760  0.12830  1.0000
  H   H63       1.0  0.35020  0.83240  0.62830  1.0000
  H   H64       1.0  0.14980  0.33240  0.87170  1.0000
  H   H65       1.0  0.62460  0.20480  0.26050  1.0000
  H   H66       1.0  0.87540  0.70480  0.23950  1.0000
  H   H67       1.0  0.37540  0.79520  0.73950  1.0000
  H   H68       1.0  0.12460  0.29520  0.76050  1.0000
  H   H69       1.0  0.65550  0.12680  0.26710  1.0000
  H   H70       1.0  0.84450  0.62680  0.23290  1.0000
  H   H71       1.0  0.34450  0.87320  0.73290  1.0000
  H   H72       1.0  0.15550  0.37320  0.76710  1.0000
  C   C57       1.0  0.34370  0.09774  0.13160  1.0000
  C   C58       1.0  0.15630  0.59774  0.36840  1.0000
  C   C59       1.0  0.65630  0.90226  0.86840  1.0000
  C   C60       1.0  0.84370  0.40226  0.63160  1.0000
  H   H73       1.0  0.27010  0.07470  0.14010  1.0000
  H   H74       1.0  0.22990  0.57470  0.35990  1.0000
  H   H75       1.0  0.72990  0.92530  0.85990  1.0000
  H   H76       1.0  0.77010  0.42530  0.64010  1.0000
  H   H77       1.0  0.39830  0.06570  0.10870  1.0000
  H   H78       1.0  0.10170  0.56570  0.39130  1.0000
  H   H79       1.0  0.60170  0.93430  0.89130  1.0000
  H   H80       1.0  0.89830  0.43430  0.60870  1.0000
  H   H81       1.0  0.32310  0.13310  0.07880  1.0000
  H   H82       1.0  0.17690  0.63310  0.42120  1.0000
  H   H83       1.0  0.67690  0.86690  0.92120  1.0000
  H   H84       1.0  0.82310  0.36690  0.57880  1.0000
