data_image0
_chemical_formula_structural       Fe18O108C36H36C18H18
_chemical_formula_sum              "Fe18 O108 C54 H54"
_cell_length_a       8.278
_cell_length_b       8.278
_cell_length_c       63.41
_cell_angle_alpha    90
_cell_angle_beta     90
_cell_angle_gamma    120

_space_group_name_H-M_alt    "P 1"
_space_group_IT_number       1

loop_
  _space_group_symop_operation_xyz
  'x, y, z'

loop_
  _atom_site_type_symbol
  _atom_site_label
  _atom_site_symmetry_multiplicity
  _atom_site_fract_x
  _atom_site_fract_y
  _atom_site_fract_z
  _atom_site_occupancy
  Fe  Fe1       1.0  0.00000  0.00000  1.00000  1.0000
  Fe  Fe2       1.0  0.00000  0.00000  0.50000  1.0000
  Fe  Fe3       1.0  0.66667  0.33333  0.33333  1.0000
  Fe  Fe4       1.0  0.66667  0.33333  0.83333  1.0000
  Fe  Fe5       1.0  0.33333  0.66667  0.66667  1.0000
  Fe  Fe6       1.0  0.33333  0.66667  0.16667  1.0000
  Fe  Fe7       1.0  0.66670  0.33330  0.94440  1.0000
  Fe  Fe8       1.0  0.33330  0.66670  0.55560  1.0000
  Fe  Fe9       1.0  0.33337  0.66663  0.27773  1.0000
  Fe  Fe10      1.0  0.99997  0.00003  0.88893  1.0000
  Fe  Fe11      1.0  0.00003  0.99997  0.61107  1.0000
  Fe  Fe12      1.0  0.66663  0.33337  0.22227  1.0000
  Fe  Fe13      1.0  0.33330  0.66670  0.05560  1.0000
  Fe  Fe14      1.0  0.66670  0.33330  0.44440  1.0000
  Fe  Fe15      1.0  0.66663  0.33337  0.72227  1.0000
  Fe  Fe16      1.0  0.00003  0.99997  0.11107  1.0000
  Fe  Fe17      1.0  0.99997  0.00003  0.38893  1.0000
  Fe  Fe18      1.0  0.33337  0.66663  0.77773  1.0000
  O   O1        1.0  0.46110  0.33600  0.92646  1.0000
  O   O2        1.0  0.66400  0.12510  0.92646  1.0000
  O   O3        1.0  0.87490  0.53890  0.92646  1.0000
  O   O4        1.0  0.33600  0.46110  0.57354  1.0000
  O   O5        1.0  0.53890  0.87490  0.57354  1.0000
  O   O6        1.0  0.12510  0.66400  0.57354  1.0000
  O   O7        1.0  0.12777  0.66933  0.25979  1.0000
  O   O8        1.0  0.33067  0.45843  0.25979  1.0000
  O   O9        1.0  0.54157  0.87223  0.25979  1.0000
  O   O10       1.0  0.00267  0.79443  0.90687  1.0000
  O   O11       1.0  0.20557  0.20823  0.90687  1.0000
  O   O12       1.0  0.79177  0.99733  0.90687  1.0000
  O   O13       1.0  0.79443  0.00267  0.59313  1.0000
  O   O14       1.0  0.99733  0.79177  0.59313  1.0000
  O   O15       1.0  0.20823  0.20557  0.59313  1.0000
  O   O16       1.0  0.66933  0.12777  0.24021  1.0000
  O   O17       1.0  0.87223  0.54157  0.24021  1.0000
  O   O18       1.0  0.45843  0.33067  0.24021  1.0000
  O   O19       1.0  0.53890  0.66400  0.07354  1.0000
  O   O20       1.0  0.33600  0.87490  0.07354  1.0000
  O   O21       1.0  0.12510  0.46110  0.07354  1.0000
  O   O22       1.0  0.66400  0.53890  0.42646  1.0000
  O   O23       1.0  0.46110  0.12510  0.42646  1.0000
  O   O24       1.0  0.87490  0.33600  0.42646  1.0000
  O   O25       1.0  0.87223  0.33067  0.74021  1.0000
  O   O26       1.0  0.66933  0.54157  0.74021  1.0000
  O   O27       1.0  0.45843  0.12777  0.74021  1.0000
  O   O28       1.0  0.99733  0.20557  0.09313  1.0000
  O   O29       1.0  0.79443  0.79177  0.09313  1.0000
  O   O30       1.0  0.20823  0.00267  0.09313  1.0000
  O   O31       1.0  0.20557  0.99733  0.40687  1.0000
  O   O32       1.0  0.00267  0.20823  0.40687  1.0000
  O   O33       1.0  0.79177  0.79443  0.40687  1.0000
  O   O34       1.0  0.33067  0.87223  0.75979  1.0000
  O   O35       1.0  0.12777  0.45843  0.75979  1.0000
  O   O36       1.0  0.54157  0.66933  0.75979  1.0000
  O   O37       1.0  0.87940  0.34710  0.96292  1.0000
  O   O38       1.0  0.65290  0.53230  0.96292  1.0000
  O   O39       1.0  0.46770  0.12060  0.96292  1.0000
  O   O40       1.0  0.34710  0.87940  0.53708  1.0000
  O   O41       1.0  0.12060  0.46770  0.53708  1.0000
  O   O42       1.0  0.53230  0.65290  0.53708  1.0000
  O   O43       1.0  0.54607  0.68043  0.29625  1.0000
  O   O44       1.0  0.31957  0.86563  0.29625  1.0000
  O   O45       1.0  0.13437  0.45393  0.29625  1.0000
  O   O46       1.0  0.01377  0.21273  0.87041  1.0000
  O   O47       1.0  0.78727  0.80103  0.87041  1.0000
  O   O48       1.0  0.19897  0.98623  0.87041  1.0000
  O   O49       1.0  0.21273  0.01377  0.62959  1.0000
  O   O50       1.0  0.98623  0.19897  0.62959  1.0000
  O   O51       1.0  0.80103  0.78727  0.62959  1.0000
  O   O52       1.0  0.68043  0.54607  0.20375  1.0000
  O   O53       1.0  0.45393  0.13437  0.20375  1.0000
  O   O54       1.0  0.86563  0.31957  0.20375  1.0000
  O   O55       1.0  0.12060  0.65290  0.03708  1.0000
  O   O56       1.0  0.34710  0.46770  0.03708  1.0000
  O   O57       1.0  0.53230  0.87940  0.03708  1.0000
  O   O58       1.0  0.65290  0.12060  0.46292  1.0000
  O   O59       1.0  0.87940  0.53230  0.46292  1.0000
  O   O60       1.0  0.46770  0.34710  0.46292  1.0000
  O   O61       1.0  0.45393  0.31957  0.70375  1.0000
  O   O62       1.0  0.68043  0.13437  0.70375  1.0000
  O   O63       1.0  0.86563  0.54607  0.70375  1.0000
  O   O64       1.0  0.98623  0.78727  0.12959  1.0000
  O   O65       1.0  0.21273  0.19897  0.12959  1.0000
  O   O66       1.0  0.80103  0.01377  0.12959  1.0000
  O   O67       1.0  0.78727  0.98623  0.37041  1.0000
  O   O68       1.0  0.01377  0.80103  0.37041  1.0000
  O   O69       1.0  0.19897  0.21273  0.37041  1.0000
  O   O70       1.0  0.31957  0.45393  0.79625  1.0000
  O   O71       1.0  0.54607  0.86563  0.79625  1.0000
  O   O72       1.0  0.13437  0.68043  0.79625  1.0000
  O   O73       1.0  0.01450  0.21900  0.98120  1.0000
  O   O74       1.0  0.78100  0.79550  0.98120  1.0000
  O   O75       1.0  0.20450  0.98550  0.98120  1.0000
  O   O76       1.0  0.21900  0.01450  0.51880  1.0000
  O   O77       1.0  0.98550  0.20450  0.51880  1.0000
  O   O78       1.0  0.79550  0.78100  0.51880  1.0000
  O   O79       1.0  0.68117  0.55233  0.31453  1.0000
  O   O80       1.0  0.44767  0.12883  0.31453  1.0000
  O   O81       1.0  0.87117  0.31883  0.31453  1.0000
  O   O82       1.0  0.88567  0.34783  0.85213  1.0000
  O   O83       1.0  0.65217  0.53783  0.85213  1.0000
  O   O84       1.0  0.46217  0.11433  0.85213  1.0000
  O   O85       1.0  0.34783  0.88567  0.64787  1.0000
  O   O86       1.0  0.11433  0.46217  0.64787  1.0000
  O   O87       1.0  0.53783  0.65217  0.64787  1.0000
  O   O88       1.0  0.55233  0.68117  0.18547  1.0000
  O   O89       1.0  0.31883  0.87117  0.18547  1.0000
  O   O90       1.0  0.12883  0.44767  0.18547  1.0000
  O   O91       1.0  0.98550  0.78100  0.01880  1.0000
  O   O92       1.0  0.21900  0.20450  0.01880  1.0000
  O   O93       1.0  0.79550  0.01450  0.01880  1.0000
  O   O94       1.0  0.78100  0.98550  0.48120  1.0000
  O   O95       1.0  0.01450  0.79550  0.48120  1.0000
  O   O96       1.0  0.20450  0.21900  0.48120  1.0000
  O   O97       1.0  0.31883  0.44767  0.68547  1.0000
  O   O98       1.0  0.55233  0.87117  0.68547  1.0000
  O   O99       1.0  0.12883  0.68117  0.68547  1.0000
  O   O100      1.0  0.11433  0.65217  0.14787  1.0000
  O   O101      1.0  0.34783  0.46217  0.14787  1.0000
  O   O102      1.0  0.53783  0.88567  0.14787  1.0000
  O   O103      1.0  0.65217  0.11433  0.35213  1.0000
  O   O104      1.0  0.88567  0.53783  0.35213  1.0000
  O   O105      1.0  0.46217  0.34783  0.35213  1.0000
  O   O106      1.0  0.44767  0.31883  0.81453  1.0000
  O   O107      1.0  0.68117  0.12883  0.81453  1.0000
  O   O108      1.0  0.87117  0.55233  0.81453  1.0000
  C   C1        1.0  0.87890  0.21240  0.97203  1.0000
  C   C2        1.0  0.78760  0.66650  0.97203  1.0000
  C   C3        1.0  0.33350  0.12110  0.97203  1.0000
  C   C4        1.0  0.21240  0.87890  0.52797  1.0000
  C   C5        1.0  0.12110  0.33350  0.52797  1.0000
  C   C6        1.0  0.66650  0.78760  0.52797  1.0000
  C   C7        1.0  0.54557  0.54573  0.30536  1.0000
  C   C8        1.0  0.45427  0.99983  0.30536  1.0000
  C   C9        1.0  0.00017  0.45443  0.30536  1.0000
  C   C10       1.0  0.87907  0.21223  0.86130  1.0000
  C   C11       1.0  0.78777  0.66683  0.86130  1.0000
  C   C12       1.0  0.33317  0.12093  0.86130  1.0000
  C   C13       1.0  0.21223  0.87907  0.63870  1.0000
  C   C14       1.0  0.12093  0.33317  0.63870  1.0000
  C   C15       1.0  0.66683  0.78777  0.63870  1.0000
  C   C16       1.0  0.54573  0.54557  0.19464  1.0000
  C   C17       1.0  0.45443  0.00017  0.19464  1.0000
  C   C18       1.0  0.99983  0.45427  0.19464  1.0000
  C   C19       1.0  0.12110  0.78760  0.02797  1.0000
  C   C20       1.0  0.21240  0.33350  0.02797  1.0000
  C   C21       1.0  0.66650  0.87890  0.02797  1.0000
  C   C22       1.0  0.78760  0.12110  0.47203  1.0000
  C   C23       1.0  0.87890  0.66650  0.47203  1.0000
  C   C24       1.0  0.33350  0.21240  0.47203  1.0000
  C   C25       1.0  0.45443  0.45427  0.69464  1.0000
  C   C26       1.0  0.54573  0.00017  0.69464  1.0000
  C   C27       1.0  0.99983  0.54557  0.69464  1.0000
  C   C28       1.0  0.12093  0.78777  0.13870  1.0000
  C   C29       1.0  0.21223  0.33317  0.13870  1.0000
  C   C30       1.0  0.66683  0.87907  0.13870  1.0000
  C   C31       1.0  0.78777  0.12093  0.36130  1.0000
  C   C32       1.0  0.87907  0.66683  0.36130  1.0000
  C   C33       1.0  0.33317  0.21223  0.36130  1.0000
  C   C34       1.0  0.45427  0.45443  0.80536  1.0000
  C   C35       1.0  0.54557  0.99983  0.80536  1.0000
  C   C36       1.0  0.00017  0.54573  0.80536  1.0000
  H   H1        1.0  0.76810  0.09850  0.97190  1.0000
  H   H2        1.0  0.90150  0.66960  0.97190  1.0000
  H   H3        1.0  0.33040  0.23190  0.97190  1.0000
  H   H4        1.0  0.09850  0.76810  0.52810  1.0000
  H   H5        1.0  0.23190  0.33040  0.52810  1.0000
  H   H6        1.0  0.66960  0.90150  0.52810  1.0000
  H   H7        1.0  0.43477  0.43183  0.30523  1.0000
  H   H8        1.0  0.56817  0.00293  0.30523  1.0000
  H   H9        1.0  0.99707  0.56523  0.30523  1.0000
  H   H10       1.0  0.76517  0.10143  0.86143  1.0000
  H   H11       1.0  0.89857  0.66373  0.86143  1.0000
  H   H12       1.0  0.33627  0.23483  0.86143  1.0000
  H   H13       1.0  0.10143  0.76517  0.63857  1.0000
  H   H14       1.0  0.23483  0.33627  0.63857  1.0000
  H   H15       1.0  0.66373  0.89857  0.63857  1.0000
  H   H16       1.0  0.43183  0.43477  0.19477  1.0000
  H   H17       1.0  0.56523  0.99707  0.19477  1.0000
  H   H18       1.0  0.00293  0.56817  0.19477  1.0000
  H   H19       1.0  0.23190  0.90150  0.02810  1.0000
  H   H20       1.0  0.09850  0.33040  0.02810  1.0000
  H   H21       1.0  0.66960  0.76810  0.02810  1.0000
  H   H22       1.0  0.90150  0.23190  0.47190  1.0000
  H   H23       1.0  0.76810  0.66960  0.47190  1.0000
  H   H24       1.0  0.33040  0.09850  0.47190  1.0000
  H   H25       1.0  0.56523  0.56817  0.69477  1.0000
  H   H26       1.0  0.43183  0.99707  0.69477  1.0000
  H   H27       1.0  0.00293  0.43477  0.69477  1.0000
  H   H28       1.0  0.23483  0.89857  0.13857  1.0000
  H   H29       1.0  0.10143  0.33627  0.13857  1.0000
  H   H30       1.0  0.66373  0.76517  0.13857  1.0000
  H   H31       1.0  0.89857  0.23483  0.36143  1.0000
  H   H32       1.0  0.76517  0.66373  0.36143  1.0000
  H   H33       1.0  0.33627  0.10143  0.36143  1.0000
  H   H34       1.0  0.56817  0.56523  0.80523  1.0000
  H   H35       1.0  0.43477  0.00293  0.80523  1.0000
  H   H36       1.0  0.99707  0.43183  0.80523  1.0000
  C   C37       1.0  0.33330  0.20150  0.91670  1.0000
  C   C38       1.0  0.79850  0.13180  0.91670  1.0000
  C   C39       1.0  0.86820  0.66670  0.91670  1.0000
  C   C40       1.0  0.20150  0.33330  0.58330  1.0000
  C   C41       1.0  0.66670  0.86820  0.58330  1.0000
  C   C42       1.0  0.13180  0.79850  0.58330  1.0000
  C   C43       1.0  0.99997  0.53483  0.25003  1.0000
  C   C44       1.0  0.46517  0.46513  0.25003  1.0000
  C   C45       1.0  0.53487  0.00003  0.25003  1.0000
  C   C46       1.0  0.66670  0.79850  0.08330  1.0000
  C   C47       1.0  0.20150  0.86820  0.08330  1.0000
  C   C48       1.0  0.13180  0.33330  0.08330  1.0000
  C   C49       1.0  0.79850  0.66670  0.41670  1.0000
  C   C50       1.0  0.33330  0.13180  0.41670  1.0000
  C   C51       1.0  0.86820  0.20150  0.41670  1.0000
  C   C52       1.0  0.00003  0.46517  0.74997  1.0000
  C   C53       1.0  0.53483  0.53487  0.74997  1.0000
  C   C54       1.0  0.46513  0.99997  0.74997  1.0000
  H   H37       1.0  0.33330  0.08920  0.91670  1.0000
  H   H38       1.0  0.91080  0.24410  0.91670  1.0000
  H   H39       1.0  0.75590  0.66670  0.91670  1.0000
  H   H40       1.0  0.08920  0.33330  0.58330  1.0000
  H   H41       1.0  0.66670  0.75590  0.58330  1.0000
  H   H42       1.0  0.24410  0.91080  0.58330  1.0000
  H   H43       1.0  0.99997  0.42253  0.25003  1.0000
  H   H44       1.0  0.57747  0.57743  0.25003  1.0000
  H   H45       1.0  0.42257  0.00003  0.25003  1.0000
  H   H46       1.0  0.66670  0.91080  0.08330  1.0000
  H   H47       1.0  0.08920  0.75590  0.08330  1.0000
  H   H48       1.0  0.24410  0.33330  0.08330  1.0000
  H   H49       1.0  0.91080  0.66670  0.41670  1.0000
  H   H50       1.0  0.33330  0.24410  0.41670  1.0000
  H   H51       1.0  0.75590  0.08920  0.41670  1.0000
  H   H52       1.0  0.00003  0.57747  0.74997  1.0000
  H   H53       1.0  0.42253  0.42257  0.74997  1.0000
  H   H54       1.0  0.57743  0.99997  0.74997  1.0000
