data_image0
_chemical_formula_structural       Cu8S18O48C6H2C4H2C8H2C4H2C8H2C4H2C8H2C4H2C2H16
_chemical_formula_sum              "Cu8 S18 O48 C48 H32"
_cell_length_a       13.7598
_cell_length_b       14.4813
_cell_length_c       14.6317
_cell_angle_alpha    104.327
_cell_angle_beta     90.613
_cell_angle_gamma    95.779

_space_group_name_H-M_alt    "P 1"
_space_group_IT_number       1

loop_
  _space_group_symop_operation_xyz
  'x, y, z'

loop_
  _atom_site_type_symbol
  _atom_site_label
  _atom_site_symmetry_multiplicity
  _atom_site_fract_x
  _atom_site_fract_y
  _atom_site_fract_z
  _atom_site_occupancy
  Cu  Cu1       1.0  0.96480  0.69870  0.32144  1.0000
  Cu  Cu2       1.0  0.03520  0.30130  0.67856  1.0000
  Cu  Cu3       1.0  0.80546  0.69151  0.10946  1.0000
  Cu  Cu4       1.0  0.19454  0.30849  0.89054  1.0000
  Cu  Cu5       1.0  0.58054  0.67656  0.24447  1.0000
  Cu  Cu6       1.0  0.41946  0.32344  0.75553  1.0000
  Cu  Cu7       1.0  0.72583  0.68646  0.42822  1.0000
  Cu  Cu8       1.0  0.27417  0.31354  0.57178  1.0000
  S   S1        1.0  0.04137  0.55664  0.28814  1.0000
  S   S2        1.0  0.95863  0.44336  0.71186  1.0000
  S   S3        1.0  0.79207  0.54791  0.98710  1.0000
  S   S4        1.0  0.20793  0.45209  0.01290  1.0000
  S   S5        1.0  0.46277  0.51892  0.19859  1.0000
  S   S6        1.0  0.53723  0.48108  0.80141  1.0000
  S   S7        1.0  0.71553  0.55413  0.50216  1.0000
  S   S8        1.0  0.28447  0.44587  0.49784  1.0000
  S   S9        1.0  0.93580  0.25201  0.43855  1.0000
  S   S10       1.0  0.06420  0.74799  0.56145  1.0000
  S   S11       1.0  0.98244  0.23681  0.99591  1.0000
  S   S12       1.0  0.01756  0.76319  0.00409  1.0000
  S   S13       1.0  0.53280  0.22836  0.89572  1.0000
  S   S14       1.0  0.46720  0.77164  0.10428  1.0000
  S   S15       1.0  0.44264  0.24141  0.39427  1.0000
  S   S16       1.0  0.55736  0.75859  0.60573  1.0000
  S   S17       1.0  0.80721  0.83464  0.31704  1.0000
  S   S18       1.0  0.19279  0.16536  0.68296  1.0000
  O   O1        1.0  0.86572  0.63051  0.38219  1.0000
  O   O2        1.0  0.13428  0.36949  0.61781  1.0000
  O   O3        1.0  0.85710  0.18780  0.38310  1.0000
  O   O4        1.0  0.14290  0.81220  0.61690  1.0000
  O   O5        1.0  0.93060  0.25570  0.53813  1.0000
  O   O6        1.0  0.06940  0.74430  0.46187  1.0000
  O   O7        1.0  0.03140  0.23230  0.39960  1.0000
  O   O8        1.0  0.96860  0.76770  0.60040  1.0000
  O   O9        1.0  0.89788  0.63369  0.17193  1.0000
  O   O10       1.0  0.10212  0.36631  0.82807  1.0000
  O   O11       1.0  0.95700  0.18230  0.06520  1.0000
  O   O12       1.0  0.04300  0.81770  0.93480  1.0000
  O   O13       1.0  0.08620  0.23840  0.97860  1.0000
  O   O14       1.0  0.91380  0.76160  0.02140  1.0000
  O   O15       1.0  0.92050  0.20645  0.91060  1.0000
  O   O16       1.0  0.07950  0.79355  0.08940  1.0000
  O   O17       1.0  0.65997  0.60882  0.14868  1.0000
  O   O18       1.0  0.34003  0.39118  0.85132  1.0000
  O   O19       1.0  0.61380  0.20260  0.83660  1.0000
  O   O20       1.0  0.38620  0.79740  0.16340  1.0000
  O   O21       1.0  0.44452  0.23726  0.83992  1.0000
  O   O22       1.0  0.55548  0.76274  0.16008  1.0000
  O   O23       1.0  0.50470  0.16540  0.95560  1.0000
  O   O24       1.0  0.49530  0.83460  0.04440  1.0000
  O   O25       1.0  0.63097  0.60626  0.33724  1.0000
  O   O26       1.0  0.36903  0.39374  0.66276  1.0000
  O   O27       1.0  0.35300  0.21650  0.33595  1.0000
  O   O28       1.0  0.64700  0.78350  0.66405  1.0000
  O   O29       1.0  0.42190  0.25820  0.49463  1.0000
  O   O30       1.0  0.57810  0.74180  0.50537  1.0000
  O   O31       1.0  0.51470  0.17470  0.36710  1.0000
  O   O32       1.0  0.48530  0.82530  0.63290  1.0000
  O   O33       1.0  0.72314  0.77237  0.34073  1.0000
  O   O34       1.0  0.27686  0.22763  0.65927  1.0000
  O   O35       1.0  0.89769  0.81437  0.36068  1.0000
  O   O36       1.0  0.10231  0.18563  0.63932  1.0000
  O   O37       1.0  0.81360  0.81135  0.21325  1.0000
  O   O38       1.0  0.18640  0.18865  0.78675  1.0000
  O   O39       1.0  0.79420  0.93496  0.35250  1.0000
  O   O40       1.0  0.20580  0.06504  0.64750  1.0000
  O   O41       1.0  0.06958  0.77010  0.26843  1.0000
  O   O42       1.0  0.93042  0.22990  0.73157  1.0000
  O   O43       1.0  0.71500  0.75070  0.04280  1.0000
  O   O44       1.0  0.28500  0.24930  0.95720  1.0000
  O   O45       1.0  0.49968  0.74880  0.33894  1.0000
  O   O46       1.0  0.50032  0.25120  0.66106  1.0000
  O   O47       1.0  0.79080  0.78325  0.53527  1.0000
  O   O48       1.0  0.20920  0.21675  0.46473  1.0000
  C   C1        1.0  0.88180  0.54720  0.39660  1.0000
  C   C2        1.0  0.11820  0.45280  0.60340  1.0000
  C   C3        1.0  0.81930  0.49920  0.45050  1.0000
  C   C4        1.0  0.18070  0.50080  0.54950  1.0000
  C   C5        1.0  0.83740  0.41180  0.46490  1.0000
  C   C6        1.0  0.16260  0.58820  0.53510  1.0000
  H   H1        1.0  0.79440  0.38150  0.50170  1.0000
  H   H2        1.0  0.20560  0.61850  0.49830  1.0000
  C   C7        1.0  0.91830  0.36740  0.42590  1.0000
  C   C8        1.0  0.08170  0.63260  0.57410  1.0000
  C   C9        1.0  0.98180  0.41340  0.37450  1.0000
  C   C10       1.0  0.01820  0.58660  0.62550  1.0000
  H   H3        1.0  0.03800  0.38460  0.34930  1.0000
  H   H4        1.0  0.96200  0.61540  0.65070  1.0000
  C   C11       1.0  0.96390  0.50100  0.35980  1.0000
  C   C12       1.0  0.03610  0.49900  0.64020  1.0000
  C   C13       1.0  0.91940  0.54660  0.13200  1.0000
  C   C14       1.0  0.08060  0.45340  0.86800  1.0000
  C   C15       1.0  0.98550  0.49950  0.17480  1.0000
  C   C16       1.0  0.01450  0.50050  0.82520  1.0000
  C   C17       1.0  0.00530  0.40680  0.13290  1.0000
  C   C18       1.0  0.99470  0.59320  0.86710  1.0000
  H   H5        1.0  0.04990  0.37710  0.16330  1.0000
  H   H6        1.0  0.95010  0.62290  0.83670  1.0000
  C   C19       1.0  0.96050  0.35690  0.04690  1.0000
  C   C20       1.0  0.03950  0.64310  0.95310  1.0000
  C   C21       1.0  0.89690  0.40120  0.00210  1.0000
  C   C22       1.0  0.10310  0.59880  0.99790  1.0000
  H   H7        1.0  0.86670  0.36800  0.94280  1.0000
  H   H8        1.0  0.13330  0.63200  0.05720  1.0000
  C   C23       1.0  0.87740  0.49320  0.04350  1.0000
  C   C24       1.0  0.12260  0.50680  0.95650  1.0000
  C   C25       1.0  0.62830  0.52630  0.09200  1.0000
  C   C26       1.0  0.37170  0.47370  0.90800  1.0000
  C   C27       1.0  0.68100  0.48620  0.01240  1.0000
  C   C28       1.0  0.31900  0.51380  0.98760  1.0000
  C   C29       1.0  0.65140  0.39670  0.95230  1.0000
  C   C30       1.0  0.34860  0.60330  0.04770  1.0000
  H   H9        1.0  0.68870  0.37220  0.89910  1.0000
  H   H10       1.0  0.31130  0.62780  0.10090  1.0000
  C   C31       1.0  0.56770  0.34340  0.96990  1.0000
  C   C32       1.0  0.43230  0.65660  0.03010  1.0000
  C   C33       1.0  0.51170  0.38160  0.04680  1.0000
  C   C34       1.0  0.48830  0.61840  0.95320  1.0000
  H   H11       1.0  0.45380  0.34570  0.05880  1.0000
  H   H12       1.0  0.54620  0.65430  0.94120  1.0000
  C   C35       1.0  0.54040  0.47110  0.10530  1.0000
  C   C36       1.0  0.45960  0.52890  0.89470  1.0000
  C   C37       1.0  0.58680  0.52600  0.35100  1.0000
  C   C38       1.0  0.41320  0.47400  0.64900  1.0000
  C   C39       1.0  0.50700  0.47490  0.29260  1.0000
  C   C40       1.0  0.49300  0.52510  0.70740  1.0000
  C   C41       1.0  0.46190  0.38930  0.30680  1.0000
  C   C42       1.0  0.53810  0.61070  0.69320  1.0000
  H   H13       1.0  0.40830  0.35560  0.26670  1.0000
  H   H14       1.0  0.59170  0.64440  0.73330  1.0000
  C   C43       1.0  0.49480  0.35290  0.37920  1.0000
  C   C44       1.0  0.50520  0.64710  0.62080  1.0000
  C   C45       1.0  0.57260  0.40280  0.43950  1.0000
  C   C46       1.0  0.42740  0.59720  0.56050  1.0000
  H   H15       1.0  0.59430  0.37900  0.49020  1.0000
  H   H16       1.0  0.40570  0.62100  0.50980  1.0000
  C   C47       1.0  0.61741  0.48707  0.42425  1.0000
  C   C48       1.0  0.38259  0.51293  0.57575  1.0000
  H   H17       1.0  0.06770  0.77650  0.20330  1.0000
  H   H18       1.0  0.93230  0.22350  0.79670  1.0000
  H   H19       1.0  0.12240  0.77850  0.28370  1.0000
  H   H20       1.0  0.87760  0.22150  0.71630  1.0000
  H   H21       1.0  0.66890  0.76210  0.07450  1.0000
  H   H22       1.0  0.33110  0.23790  0.92550  1.0000
  H   H23       1.0  0.69940  0.76300  0.98850  1.0000
  H   H24       1.0  0.30060  0.23700  0.01150  1.0000
  H   H25       1.0  0.45100  0.77660  0.34920  1.0000
  H   H26       1.0  0.54900  0.22340  0.65080  1.0000
  H   H27       1.0  0.51780  0.74250  0.39310  1.0000
  H   H28       1.0  0.48220  0.25750  0.60690  1.0000
  H   H29       1.0  0.84560  0.76580  0.54740  1.0000
  H   H30       1.0  0.15440  0.23420  0.45260  1.0000
  H   H31       1.0  0.75580  0.77560  0.57810  1.0000
  H   H32       1.0  0.24420  0.22440  0.42190  1.0000
