data_image0
_chemical_formula_structural       C8H12C8H12C8N8O16Pt2Rh4
_chemical_formula_sum              "C24 H24 N8 O16 Pt2 Rh4"
_cell_length_a       13.0959
_cell_length_b       11.7615
_cell_length_c       25.1321
_cell_angle_alpha    90
_cell_angle_beta     101.613
_cell_angle_gamma    90

_space_group_name_H-M_alt    "P 1"
_space_group_IT_number       1

loop_
  _space_group_symop_operation_xyz
  'x, y, z'

loop_
  _atom_site_type_symbol
  _atom_site_label
  _atom_site_symmetry_multiplicity
  _atom_site_fract_x
  _atom_site_fract_y
  _atom_site_fract_z
  _atom_site_occupancy
  C   C1        1.0  0.96370  0.61940  0.41140  1.0000
  C   C2        1.0  0.53630  0.11940  0.08860  1.0000
  C   C3        1.0  0.03630  0.38060  0.58860  1.0000
  C   C4        1.0  0.46370  0.88060  0.91140  1.0000
  C   C5        1.0  0.94810  0.69880  0.36240  1.0000
  C   C6        1.0  0.55190  0.19880  0.13760  1.0000
  C   C7        1.0  0.05190  0.30120  0.63760  1.0000
  C   C8        1.0  0.44810  0.80120  0.86240  1.0000
  H   H1        1.0  0.87500  0.70550  0.34710  1.0000
  H   H2        1.0  0.62500  0.20550  0.15290  1.0000
  H   H3        1.0  0.12500  0.29450  0.65290  1.0000
  H   H4        1.0  0.37500  0.79450  0.84710  1.0000
  H   H5        1.0  0.98350  0.66850  0.33560  1.0000
  H   H6        1.0  0.51650  0.16850  0.16440  1.0000
  H   H7        1.0  0.01650  0.33150  0.66440  1.0000
  H   H8        1.0  0.48350  0.83150  0.83560  1.0000
  H   H9        1.0  0.97600  0.77250  0.37370  1.0000
  H   H10       1.0  0.52400  0.27250  0.12630  1.0000
  H   H11       1.0  0.02400  0.22750  0.62630  1.0000
  H   H12       1.0  0.47600  0.72750  0.87370  1.0000
  C   C9        1.0  0.99020  0.30670  0.44700  1.0000
  C   C10       1.0  0.50980  0.80670  0.05300  1.0000
  C   C11       1.0  0.00980  0.69330  0.55300  1.0000
  C   C12       1.0  0.49020  0.19330  0.94700  1.0000
  C   C13       1.0  0.98220  0.19410  0.41850  1.0000
  C   C14       1.0  0.51780  0.69410  0.08150  1.0000
  C   C15       1.0  0.01780  0.80590  0.58150  1.0000
  C   C16       1.0  0.48220  0.30590  0.91850  1.0000
  H   H13       1.0  0.98760  0.13400  0.44480  1.0000
  H   H14       1.0  0.51240  0.63400  0.05520  1.0000
  H   H15       1.0  0.01240  0.86600  0.55520  1.0000
  H   H16       1.0  0.48760  0.36600  0.94480  1.0000
  H   H17       1.0  0.03770  0.18710  0.39880  1.0000
  H   H18       1.0  0.46230  0.68710  0.10120  1.0000
  H   H19       1.0  0.96230  0.81290  0.60120  1.0000
  H   H20       1.0  0.53770  0.31290  0.89880  1.0000
  H   H21       1.0  0.91640  0.18890  0.39360  1.0000
  H   H22       1.0  0.58360  0.68890  0.10640  1.0000
  H   H23       1.0  0.08360  0.81110  0.60640  1.0000
  H   H24       1.0  0.41640  0.31110  0.89360  1.0000
  C   C17       1.0  0.65230  0.49780  0.49940  1.0000
  C   C18       1.0  0.84770  0.99780  0.00060  1.0000
  C   C19       1.0  0.34770  0.50220  0.50060  1.0000
  C   C20       1.0  0.15230  0.00220  0.99940  1.0000
  C   C21       1.0  0.46840  0.52940  0.42080  1.0000
  C   C22       1.0  0.03160  0.02940  0.07920  1.0000
  C   C23       1.0  0.53160  0.47060  0.57920  1.0000
  C   C24       1.0  0.96840  0.97060  0.92080  1.0000
  N   N1        1.0  0.73930  0.49250  0.49870  1.0000
  N   N2        1.0  0.76070  0.99250  0.00130  1.0000
  N   N3        1.0  0.26070  0.50750  0.50130  1.0000
  N   N4        1.0  0.23930  0.00750  0.99870  1.0000
  N   N5        1.0  0.44890  0.54500  0.37570  1.0000
  N   N6        1.0  0.05110  0.04500  0.12430  1.0000
  N   N7        1.0  0.55110  0.45500  0.62430  1.0000
  N   N8        1.0  0.94890  0.95500  0.87570  1.0000
  O   O1        1.0  0.06020  0.59600  0.43165  1.0000
  O   O2        1.0  0.43980  0.09600  0.06835  1.0000
  O   O3        1.0  0.93980  0.40400  0.56835  1.0000
  O   O4        1.0  0.56020  0.90400  0.93165  1.0000
  O   O5        1.0  0.88790  0.58670  0.42880  1.0000
  O   O6        1.0  0.61210  0.08670  0.07120  1.0000
  O   O7        1.0  0.11210  0.41330  0.57120  1.0000
  O   O8        1.0  0.38790  0.91330  0.92880  1.0000
  O   O9        1.0  0.90640  0.34770  0.45637  1.0000
  O   O10       1.0  0.59360  0.84770  0.04363  1.0000
  O   O11       1.0  0.09360  0.65230  0.54363  1.0000
  O   O12       1.0  0.40640  0.15230  0.95637  1.0000
  O   O13       1.0  0.07790  0.35560  0.45873  1.0000
  O   O14       1.0  0.42210  0.85560  0.04127  1.0000
  O   O15       1.0  0.92210  0.64440  0.54127  1.0000
  O   O16       1.0  0.57790  0.14440  0.95873  1.0000
  Pt  Pt1       1.0  0.50000  0.50000  0.50000  1.0000
  Pt  Pt2       1.0  0.00000  0.00000  0.00000  1.0000
  Rh  Rh1       1.0  0.90798  0.49592  0.49880  1.0000
  Rh  Rh2       1.0  0.59202  0.99592  0.00120  1.0000
  Rh  Rh3       1.0  0.09202  0.50408  0.50120  1.0000
  Rh  Rh4       1.0  0.40798  0.00408  0.99880  1.0000
