data_image0
_chemical_formula_structural       C4H6C4H6N4C4O8PdRh2
_chemical_formula_sum              "C12 H12 N4 O8 Pd1 Rh2"
_cell_length_a       12.6358
_cell_length_b       13.0953
_cell_length_c       14.5242
_cell_angle_alpha    85.137
_cell_angle_beta     68.479
_cell_angle_gamma    70.436

_space_group_name_H-M_alt    "P 1"
_space_group_IT_number       1

loop_
  _space_group_symop_operation_xyz
  'x, y, z'

loop_
  _atom_site_type_symbol
  _atom_site_label
  _atom_site_symmetry_multiplicity
  _atom_site_fract_x
  _atom_site_fract_y
  _atom_site_fract_z
  _atom_site_occupancy
  C   C1        1.0  0.09550  0.45570  0.13610  1.0000
  C   C2        1.0  0.90450  0.54430  0.86390  1.0000
  C   C3        1.0  0.16280  0.43020  0.20590  1.0000
  C   C4        1.0  0.83720  0.56980  0.79410  1.0000
  H   H1        1.0  0.13140  0.38430  0.25590  1.0000
  H   H2        1.0  0.86860  0.61570  0.74410  1.0000
  H   H3        1.0  0.15330  0.49640  0.23660  1.0000
  H   H4        1.0  0.84670  0.50360  0.76340  1.0000
  H   H5        1.0  0.24670  0.39380  0.16990  1.0000
  H   H6        1.0  0.75330  0.60620  0.83010  1.0000
  C   C5        1.0  0.78340  0.55080  0.13110  1.0000
  C   C6        1.0  0.21660  0.44920  0.86890  1.0000
  C   C7        1.0  0.65200  0.57930  0.20020  1.0000
  C   C8        1.0  0.34800  0.42070  0.79980  1.0000
  H   H7        1.0  0.61770  0.65630  0.21340  1.0000
  H   H8        1.0  0.38230  0.34370  0.78660  1.0000
  H   H9        1.0  0.64760  0.54340  0.26130  1.0000
  H   H10       1.0  0.35240  0.45660  0.73870  1.0000
  H   H11       1.0  0.60800  0.55600  0.16940  1.0000
  H   H12       1.0  0.39200  0.44400  0.83060  1.0000
  N   N1        1.0  0.99150  0.76520  0.00540  1.0000
  N   N2        1.0  0.00850  0.23480  0.99460  1.0000
  N   N3        1.0  0.24210  0.93270  0.82050  1.0000
  N   N4        1.0  0.75790  0.06730  0.17950  1.0000
  C   C9        1.0  0.00030  0.84110  0.99970  1.0000
  C   C10       1.0  0.99970  0.15890  0.00030  1.0000
  C   C11       1.0  0.15490  0.95780  0.88920  1.0000
  C   C12       1.0  0.84510  0.04220  0.11080  1.0000
  O   O1        1.0  0.06940  0.55280  0.10760  1.0000
  O   O2        1.0  0.93060  0.44720  0.89240  1.0000
  O   O3        1.0  0.07920  0.37990  0.10440  1.0000
  O   O4        1.0  0.92080  0.62010  0.89560  1.0000
  O   O5        1.0  0.82820  0.62450  0.10630  1.0000
  O   O6        1.0  0.17180  0.37550  0.89370  1.0000
  O   O7        1.0  0.83340  0.45170  0.10320  1.0000
  O   O8        1.0  0.16660  0.54830  0.89680  1.0000
  Pd  Pd1       1.0  0.00000  0.00000  0.00000  1.0000
  Rh  Rh1       1.0  0.99596  0.59258  0.00184  1.0000
  Rh  Rh2       1.0  0.00404  0.40742  0.99816  1.0000
