data_image0
_chemical_formula_structural       C4H6C4H6N4C4O8NiRh2
_chemical_formula_sum              "C12 H12 N4 O8 Ni1 Rh2"
_cell_length_a       12.6687
_cell_length_b       12.8404
_cell_length_c       14.6399
_cell_angle_alpha    84.405
_cell_angle_beta     67.765
_cell_angle_gamma    70.795

_space_group_name_H-M_alt    "P 1"
_space_group_IT_number       1

loop_
  _space_group_symop_operation_xyz
  'x, y, z'

loop_
  _atom_site_type_symbol
  _atom_site_label
  _atom_site_symmetry_multiplicity
  _atom_site_fract_x
  _atom_site_fract_y
  _atom_site_fract_z
  _atom_site_occupancy
  C   C1        1.0  0.09440  0.45720  0.13460  1.0000
  C   C2        1.0  0.90560  0.54280  0.86540  1.0000
  C   C3        1.0  0.15740  0.43160  0.20500  1.0000
  C   C4        1.0  0.84260  0.56840  0.79500  1.0000
  H   H1        1.0  0.12400  0.38480  0.25500  1.0000
  H   H2        1.0  0.87600  0.61520  0.74500  1.0000
  H   H3        1.0  0.14780  0.49880  0.23530  1.0000
  H   H4        1.0  0.85220  0.50120  0.76470  1.0000
  H   H5        1.0  0.24140  0.39440  0.17040  1.0000
  H   H6        1.0  0.75860  0.60560  0.82960  1.0000
  C   C5        1.0  0.78060  0.54900  0.13090  1.0000
  C   C6        1.0  0.21940  0.45100  0.86910  1.0000
  C   C7        1.0  0.65370  0.58020  0.20190  1.0000
  C   C8        1.0  0.34630  0.41980  0.79810  1.0000
  H   H7        1.0  0.62270  0.65880  0.21310  1.0000
  H   H8        1.0  0.37730  0.34120  0.78690  1.0000
  H   H9        1.0  0.65070  0.54460  0.26320  1.0000
  H   H10       1.0  0.34930  0.45540  0.73680  1.0000
  H   H11       1.0  0.60610  0.55740  0.17510  1.0000
  H   H12       1.0  0.39390  0.44260  0.82490  1.0000
  N   N1        1.0  0.99340  0.77220  0.00230  1.0000
  N   N2        1.0  0.00660  0.22780  0.99770  1.0000
  N   N3        1.0  0.22630  0.94310  0.82090  1.0000
  N   N4        1.0  0.77370  0.05690  0.17910  1.0000
  C   C9        1.0  0.99530  0.85430  0.00230  1.0000
  C   C10       1.0  0.00470  0.14570  0.99770  1.0000
  C   C11       1.0  0.14100  0.96560  0.88990  1.0000
  C   C12       1.0  0.85900  0.03440  0.11010  1.0000
  O   O1        1.0  0.06910  0.55460  0.10680  1.0000
  O   O2        1.0  0.93090  0.44540  0.89320  1.0000
  O   O3        1.0  0.07940  0.37760  0.10250  1.0000
  O   O4        1.0  0.92060  0.62240  0.89750  1.0000
  O   O5        1.0  0.82890  0.62590  0.10520  1.0000
  O   O6        1.0  0.17110  0.37410  0.89480  1.0000
  O   O7        1.0  0.83430  0.44910  0.10320  1.0000
  O   O8        1.0  0.16570  0.55090  0.89680  1.0000
  Ni  Ni1       1.0  1.00000  0.00000  0.00000  1.0000
  Rh  Rh1       1.0  0.99578  0.59440  0.00108  1.0000
  Rh  Rh2       1.0  0.00422  0.40560  0.99892  1.0000
