data_image0
_chemical_formula_structural       C8H4C4H4C8H4C4H4C4H4C4H4C4H4C4H4Cu4H8N24O20S4C4H4C4H4C4H4C4H4C4H4C4H4C8H4C4H4C4Cu4H8N24O20S4
_chemical_formula_sum              "C80 H80 Cu8 N48 O40 S8"
_cell_length_a       12.352
_cell_length_b       28.877
_cell_length_c       7.727
_cell_angle_alpha    90
_cell_angle_beta     101.214
_cell_angle_gamma    90

_space_group_name_H-M_alt    "P 1"
_space_group_IT_number       1

loop_
  _space_group_symop_operation_xyz
  'x, y, z'

loop_
  _atom_site_type_symbol
  _atom_site_label
  _atom_site_symmetry_multiplicity
  _atom_site_fract_x
  _atom_site_fract_y
  _atom_site_fract_z
  _atom_site_occupancy
  C   C1        1.0  0.05950  0.01386  0.80400  1.0000
  C   C2        1.0  0.94050  0.51386  0.69600  1.0000
  C   C3        1.0  0.94050  0.98614  0.19600  1.0000
  C   C4        1.0  0.05950  0.48614  0.30400  1.0000
  C   C5        1.0  0.05080  0.05950  0.74920  1.0000
  C   C6        1.0  0.94920  0.55950  0.75080  1.0000
  C   C7        1.0  0.94920  0.94050  0.25080  1.0000
  C   C8        1.0  0.05080  0.44050  0.24920  1.0000
  H   H1        1.0  0.10660  0.08070  0.79040  1.0000
  H   H2        1.0  0.89340  0.58070  0.70960  1.0000
  H   H3        1.0  0.89340  0.91930  0.20960  1.0000
  H   H4        1.0  0.10660  0.41930  0.29040  1.0000
  C   C9        1.0  0.95930  0.07240  0.63460  1.0000
  C   C10       1.0  0.04070  0.57240  0.86540  1.0000
  C   C11       1.0  0.04070  0.92760  0.36540  1.0000
  C   C12       1.0  0.95930  0.42760  0.13460  1.0000
  H   H5        1.0  0.94960  0.10260  0.59290  1.0000
  H   H6        1.0  0.05040  0.60260  0.90710  1.0000
  H   H7        1.0  0.05040  0.89740  0.40710  1.0000
  H   H8        1.0  0.94960  0.39740  0.09290  1.0000
  C   C13       1.0  0.87970  0.03835  0.58130  1.0000
  C   C14       1.0  0.12030  0.53835  0.91870  1.0000
  C   C15       1.0  0.12030  0.96165  0.41870  1.0000
  C   C16       1.0  0.87970  0.46165  0.08130  1.0000
  C   C17       1.0  0.74740  0.09261  0.39520  1.0000
  C   C18       1.0  0.25260  0.59261  0.10480  1.0000
  C   C19       1.0  0.25260  0.90739  0.60480  1.0000
  C   C20       1.0  0.74740  0.40739  0.89520  1.0000
  H   H9        1.0  0.78700  0.12010  0.41500  1.0000
  H   H10       1.0  0.21300  0.62010  0.08500  1.0000
  H   H11       1.0  0.21300  0.87990  0.58500  1.0000
  H   H12       1.0  0.78700  0.37990  0.91500  1.0000
  C   C21       1.0  0.64780  0.08691  0.29480  1.0000
  C   C22       1.0  0.35220  0.58691  0.20520  1.0000
  C   C23       1.0  0.35220  0.91309  0.70520  1.0000
  C   C24       1.0  0.64780  0.41309  0.79480  1.0000
  H   H13       1.0  0.60590  0.11030  0.23140  1.0000
  H   H14       1.0  0.39410  0.61030  0.26860  1.0000
  H   H15       1.0  0.39410  0.88970  0.76860  1.0000
  H   H16       1.0  0.60590  0.38970  0.73140  1.0000
  C   C25       1.0  0.69710  0.01975  0.40180  1.0000
  C   C26       1.0  0.30290  0.51975  0.09820  1.0000
  C   C27       1.0  0.30290  0.98025  0.59820  1.0000
  C   C28       1.0  0.69710  0.48025  0.90180  1.0000
  H   H17       1.0  0.69740  0.98830  0.42860  1.0000
  H   H18       1.0  0.30260  0.48830  0.07140  1.0000
  H   H19       1.0  0.30260  0.01170  0.57140  1.0000
  H   H20       1.0  0.69740  0.51170  0.92860  1.0000
  C   C29       1.0  0.24290  0.02128  0.99650  1.0000
  C   C30       1.0  0.75710  0.52128  0.50350  1.0000
  C   C31       1.0  0.75710  0.97872  0.00350  1.0000
  C   C32       1.0  0.24290  0.47872  0.49650  1.0000
  H   H21       1.0  0.25330  0.05250  0.97600  1.0000
  H   H22       1.0  0.74670  0.55250  0.52400  1.0000
  H   H23       1.0  0.74670  0.94750  0.02400  1.0000
  H   H24       1.0  0.25330  0.44750  0.47600  1.0000
  C   C33       1.0  0.26790  0.95120  0.09320  1.0000
  C   C34       1.0  0.73210  0.45120  0.40680  1.0000
  C   C35       1.0  0.73210  0.04880  0.90680  1.0000
  C   C36       1.0  0.26790  0.54880  0.59320  1.0000
  H   H25       1.0  0.30050  0.92530  0.15350  1.0000
  H   H26       1.0  0.69950  0.42530  0.34650  1.0000
  H   H27       1.0  0.69950  0.07470  0.84650  1.0000
  H   H28       1.0  0.30050  0.57470  0.65350  1.0000
  C   C37       1.0  0.16830  0.95188  0.98600  1.0000
  C   C38       1.0  0.83170  0.45188  0.51400  1.0000
  C   C39       1.0  0.83170  0.04812  0.01400  1.0000
  C   C40       1.0  0.16830  0.54812  0.48600  1.0000
  H   H29       1.0  0.11990  0.92710  0.95890  1.0000
  H   H30       1.0  0.88010  0.42710  0.54110  1.0000
  H   H31       1.0  0.88010  0.07290  0.04110  1.0000
  H   H32       1.0  0.11990  0.57290  0.45890  1.0000
  Cu  Cu1       1.0  0.46764  0.01668  0.19114  1.0000
  Cu  Cu2       1.0  0.53236  0.51668  0.30886  1.0000
  Cu  Cu3       1.0  0.53236  0.98332  0.80886  1.0000
  Cu  Cu4       1.0  0.46764  0.48332  0.69114  1.0000
  H   H33       1.0  0.44600  0.07400  0.41100  1.0000
  H   H34       1.0  0.55400  0.57400  0.08900  1.0000
  H   H35       1.0  0.55400  0.92600  0.58900  1.0000
  H   H36       1.0  0.44600  0.42600  0.91100  1.0000
  H   H37       1.0  0.34350  0.07460  0.31000  1.0000
  H   H38       1.0  0.65650  0.57460  0.19000  1.0000
  H   H39       1.0  0.65650  0.92540  0.69000  1.0000
  H   H40       1.0  0.34350  0.42540  0.81000  1.0000
  N   N1        1.0  0.98300  0.98281  0.74850  1.0000
  N   N2        1.0  0.01700  0.48281  0.75150  1.0000
  N   N3        1.0  0.01700  0.01719  0.25150  1.0000
  N   N4        1.0  0.98300  0.51719  0.24850  1.0000
  N   N5        1.0  0.89150  0.99513  0.63470  1.0000
  N   N6        1.0  0.10850  0.49513  0.86530  1.0000
  N   N7        1.0  0.10850  0.00487  0.36530  1.0000
  N   N8        1.0  0.89150  0.50487  0.13470  1.0000
  N   N9        1.0  0.78060  0.04921  0.46480  1.0000
  N   N10       1.0  0.21940  0.54921  0.03520  1.0000
  N   N11       1.0  0.21940  0.95079  0.53520  1.0000
  N   N12       1.0  0.78060  0.45079  0.96480  1.0000
  N   N13       1.0  0.61590  0.04097  0.29880  1.0000
  N   N14       1.0  0.38410  0.54097  0.20120  1.0000
  N   N15       1.0  0.38410  0.95903  0.70120  1.0000
  N   N16       1.0  0.61590  0.45903  0.79880  1.0000
  N   N17       1.0  0.31450  0.99490  0.10010  1.0000
  N   N18       1.0  0.68550  0.49490  0.39990  1.0000
  N   N19       1.0  0.68550  0.00510  0.89990  1.0000
  N   N20       1.0  0.31450  0.50510  0.60010  1.0000
  N   N21       1.0  0.15210  0.99674  0.92390  1.0000
  N   N22       1.0  0.84790  0.49674  0.57610  1.0000
  N   N23       1.0  0.84790  0.00326  0.07610  1.0000
  N   N24       1.0  0.15210  0.50326  0.42390  1.0000
  O   O1        1.0  0.66460  0.90935  0.27010  1.0000
  O   O2        1.0  0.33540  0.40935  0.22990  1.0000
  O   O3        1.0  0.33540  0.09065  0.72990  1.0000
  O   O4        1.0  0.66460  0.59065  0.77010  1.0000
  O   O5        1.0  0.49530  0.92941  0.36540  1.0000
  O   O6        1.0  0.50470  0.42941  0.13460  1.0000
  O   O7        1.0  0.50470  0.07059  0.63460  1.0000
  O   O8        1.0  0.49530  0.57059  0.86540  1.0000
  O   O9        1.0  0.48910  0.88094  0.11050  1.0000
  O   O10       1.0  0.51090  0.38094  0.38950  1.0000
  O   O11       1.0  0.51090  0.11906  0.88950  1.0000
  O   O12       1.0  0.48910  0.61906  0.61050  1.0000
  O   O13       1.0  0.53150  0.96150  0.09960  1.0000
  O   O14       1.0  0.46850  0.46150  0.40040  1.0000
  O   O15       1.0  0.46850  0.03850  0.90040  1.0000
  O   O16       1.0  0.53150  0.53850  0.59960  1.0000
  O   O17       1.0  0.41110  0.07092  0.30330  1.0000
  O   O18       1.0  0.58890  0.57092  0.19670  1.0000
  O   O19       1.0  0.58890  0.92908  0.69670  1.0000
  O   O20       1.0  0.41110  0.42908  0.80330  1.0000
  S   S1        1.0  0.54647  0.91829  0.21386  1.0000
  S   S2        1.0  0.45353  0.41829  0.28614  1.0000
  S   S3        1.0  0.45353  0.08171  0.78614  1.0000
  S   S4        1.0  0.54647  0.58171  0.71386  1.0000
  C   C41       1.0  0.34580  0.17109  0.07930  1.0000
  C   C42       1.0  0.65420  0.67109  0.42070  1.0000
  C   C43       1.0  0.65420  0.82891  0.92070  1.0000
  C   C44       1.0  0.34580  0.32891  0.57930  1.0000
  H   H41       1.0  0.40890  0.15730  0.05400  1.0000
  H   H42       1.0  0.59110  0.65730  0.44600  1.0000
  H   H43       1.0  0.59110  0.84270  0.94600  1.0000
  H   H44       1.0  0.40890  0.34270  0.55400  1.0000
  C   C45       1.0  0.24800  0.17508  0.97080  1.0000
  C   C46       1.0  0.75200  0.67508  0.52920  1.0000
  C   C47       1.0  0.75200  0.82492  0.02920  1.0000
  C   C48       1.0  0.24800  0.32492  0.47080  1.0000
  H   H45       1.0  0.23180  0.16440  0.85510  1.0000
  H   H46       1.0  0.76820  0.66440  0.64490  1.0000
  H   H47       1.0  0.76820  0.83560  0.14490  1.0000
  H   H48       1.0  0.23180  0.33560  0.35510  1.0000
  C   C49       1.0  0.22900  0.20666  0.21590  1.0000
  C   C50       1.0  0.77100  0.70666  0.28410  1.0000
  C   C51       1.0  0.77100  0.79334  0.78410  1.0000
  C   C52       1.0  0.22900  0.29334  0.71590  1.0000
  H   H49       1.0  0.19940  0.22150  0.30290  1.0000
  H   H50       1.0  0.80060  0.72150  0.19710  1.0000
  H   H51       1.0  0.80060  0.77850  0.69710  1.0000
  H   H52       1.0  0.19940  0.27850  0.80290  1.0000
  C   C53       1.0  0.78300  0.20057  0.06050  1.0000
  C   C54       1.0  0.21700  0.70057  0.43950  1.0000
  C   C55       1.0  0.21700  0.79943  0.93950  1.0000
  C   C56       1.0  0.78300  0.29943  0.56050  1.0000
  H   H53       1.0  0.80900  0.20170  0.18170  1.0000
  H   H54       1.0  0.19100  0.70170  0.31830  1.0000
  H   H55       1.0  0.19100  0.79830  0.81830  1.0000
  H   H56       1.0  0.80900  0.29830  0.68170  1.0000
  C   C57       1.0  0.78050  0.19877  0.78160  1.0000
  C   C58       1.0  0.21950  0.69877  0.71840  1.0000
  C   C59       1.0  0.21950  0.80123  0.21840  1.0000
  C   C60       1.0  0.78050  0.30123  0.28160  1.0000
  H   H57       1.0  0.80250  0.19830  0.67320  1.0000
  H   H58       1.0  0.19750  0.69830  0.82680  1.0000
  H   H59       1.0  0.19750  0.80170  0.32680  1.0000
  H   H60       1.0  0.80250  0.30170  0.17320  1.0000
  C   C61       1.0  0.67660  0.19857  0.98200  1.0000
  C   C62       1.0  0.32340  0.69857  0.51800  1.0000
  C   C63       1.0  0.32340  0.80143  0.01800  1.0000
  C   C64       1.0  0.67660  0.30143  0.48200  1.0000
  H   H61       1.0  0.61610  0.19800  0.03730  1.0000
  H   H62       1.0  0.38390  0.69800  0.46270  1.0000
  H   H63       1.0  0.38390  0.80200  0.96270  1.0000
  H   H64       1.0  0.61610  0.30200  0.53730  1.0000
  C   C65       1.0  0.58090  0.19709  0.66480  1.0000
  C   C66       1.0  0.41910  0.69709  0.83520  1.0000
  C   C67       1.0  0.41910  0.80291  0.33520  1.0000
  C   C68       1.0  0.58090  0.30291  0.16480  1.0000
  C   C69       1.0  0.47510  0.20348  0.69630  1.0000
  C   C70       1.0  0.52490  0.70348  0.80370  1.0000
  C   C71       1.0  0.52490  0.79652  0.30370  1.0000
  C   C72       1.0  0.47510  0.29652  0.19630  1.0000
  H   H65       1.0  0.46310  0.20910  0.80960  1.0000
  H   H66       1.0  0.53690  0.70910  0.69040  1.0000
  H   H67       1.0  0.53690  0.79090  0.19040  1.0000
  H   H68       1.0  0.46310  0.29090  0.30960  1.0000
  C   C73       1.0  0.39010  0.20131  0.55680  1.0000
  C   C74       1.0  0.60990  0.70131  0.94320  1.0000
  C   C75       1.0  0.60990  0.79869  0.44320  1.0000
  C   C76       1.0  0.39010  0.29869  0.05680  1.0000
  H   H69       1.0  0.31730  0.20440  0.57050  1.0000
  H   H70       1.0  0.68270  0.70440  0.92950  1.0000
  H   H71       1.0  0.68270  0.79560  0.42950  1.0000
  H   H72       1.0  0.31730  0.29560  0.07050  1.0000
  C   C77       1.0  0.41660  0.19425  0.39230  1.0000
  C   C78       1.0  0.58340  0.69425  0.10770  1.0000
  C   C79       1.0  0.58340  0.80575  0.60770  1.0000
  C   C80       1.0  0.41660  0.30575  0.89230  1.0000
  Cu  Cu5       1.0  0.01151  0.20199  0.98719  1.0000
  Cu  Cu6       1.0  0.98849  0.70199  0.51281  1.0000
  Cu  Cu7       1.0  0.98849  0.79802  0.01281  1.0000
  Cu  Cu8       1.0  0.01151  0.29801  0.48719  1.0000
  H   H73       1.0  0.06300  0.12830  0.20900  1.0000
  H   H74       1.0  0.93700  0.62830  0.29100  1.0000
  H   H75       1.0  0.93700  0.87170  0.79100  1.0000
  H   H76       1.0  0.06300  0.37170  0.70900  1.0000
  H   H77       1.0  0.98600  0.15450  0.26500  1.0000
  H   H78       1.0  0.01400  0.65450  0.23500  1.0000
  H   H79       1.0  0.01400  0.84550  0.73500  1.0000
  H   H80       1.0  0.98600  0.34550  0.76500  1.0000
  N   N25       1.0  0.33470  0.19143  0.23660  1.0000
  N   N26       1.0  0.66530  0.69143  0.26340  1.0000
  N   N27       1.0  0.66530  0.80857  0.76340  1.0000
  N   N28       1.0  0.33470  0.30857  0.73660  1.0000
  N   N29       1.0  0.17420  0.19762  0.05630  1.0000
  N   N30       1.0  0.82580  0.69762  0.44370  1.0000
  N   N31       1.0  0.82580  0.80238  0.94370  1.0000
  N   N32       1.0  0.17420  0.30238  0.55630  1.0000
  N   N33       1.0  0.84810  0.20069  0.93500  1.0000
  N   N34       1.0  0.15190  0.70069  0.56500  1.0000
  N   N35       1.0  0.15190  0.79931  0.06500  1.0000
  N   N36       1.0  0.84810  0.29931  0.43500  1.0000
  N   N37       1.0  0.67430  0.19751  0.80280  1.0000
  N   N38       1.0  0.32570  0.69751  0.69720  1.0000
  N   N39       1.0  0.32570  0.80249  0.19720  1.0000
  N   N40       1.0  0.67430  0.30249  0.30280  1.0000
  N   N41       1.0  0.60220  0.19033  0.50590  1.0000
  N   N42       1.0  0.39780  0.69033  0.99410  1.0000
  N   N43       1.0  0.39780  0.80967  0.49410  1.0000
  N   N44       1.0  0.60220  0.30967  0.00590  1.0000
  N   N45       1.0  0.51870  0.18918  0.36590  1.0000
  N   N46       1.0  0.48130  0.68918  0.13410  1.0000
  N   N47       1.0  0.48130  0.81082  0.63410  1.0000
  N   N48       1.0  0.51870  0.31082  0.86590  1.0000
  O   O21       1.0  0.00190  0.14110  0.17870  1.0000
  O   O22       1.0  0.99810  0.64110  0.32130  1.0000
  O   O23       1.0  0.99810  0.85890  0.82130  1.0000
  O   O24       1.0  0.00190  0.35890  0.67870  1.0000
  O   O25       1.0  0.00980  0.25465  0.15290  1.0000
  O   O26       1.0  0.99020  0.75465  0.34710  1.0000
  O   O27       1.0  0.99020  0.74535  0.84710  1.0000
  O   O28       1.0  0.00980  0.24535  0.65290  1.0000
  O   O29       1.0  0.12740  0.31146  0.05040  1.0000
  O   O30       1.0  0.87260  0.81146  0.44960  1.0000
  O   O31       1.0  0.87260  0.68854  0.94960  1.0000
  O   O32       1.0  0.12740  0.18854  0.55040  1.0000
  O   O33       1.0  0.93000  0.31829  0.96510  1.0000
  O   O34       1.0  0.07000  0.81829  0.53490  1.0000
  O   O35       1.0  0.07000  0.68171  0.03490  1.0000
  O   O36       1.0  0.93000  0.18171  0.46510  1.0000
  O   O37       1.0  0.01780  0.33122  0.26540  1.0000
  O   O38       1.0  0.98220  0.83122  0.23460  1.0000
  O   O39       1.0  0.98220  0.66878  0.73460  1.0000
  O   O40       1.0  0.01780  0.16878  0.76540  1.0000
  S   S5        1.0  0.02266  0.30401  0.10327  1.0000
  S   S6        1.0  0.97734  0.80401  0.39673  1.0000
  S   S7        1.0  0.97734  0.69599  0.89673  1.0000
  S   S8        1.0  0.02266  0.19599  0.60327  1.0000
