data_image0
_chemical_formula_structural       O8C8H4Ho2O18H4O4H4O4H4C4N4C4H4C12H4N4C20H4C4H4C8H4C4
_chemical_formula_sum              "O34 C64 H36 Ho2 N8"
_cell_length_a       7.6609
_cell_length_b       21.518
_cell_length_c       12.258
_cell_angle_alpha    90
_cell_angle_beta     98.82
_cell_angle_gamma    90

_space_group_name_H-M_alt    "P 1"
_space_group_IT_number       1

loop_
  _space_group_symop_operation_xyz
  'x, y, z'

loop_
  _atom_site_type_symbol
  _atom_site_label
  _atom_site_symmetry_multiplicity
  _atom_site_fract_x
  _atom_site_fract_y
  _atom_site_fract_z
  _atom_site_occupancy
  O   O1        1.0  0.70800  0.68660  0.15360  1.0000
  O   O2        1.0  0.29200  0.18660  0.84640  1.0000
  O   O3        1.0  0.29200  0.31340  0.84640  1.0000
  O   O4        1.0  0.70800  0.81340  0.15360  1.0000
  O   O5        1.0  0.73840  0.66570  0.32540  1.0000
  O   O6        1.0  0.26160  0.16570  0.67460  1.0000
  O   O7        1.0  0.26160  0.33430  0.67460  1.0000
  O   O8        1.0  0.73840  0.83430  0.32540  1.0000
  C   C1        1.0  0.67000  0.65470  0.22870  1.0000
  C   C2        1.0  0.33000  0.15470  0.77130  1.0000
  C   C3        1.0  0.33000  0.34530  0.77130  1.0000
  C   C4        1.0  0.67000  0.84530  0.22870  1.0000
  C   C5        1.0  0.56800  0.54620  0.26880  1.0000
  C   C6        1.0  0.43200  0.04620  0.73120  1.0000
  C   C7        1.0  0.43200  0.45380  0.73120  1.0000
  C   C8        1.0  0.56800  0.95380  0.26880  1.0000
  H   H1        1.0  0.63680  0.54830  0.33810  1.0000
  H   H2        1.0  0.36320  0.04830  0.66190  1.0000
  H   H3        1.0  0.36320  0.45170  0.66190  1.0000
  H   H4        1.0  0.63680  0.95170  0.33810  1.0000
  Ho  Ho1       1.0  0.08415  0.25000  0.73279  1.0000
  Ho  Ho2       1.0  0.91585  0.75000  0.26721  1.0000
  O   O9        1.0  0.70490  0.36700  0.55700  1.0000
  O   O10       1.0  0.29510  0.86700  0.44300  1.0000
  O   O11       1.0  0.29510  0.63300  0.44300  1.0000
  O   O12       1.0  0.70490  0.13300  0.55700  1.0000
  O   O13       1.0  0.42660  0.38680  0.28440  1.0000
  O   O14       1.0  0.57340  0.88680  0.71560  1.0000
  O   O15       1.0  0.57340  0.61320  0.71560  1.0000
  O   O16       1.0  0.42660  0.11320  0.28440  1.0000
  O   O17       1.0  0.97840  0.64840  0.60290  1.0000
  O   O18       1.0  0.02160  0.14840  0.39710  1.0000
  O   O19       1.0  0.02160  0.35160  0.39710  1.0000
  O   O20       1.0  0.97840  0.85160  0.60290  1.0000
  O   O21       1.0  0.87660  0.32430  0.69760  1.0000
  O   O22       1.0  0.12340  0.82430  0.30240  1.0000
  O   O23       1.0  0.12340  0.67570  0.30240  1.0000
  O   O24       1.0  0.87660  0.17570  0.69760  1.0000
  O   O25       1.0  0.02990  0.25000  0.53560  1.0000
  O   O26       1.0  0.97010  0.75000  0.46440  1.0000
  H   H5        1.0  0.05200  0.21780  0.50000  1.0000
  H   H6        1.0  0.94800  0.71780  0.50000  1.0000
  H   H7        1.0  0.94800  0.78220  0.50000  1.0000
  H   H8        1.0  0.05200  0.28220  0.50000  1.0000
  O   O27       1.0  0.78690  0.58900  0.49320  1.0000
  O   O28       1.0  0.21310  0.08900  0.50680  1.0000
  O   O29       1.0  0.21310  0.41100  0.50680  1.0000
  O   O30       1.0  0.78690  0.91100  0.49320  1.0000
  H   H9        1.0  0.79810  0.61490  0.44560  1.0000
  H   H10       1.0  0.20190  0.11490  0.55440  1.0000
  H   H11       1.0  0.20190  0.38510  0.55440  1.0000
  H   H12       1.0  0.79810  0.88510  0.44560  1.0000
  O   O31       1.0  0.59350  0.44830  0.40260  1.0000
  O   O32       1.0  0.40650  0.94830  0.59740  1.0000
  O   O33       1.0  0.40650  0.55170  0.59740  1.0000
  O   O34       1.0  0.59350  0.05170  0.40260  1.0000
  H   H13       1.0  0.59250  0.41860  0.44430  1.0000
  H   H14       1.0  0.40750  0.91860  0.55570  1.0000
  H   H15       1.0  0.40750  0.58140  0.55570  1.0000
  H   H16       1.0  0.59250  0.08140  0.44430  1.0000
  C   C9        1.0  0.81630  0.37070  0.64130  1.0000
  C   C10       1.0  0.18370  0.87070  0.35870  1.0000
  C   C11       1.0  0.18370  0.62930  0.35870  1.0000
  C   C12       1.0  0.81630  0.12930  0.64130  1.0000
  N   N1        1.0  0.16540  0.49350  0.93020  1.0000
  N   N2        1.0  0.83460  0.99350  0.06980  1.0000
  N   N3        1.0  0.83460  0.50650  0.06980  1.0000
  N   N4        1.0  0.16540  0.00650  0.93020  1.0000
  C   C13       1.0  0.85910  0.48650  0.61740  1.0000
  C   C14       1.0  0.14090  0.98650  0.38260  1.0000
  C   C15       1.0  0.14090  0.51350  0.38260  1.0000
  C   C16       1.0  0.85910  0.01350  0.61740  1.0000
  H   H17       1.0  0.78960  0.48400  0.54840  1.0000
  H   H18       1.0  0.21040  0.98400  0.45160  1.0000
  H   H19       1.0  0.21040  0.51600  0.45160  1.0000
  H   H20       1.0  0.78960  0.01600  0.54840  1.0000
  C   C17       1.0  0.88770  0.43340  0.68260  1.0000
  C   C18       1.0  0.11230  0.93340  0.31740  1.0000
  C   C19       1.0  0.11230  0.56660  0.31740  1.0000
  C   C20       1.0  0.88770  0.06660  0.68260  1.0000
  C   C21       1.0  0.90450  0.59960  0.58150  1.0000
  C   C22       1.0  0.09550  0.09960  0.41850  1.0000
  C   C23       1.0  0.09550  0.40040  0.41850  1.0000
  C   C24       1.0  0.90450  0.90040  0.58150  1.0000
  C   C25       1.0  0.03690  0.54780  0.75740  1.0000
  C   C26       1.0  0.96310  0.04780  0.24260  1.0000
  C   C27       1.0  0.96310  0.45220  0.24260  1.0000
  C   C28       1.0  0.03690  0.95220  0.75740  1.0000
  H   H21       1.0  0.08920  0.58540  0.78140  1.0000
  H   H22       1.0  0.91080  0.08540  0.21860  1.0000
  H   H23       1.0  0.91080  0.41460  0.21860  1.0000
  H   H24       1.0  0.08920  0.91460  0.78140  1.0000
  N   N5        1.0  0.25040  0.54300  0.95690  1.0000
  N   N6        1.0  0.74960  0.04300  0.04310  1.0000
  N   N7        1.0  0.74960  0.45700  0.04310  1.0000
  N   N8        1.0  0.25040  0.95700  0.95690  1.0000
  C   C29       1.0  0.49480  0.43630  0.30920  1.0000
  C   C30       1.0  0.50520  0.93630  0.69080  1.0000
  C   C31       1.0  0.50520  0.56370  0.69080  1.0000
  C   C32       1.0  0.49480  0.06370  0.30920  1.0000
  C   C33       1.0  0.06100  0.49550  0.82390  1.0000
  C   C34       1.0  0.93900  0.99550  0.17610  1.0000
  C   C35       1.0  0.93900  0.50450  0.17610  1.0000
  C   C36       1.0  0.06100  0.00450  0.82390  1.0000
  C   C37       1.0  0.93310  0.54310  0.65410  1.0000
  C   C38       1.0  0.06690  0.04310  0.34590  1.0000
  C   C39       1.0  0.06690  0.45690  0.34590  1.0000
  C   C40       1.0  0.93310  0.95690  0.65410  1.0000
  C   C41       1.0  0.47600  0.49180  0.23490  1.0000
  C   C42       1.0  0.52400  0.99180  0.76510  1.0000
  C   C43       1.0  0.52400  0.50820  0.76510  1.0000
  C   C44       1.0  0.47600  0.00820  0.23490  1.0000
  C   C45       1.0  0.98600  0.43890  0.78740  1.0000
  C   C46       1.0  0.01400  0.93890  0.21260  1.0000
  C   C47       1.0  0.01400  0.56110  0.21260  1.0000
  C   C48       1.0  0.98600  0.06110  0.78740  1.0000
  H   H25       1.0  0.00170  0.40440  0.83360  1.0000
  H   H26       1.0  0.99830  0.90440  0.16640  1.0000
  H   H27       1.0  0.99830  0.59560  0.16640  1.0000
  H   H28       1.0  0.00170  0.09560  0.83360  1.0000
  C   C49       1.0  0.37000  0.48900  0.13240  1.0000
  C   C50       1.0  0.63000  0.98900  0.86760  1.0000
  C   C51       1.0  0.63000  0.51100  0.86760  1.0000
  C   C52       1.0  0.37000  0.01100  0.13240  1.0000
  H   H29       1.0  0.30930  0.45260  0.11000  1.0000
  H   H30       1.0  0.69070  0.95260  0.89000  1.0000
  H   H31       1.0  0.69070  0.54740  0.89000  1.0000
  H   H32       1.0  0.30930  0.04740  0.11000  1.0000
  C   C53       1.0  0.35520  0.54000  0.06440  1.0000
  C   C54       1.0  0.64480  0.04000  0.93560  1.0000
  C   C55       1.0  0.64480  0.46000  0.93560  1.0000
  C   C56       1.0  0.35520  0.96000  0.06440  1.0000
  C   C57       1.0  0.45400  0.59430  0.09490  1.0000
  C   C58       1.0  0.54600  0.09430  0.90510  1.0000
  C   C59       1.0  0.54600  0.40570  0.90510  1.0000
  C   C60       1.0  0.45400  0.90570  0.09490  1.0000
  H   H33       1.0  0.45040  0.62760  0.04620  1.0000
  H   H34       1.0  0.54960  0.12760  0.95380  1.0000
  H   H35       1.0  0.54960  0.37240  0.95380  1.0000
  H   H36       1.0  0.45040  0.87240  0.04620  1.0000
  C   C61       1.0  0.55590  0.59750  0.19810  1.0000
  C   C62       1.0  0.44410  0.09750  0.80190  1.0000
  C   C63       1.0  0.44410  0.40250  0.80190  1.0000
  C   C64       1.0  0.55590  0.90250  0.19810  1.0000
