data_image0
_chemical_formula_structural       Co4O8Co8O8C8O8C72O16C32O8C56O8C8O8C48H128
_chemical_formula_sum              "Co12 O64 C224 H128"
_cell_length_a       26.0986
_cell_length_b       22.3068
_cell_length_c       13.8496
_cell_angle_alpha    90
_cell_angle_beta     90
_cell_angle_gamma    90

_space_group_name_H-M_alt    "P 1"
_space_group_IT_number       1

loop_
  _space_group_symop_operation_xyz
  'x, y, z'

loop_
  _atom_site_type_symbol
  _atom_site_label
  _atom_site_symmetry_multiplicity
  _atom_site_fract_x
  _atom_site_fract_y
  _atom_site_fract_z
  _atom_site_occupancy
  Co  Co1       1.0  0.40697  0.25000  0.25000  1.0000
  Co  Co2       1.0  0.09303  0.75000  0.25000  1.0000
  Co  Co3       1.0  0.59303  0.75000  0.75000  1.0000
  Co  Co4       1.0  0.90697  0.25000  0.75000  1.0000
  O   O1        1.0  0.40899  0.32136  0.35178  1.0000
  O   O2        1.0  0.40899  0.17864  0.14822  1.0000
  O   O3        1.0  0.09101  0.82136  0.14822  1.0000
  O   O4        1.0  0.09101  0.67864  0.35178  1.0000
  O   O5        1.0  0.59101  0.67864  0.64822  1.0000
  O   O6        1.0  0.59101  0.82136  0.85178  1.0000
  O   O7        1.0  0.90899  0.17864  0.85178  1.0000
  O   O8        1.0  0.90899  0.32136  0.64822  1.0000
  Co  Co5       1.0  0.40757  0.40983  0.27397  1.0000
  Co  Co6       1.0  0.40757  0.09017  0.22603  1.0000
  Co  Co7       1.0  0.09243  0.90983  0.22603  1.0000
  Co  Co8       1.0  0.09243  0.59017  0.27397  1.0000
  Co  Co9       1.0  0.59243  0.59017  0.72603  1.0000
  Co  Co10      1.0  0.59243  0.90983  0.77397  1.0000
  Co  Co11      1.0  0.90757  0.09017  0.77397  1.0000
  Co  Co12      1.0  0.90757  0.40983  0.72603  1.0000
  O   O9        1.0  0.34322  0.38790  0.20555  1.0000
  O   O10       1.0  0.34322  0.11210  0.29445  1.0000
  O   O11       1.0  0.15678  0.88790  0.29445  1.0000
  O   O12       1.0  0.15678  0.61210  0.20555  1.0000
  O   O13       1.0  0.65678  0.61210  0.79445  1.0000
  O   O14       1.0  0.65678  0.88790  0.70555  1.0000
  O   O15       1.0  0.84322  0.11210  0.70555  1.0000
  O   O16       1.0  0.84322  0.38790  0.79445  1.0000
  C   C1        1.0  0.32857  0.33958  0.16990  1.0000
  C   C2        1.0  0.32857  0.16042  0.33010  1.0000
  C   C3        1.0  0.17143  0.83958  0.33010  1.0000
  C   C4        1.0  0.17143  0.66042  0.16990  1.0000
  C   C5        1.0  0.67143  0.66042  0.83010  1.0000
  C   C6        1.0  0.67143  0.83958  0.66990  1.0000
  C   C7        1.0  0.82857  0.16042  0.66990  1.0000
  C   C8        1.0  0.82857  0.33958  0.83010  1.0000
  O   O17       1.0  0.35089  0.29094  0.17234  1.0000
  O   O18       1.0  0.35089  0.20906  0.32766  1.0000
  O   O19       1.0  0.14911  0.79094  0.32766  1.0000
  O   O20       1.0  0.14911  0.70906  0.17234  1.0000
  O   O21       1.0  0.64911  0.70906  0.82766  1.0000
  O   O22       1.0  0.64911  0.79094  0.67234  1.0000
  O   O23       1.0  0.85089  0.20906  0.67234  1.0000
  O   O24       1.0  0.85089  0.29094  0.82766  1.0000
  C   C9        1.0  0.27812  0.34045  0.11630  1.0000
  C   C10       1.0  0.27812  0.15955  0.38370  1.0000
  C   C11       1.0  0.22188  0.84045  0.38370  1.0000
  C   C12       1.0  0.22188  0.65955  0.11630  1.0000
  C   C13       1.0  0.72188  0.65955  0.88370  1.0000
  C   C14       1.0  0.72188  0.84045  0.61630  1.0000
  C   C15       1.0  0.77812  0.15955  0.61630  1.0000
  C   C16       1.0  0.77812  0.34045  0.88370  1.0000
  C   C17       1.0  0.25235  0.39333  0.09970  1.0000
  C   C18       1.0  0.25235  0.10667  0.40030  1.0000
  C   C19       1.0  0.24765  0.89333  0.40030  1.0000
  C   C20       1.0  0.24765  0.60667  0.09970  1.0000
  C   C21       1.0  0.74765  0.60667  0.90030  1.0000
  C   C22       1.0  0.74765  0.89333  0.59970  1.0000
  C   C23       1.0  0.75235  0.10667  0.59970  1.0000
  C   C24       1.0  0.75235  0.39333  0.90030  1.0000
  C   C25       1.0  0.20611  0.39284  0.05130  1.0000
  C   C26       1.0  0.20611  0.10716  0.44870  1.0000
  C   C27       1.0  0.29389  0.89284  0.44870  1.0000
  C   C28       1.0  0.29389  0.60716  0.05130  1.0000
  C   C29       1.0  0.79389  0.60716  0.94870  1.0000
  C   C30       1.0  0.79389  0.89284  0.55130  1.0000
  C   C31       1.0  0.70611  0.10716  0.55130  1.0000
  C   C32       1.0  0.70611  0.39284  0.94870  1.0000
  C   C33       1.0  0.18397  0.34078  0.01830  1.0000
  C   C34       1.0  0.18397  0.15922  0.48170  1.0000
  C   C35       1.0  0.31603  0.84078  0.48170  1.0000
  C   C36       1.0  0.31603  0.65922  0.01830  1.0000
  C   C37       1.0  0.81603  0.65922  0.98170  1.0000
  C   C38       1.0  0.81603  0.84078  0.51830  1.0000
  C   C39       1.0  0.68397  0.15922  0.51830  1.0000
  C   C40       1.0  0.68397  0.34078  0.98170  1.0000
  C   C41       1.0  0.13338  0.34065  0.96880  1.0000
  C   C42       1.0  0.13338  0.15935  0.53120  1.0000
  C   C43       1.0  0.36662  0.84065  0.53120  1.0000
  C   C44       1.0  0.36662  0.65935  0.96880  1.0000
  C   C45       1.0  0.86662  0.65935  0.03120  1.0000
  C   C46       1.0  0.86662  0.84065  0.46880  1.0000
  C   C47       1.0  0.63338  0.15935  0.46880  1.0000
  C   C48       1.0  0.63338  0.34065  0.03120  1.0000
  C   C49       1.0  0.11841  0.38810  0.91130  1.0000
  C   C50       1.0  0.11841  0.11190  0.58870  1.0000
  C   C51       1.0  0.38159  0.88810  0.58870  1.0000
  C   C52       1.0  0.38159  0.61190  0.91130  1.0000
  C   C53       1.0  0.88159  0.61190  0.08870  1.0000
  C   C54       1.0  0.88159  0.88810  0.41130  1.0000
  C   C55       1.0  0.61841  0.11190  0.41130  1.0000
  C   C56       1.0  0.61841  0.38810  0.08870  1.0000
  C   C57       1.0  0.07096  0.38710  0.86550  1.0000
  C   C58       1.0  0.07096  0.11290  0.63450  1.0000
  C   C59       1.0  0.42904  0.88710  0.63450  1.0000
  C   C60       1.0  0.42904  0.61290  0.86550  1.0000
  C   C61       1.0  0.92904  0.61290  0.13450  1.0000
  C   C62       1.0  0.92904  0.88710  0.36550  1.0000
  C   C63       1.0  0.57096  0.11290  0.36550  1.0000
  C   C64       1.0  0.57096  0.38710  0.13450  1.0000
  C   C65       1.0  0.03805  0.33944  0.87710  1.0000
  C   C66       1.0  0.03805  0.16056  0.62290  1.0000
  C   C67       1.0  0.46195  0.83944  0.62290  1.0000
  C   C68       1.0  0.46195  0.66056  0.87710  1.0000
  C   C69       1.0  0.96195  0.66056  0.12290  1.0000
  C   C70       1.0  0.96195  0.83944  0.37710  1.0000
  C   C71       1.0  0.53805  0.16056  0.37710  1.0000
  C   C72       1.0  0.53805  0.33944  0.12290  1.0000
  C   C73       1.0  0.98624  0.33985  0.82810  1.0000
  C   C74       1.0  0.98624  0.16015  0.67190  1.0000
  C   C75       1.0  0.51376  0.83985  0.67190  1.0000
  C   C76       1.0  0.51376  0.66015  0.82810  1.0000
  C   C77       1.0  0.01376  0.66015  0.17190  1.0000
  C   C78       1.0  0.01376  0.83985  0.32810  1.0000
  C   C79       1.0  0.48624  0.16015  0.32810  1.0000
  C   C80       1.0  0.48624  0.33985  0.17190  1.0000
  O   O25       1.0  0.97184  0.38827  0.79136  1.0000
  O   O26       1.0  0.97184  0.11173  0.70864  1.0000
  O   O27       1.0  0.52816  0.88827  0.70864  1.0000
  O   O28       1.0  0.52816  0.61173  0.79136  1.0000
  O   O29       1.0  0.02816  0.61173  0.20864  1.0000
  O   O30       1.0  0.02816  0.88827  0.29136  1.0000
  O   O31       1.0  0.47184  0.11173  0.29136  1.0000
  O   O32       1.0  0.47184  0.38827  0.20864  1.0000
  O   O33       1.0  0.96338  0.29145  0.82859  1.0000
  O   O34       1.0  0.96338  0.20855  0.67141  1.0000
  O   O35       1.0  0.53662  0.79145  0.67141  1.0000
  O   O36       1.0  0.53662  0.70855  0.82859  1.0000
  O   O37       1.0  0.03662  0.70855  0.17141  1.0000
  O   O38       1.0  0.03662  0.79145  0.32859  1.0000
  O   O39       1.0  0.46338  0.20855  0.32859  1.0000
  O   O40       1.0  0.46338  0.29145  0.17141  1.0000
  C   C81       1.0  0.05395  0.29216  0.93120  1.0000
  C   C82       1.0  0.05395  0.20784  0.56880  1.0000
  C   C83       1.0  0.44605  0.79216  0.56880  1.0000
  C   C84       1.0  0.44605  0.70784  0.93120  1.0000
  C   C85       1.0  0.94605  0.70784  0.06880  1.0000
  C   C86       1.0  0.94605  0.79216  0.43120  1.0000
  C   C87       1.0  0.55395  0.20784  0.43120  1.0000
  C   C88       1.0  0.55395  0.29216  0.06880  1.0000
  C   C89       1.0  0.10027  0.29327  0.97810  1.0000
  C   C90       1.0  0.10027  0.20673  0.52190  1.0000
  C   C91       1.0  0.39973  0.79327  0.52190  1.0000
  C   C92       1.0  0.39973  0.70673  0.97810  1.0000
  C   C93       1.0  0.89973  0.70673  0.02190  1.0000
  C   C94       1.0  0.89973  0.79327  0.47810  1.0000
  C   C95       1.0  0.60027  0.20673  0.47810  1.0000
  C   C96       1.0  0.60027  0.29327  0.02190  1.0000
  C   C97       1.0  0.21071  0.28817  0.03320  1.0000
  C   C98       1.0  0.21071  0.21183  0.46680  1.0000
  C   C99       1.0  0.28929  0.78817  0.46680  1.0000
  C   C100      1.0  0.28929  0.71183  0.03320  1.0000
  C   C101      1.0  0.78929  0.71183  0.96680  1.0000
  C   C102      1.0  0.78929  0.78817  0.53320  1.0000
  C   C103      1.0  0.71071  0.21183  0.53320  1.0000
  C   C104      1.0  0.71071  0.28817  0.96680  1.0000
  C   C105      1.0  0.25711  0.28821  0.08170  1.0000
  C   C106      1.0  0.25711  0.21179  0.41830  1.0000
  C   C107      1.0  0.24289  0.78821  0.41830  1.0000
  C   C108      1.0  0.24289  0.71179  0.08170  1.0000
  C   C109      1.0  0.74289  0.71179  0.91830  1.0000
  C   C110      1.0  0.74289  0.78821  0.58170  1.0000
  C   C111      1.0  0.75711  0.21179  0.58170  1.0000
  C   C112      1.0  0.75711  0.28821  0.91830  1.0000
  O   O41       1.0  0.39100  0.40556  0.41985  1.0000
  O   O42       1.0  0.39100  0.09444  0.08015  1.0000
  O   O43       1.0  0.10900  0.90556  0.08015  1.0000
  O   O44       1.0  0.10900  0.59444  0.41985  1.0000
  O   O45       1.0  0.60900  0.59444  0.58015  1.0000
  O   O46       1.0  0.60900  0.90556  0.91985  1.0000
  O   O47       1.0  0.89100  0.09444  0.91985  1.0000
  O   O48       1.0  0.89100  0.40556  0.58015  1.0000
  C   C113      1.0  0.39654  0.35015  0.42560  1.0000
  C   C114      1.0  0.39654  0.14985  0.07440  1.0000
  C   C115      1.0  0.10346  0.85015  0.07440  1.0000
  C   C116      1.0  0.10346  0.64985  0.42560  1.0000
  C   C117      1.0  0.60346  0.64985  0.57440  1.0000
  C   C118      1.0  0.60346  0.85015  0.92560  1.0000
  C   C119      1.0  0.89654  0.14985  0.92560  1.0000
  C   C120      1.0  0.89654  0.35015  0.57440  1.0000
  C   C121      1.0  0.39074  0.31934  0.52120  1.0000
  C   C122      1.0  0.39074  0.18066  0.97880  1.0000
  C   C123      1.0  0.10926  0.81934  0.97880  1.0000
  C   C124      1.0  0.10926  0.68066  0.52120  1.0000
  C   C125      1.0  0.60926  0.68066  0.47880  1.0000
  C   C126      1.0  0.60926  0.81934  0.02120  1.0000
  C   C127      1.0  0.89074  0.18066  0.02120  1.0000
  C   C128      1.0  0.89074  0.31934  0.47880  1.0000
  C   C129      1.0  0.37534  0.35216  0.60160  1.0000
  C   C130      1.0  0.37534  0.14784  0.89840  1.0000
  C   C131      1.0  0.12466  0.85216  0.89840  1.0000
  C   C132      1.0  0.12466  0.64784  0.60160  1.0000
  C   C133      1.0  0.62466  0.64784  0.39840  1.0000
  C   C134      1.0  0.62466  0.85216  0.10160  1.0000
  C   C135      1.0  0.87534  0.14784  0.10160  1.0000
  C   C136      1.0  0.87534  0.35216  0.39840  1.0000
  C   C137      1.0  0.37162  0.32368  0.69040  1.0000
  C   C138      1.0  0.37162  0.17632  0.80960  1.0000
  C   C139      1.0  0.12838  0.82368  0.80960  1.0000
  C   C140      1.0  0.12838  0.67632  0.69040  1.0000
  C   C141      1.0  0.62838  0.67632  0.30960  1.0000
  C   C142      1.0  0.62838  0.82368  0.19040  1.0000
  C   C143      1.0  0.87162  0.17632  0.19040  1.0000
  C   C144      1.0  0.87162  0.32368  0.30960  1.0000
  C   C145      1.0  0.38350  0.26461  0.70110  1.0000
  C   C146      1.0  0.38350  0.23539  0.79890  1.0000
  C   C147      1.0  0.11650  0.76461  0.79890  1.0000
  C   C148      1.0  0.11650  0.73539  0.70110  1.0000
  C   C149      1.0  0.61650  0.73539  0.29890  1.0000
  C   C150      1.0  0.61650  0.76461  0.20110  1.0000
  C   C151      1.0  0.88350  0.23539  0.20110  1.0000
  C   C152      1.0  0.88350  0.26461  0.29890  1.0000
  C   C153      1.0  0.39808  0.23223  0.62000  1.0000
  C   C154      1.0  0.39808  0.26777  0.88000  1.0000
  C   C155      1.0  0.10192  0.73223  0.88000  1.0000
  C   C156      1.0  0.10192  0.76777  0.62000  1.0000
  C   C157      1.0  0.60192  0.76777  0.38000  1.0000
  C   C158      1.0  0.60192  0.73223  0.12000  1.0000
  C   C159      1.0  0.89808  0.26777  0.12000  1.0000
  C   C160      1.0  0.89808  0.23223  0.38000  1.0000
  C   C161      1.0  0.40167  0.25977  0.53160  1.0000
  C   C162      1.0  0.40167  0.24023  0.96840  1.0000
  C   C163      1.0  0.09833  0.75977  0.96840  1.0000
  C   C164      1.0  0.09833  0.74023  0.53160  1.0000
  C   C165      1.0  0.59833  0.74023  0.46840  1.0000
  C   C166      1.0  0.59833  0.75977  0.03160  1.0000
  C   C167      1.0  0.90167  0.24023  0.03160  1.0000
  C   C168      1.0  0.90167  0.25977  0.46840  1.0000
  O   O49       1.0  0.40150  0.49662  0.24498  1.0000
  O   O50       1.0  0.40150  0.00338  0.25502  1.0000
  O   O51       1.0  0.09850  0.99662  0.25502  1.0000
  O   O52       1.0  0.09850  0.50338  0.24498  1.0000
  O   O53       1.0  0.59850  0.50338  0.75502  1.0000
  O   O54       1.0  0.59850  0.99662  0.74498  1.0000
  O   O55       1.0  0.90150  0.00338  0.74498  1.0000
  O   O56       1.0  0.90150  0.49662  0.75502  1.0000
  C   C169      1.0  0.43700  0.52470  0.28460  1.0000
  C   C170      1.0  0.43700  0.97530  0.21540  1.0000
  C   C171      1.0  0.06300  0.02470  0.21540  1.0000
  C   C172      1.0  0.06300  0.47530  0.28460  1.0000
  C   C173      1.0  0.56300  0.47530  0.71540  1.0000
  C   C174      1.0  0.56300  0.02470  0.78460  1.0000
  C   C175      1.0  0.93700  0.97530  0.78460  1.0000
  C   C176      1.0  0.93700  0.52470  0.71540  1.0000
  O   O57       1.0  0.47191  0.50098  0.33150  1.0000
  O   O58       1.0  0.47191  0.99902  0.16850  1.0000
  O   O59       1.0  0.02809  0.00098  0.16850  1.0000
  O   O60       1.0  0.02809  0.49902  0.33150  1.0000
  O   O61       1.0  0.52809  0.49902  0.66850  1.0000
  O   O62       1.0  0.52809  0.00098  0.83150  1.0000
  O   O63       1.0  0.97191  0.99902  0.83150  1.0000
  O   O64       1.0  0.97191  0.50098  0.66850  1.0000
  C   C177      1.0  0.43627  0.59296  0.27470  1.0000
  C   C178      1.0  0.43627  0.90704  0.22530  1.0000
  C   C179      1.0  0.06373  0.09296  0.22530  1.0000
  C   C180      1.0  0.06373  0.40704  0.27470  1.0000
  C   C181      1.0  0.56373  0.40704  0.72530  1.0000
  C   C182      1.0  0.56373  0.09296  0.77470  1.0000
  C   C183      1.0  0.93627  0.90704  0.77470  1.0000
  C   C184      1.0  0.93627  0.59296  0.72530  1.0000
  C   C185      1.0  0.47824  0.62708  0.29920  1.0000
  C   C186      1.0  0.47824  0.87292  0.20080  1.0000
  C   C187      1.0  0.02176  0.12708  0.20080  1.0000
  C   C188      1.0  0.02176  0.37292  0.29920  1.0000
  C   C189      1.0  0.52176  0.37292  0.70080  1.0000
  C   C190      1.0  0.52176  0.12708  0.79920  1.0000
  C   C191      1.0  0.97824  0.87292  0.79920  1.0000
  C   C192      1.0  0.97824  0.62708  0.70080  1.0000
  C   C193      1.0  0.47825  0.68727  0.28830  1.0000
  C   C194      1.0  0.47825  0.81273  0.21170  1.0000
  C   C195      1.0  0.02175  0.18727  0.21170  1.0000
  C   C196      1.0  0.02175  0.31273  0.28830  1.0000
  C   C197      1.0  0.52175  0.31273  0.71170  1.0000
  C   C198      1.0  0.52175  0.18727  0.78830  1.0000
  C   C199      1.0  0.97825  0.81273  0.78830  1.0000
  C   C200      1.0  0.97825  0.68727  0.71170  1.0000
  C   C201      1.0  0.43393  0.71692  0.25640  1.0000
  C   C202      1.0  0.43393  0.78308  0.24360  1.0000
  C   C203      1.0  0.06607  0.21692  0.24360  1.0000
  C   C204      1.0  0.06607  0.28308  0.25640  1.0000
  C   C205      1.0  0.56607  0.28308  0.74360  1.0000
  C   C206      1.0  0.56607  0.21692  0.75640  1.0000
  C   C207      1.0  0.93393  0.78308  0.75640  1.0000
  C   C208      1.0  0.93393  0.71692  0.74360  1.0000
  C   C209      1.0  0.39228  0.68240  0.23190  1.0000
  C   C210      1.0  0.39228  0.81760  0.26810  1.0000
  C   C211      1.0  0.10772  0.18240  0.26810  1.0000
  C   C212      1.0  0.10772  0.31760  0.23190  1.0000
  C   C213      1.0  0.60772  0.31760  0.76810  1.0000
  C   C214      1.0  0.60772  0.18240  0.73190  1.0000
  C   C215      1.0  0.89228  0.81760  0.73190  1.0000
  C   C216      1.0  0.89228  0.68240  0.76810  1.0000
  C   C217      1.0  0.39256  0.62080  0.24070  1.0000
  C   C218      1.0  0.39256  0.87920  0.25930  1.0000
  C   C219      1.0  0.10744  0.12080  0.25930  1.0000
  C   C220      1.0  0.10744  0.37920  0.24070  1.0000
  C   C221      1.0  0.60744  0.37920  0.75930  1.0000
  C   C222      1.0  0.60744  0.12080  0.74070  1.0000
  C   C223      1.0  0.89256  0.87920  0.74070  1.0000
  C   C224      1.0  0.89256  0.62080  0.75930  1.0000
  H   H1        1.0  0.26640  0.42890  0.12080  1.0000
  H   H2        1.0  0.26640  0.07110  0.37920  1.0000
  H   H3        1.0  0.23360  0.92890  0.37920  1.0000
  H   H4        1.0  0.23360  0.57110  0.12080  1.0000
  H   H5        1.0  0.73360  0.57110  0.87920  1.0000
  H   H6        1.0  0.73360  0.92890  0.62080  1.0000
  H   H7        1.0  0.76640  0.07110  0.62080  1.0000
  H   H8        1.0  0.76640  0.42890  0.87920  1.0000
  H   H9        1.0  0.18870  0.42910  0.04060  1.0000
  H   H10       1.0  0.18870  0.07090  0.45940  1.0000
  H   H11       1.0  0.31130  0.92910  0.45940  1.0000
  H   H12       1.0  0.31130  0.57090  0.04060  1.0000
  H   H13       1.0  0.81130  0.57090  0.95940  1.0000
  H   H14       1.0  0.81130  0.92910  0.54060  1.0000
  H   H15       1.0  0.68870  0.07090  0.54060  1.0000
  H   H16       1.0  0.68870  0.42910  0.95940  1.0000
  H   H17       1.0  0.14030  0.42060  0.90260  1.0000
  H   H18       1.0  0.14030  0.07940  0.59740  1.0000
  H   H19       1.0  0.35970  0.92060  0.59740  1.0000
  H   H20       1.0  0.35970  0.57940  0.90260  1.0000
  H   H21       1.0  0.85970  0.57940  0.09740  1.0000
  H   H22       1.0  0.85970  0.92060  0.40260  1.0000
  H   H23       1.0  0.64030  0.07940  0.40260  1.0000
  H   H24       1.0  0.64030  0.42060  0.09740  1.0000
  H   H25       1.0  0.06070  0.41980  0.82570  1.0000
  H   H26       1.0  0.06070  0.08020  0.67430  1.0000
  H   H27       1.0  0.43930  0.91980  0.67430  1.0000
  H   H28       1.0  0.43930  0.58020  0.82570  1.0000
  H   H29       1.0  0.93930  0.58020  0.17430  1.0000
  H   H30       1.0  0.93930  0.91980  0.32570  1.0000
  H   H31       1.0  0.56070  0.08020  0.32570  1.0000
  H   H32       1.0  0.56070  0.41980  0.17430  1.0000
  H   H33       1.0  0.03290  0.25860  0.93720  1.0000
  H   H34       1.0  0.03290  0.24140  0.56280  1.0000
  H   H35       1.0  0.46710  0.75860  0.56280  1.0000
  H   H36       1.0  0.46710  0.74140  0.93720  1.0000
  H   H37       1.0  0.96710  0.74140  0.06280  1.0000
  H   H38       1.0  0.96710  0.75860  0.43720  1.0000
  H   H39       1.0  0.53290  0.24140  0.43720  1.0000
  H   H40       1.0  0.53290  0.25860  0.06280  1.0000
  H   H41       1.0  0.10990  0.26100  0.01700  1.0000
  H   H42       1.0  0.10990  0.23900  0.48300  1.0000
  H   H43       1.0  0.39010  0.76100  0.48300  1.0000
  H   H44       1.0  0.39010  0.73900  0.01700  1.0000
  H   H45       1.0  0.89010  0.73900  0.98300  1.0000
  H   H46       1.0  0.89010  0.76100  0.51700  1.0000
  H   H47       1.0  0.60990  0.23900  0.51700  1.0000
  H   H48       1.0  0.60990  0.26100  0.98300  1.0000
  H   H49       1.0  0.19810  0.25140  0.01120  1.0000
  H   H50       1.0  0.19810  0.24860  0.48880  1.0000
  H   H51       1.0  0.30190  0.75140  0.48880  1.0000
  H   H52       1.0  0.30190  0.74860  0.01120  1.0000
  H   H53       1.0  0.80190  0.74860  0.98880  1.0000
  H   H54       1.0  0.80190  0.75140  0.51120  1.0000
  H   H55       1.0  0.69810  0.24860  0.51120  1.0000
  H   H56       1.0  0.69810  0.25140  0.98880  1.0000
  H   H57       1.0  0.27410  0.25200  0.09280  1.0000
  H   H58       1.0  0.27410  0.24800  0.40720  1.0000
  H   H59       1.0  0.22590  0.75200  0.40720  1.0000
  H   H60       1.0  0.22590  0.74800  0.09280  1.0000
  H   H61       1.0  0.72590  0.74800  0.90720  1.0000
  H   H62       1.0  0.72590  0.75200  0.59280  1.0000
  H   H63       1.0  0.77410  0.24800  0.59280  1.0000
  H   H64       1.0  0.77410  0.25200  0.90720  1.0000
  H   H65       1.0  0.36700  0.39440  0.59760  1.0000
  H   H66       1.0  0.36700  0.10560  0.90240  1.0000
  H   H67       1.0  0.13300  0.89440  0.90240  1.0000
  H   H68       1.0  0.13300  0.60560  0.59760  1.0000
  H   H69       1.0  0.63300  0.60560  0.40240  1.0000
  H   H70       1.0  0.63300  0.89440  0.09760  1.0000
  H   H71       1.0  0.86700  0.10560  0.09760  1.0000
  H   H72       1.0  0.86700  0.39440  0.40240  1.0000
  H   H73       1.0  0.36080  0.34540  0.74500  1.0000
  H   H74       1.0  0.36080  0.15460  0.75500  1.0000
  H   H75       1.0  0.13920  0.84540  0.75500  1.0000
  H   H76       1.0  0.13920  0.65460  0.74500  1.0000
  H   H77       1.0  0.63920  0.65460  0.25500  1.0000
  H   H78       1.0  0.63920  0.84540  0.24500  1.0000
  H   H79       1.0  0.86080  0.15460  0.24500  1.0000
  H   H80       1.0  0.86080  0.34540  0.25500  1.0000
  H   H81       1.0  0.40590  0.19100  0.62440  1.0000
  H   H82       1.0  0.40590  0.30900  0.87560  1.0000
  H   H83       1.0  0.09410  0.69100  0.87560  1.0000
  H   H84       1.0  0.09410  0.80900  0.62440  1.0000
  H   H85       1.0  0.59410  0.80900  0.37560  1.0000
  H   H86       1.0  0.59410  0.69100  0.12440  1.0000
  H   H87       1.0  0.90590  0.30900  0.12440  1.0000
  H   H88       1.0  0.90590  0.19100  0.37560  1.0000
  H   H89       1.0  0.41150  0.23700  0.47790  1.0000
  H   H90       1.0  0.41150  0.26300  0.02210  1.0000
  H   H91       1.0  0.08850  0.73700  0.02210  1.0000
  H   H92       1.0  0.08850  0.76300  0.47790  1.0000
  H   H93       1.0  0.58850  0.76300  0.52210  1.0000
  H   H94       1.0  0.58850  0.73700  0.97790  1.0000
  H   H95       1.0  0.91150  0.26300  0.97790  1.0000
  H   H96       1.0  0.91150  0.23700  0.52210  1.0000
  H   H97       1.0  0.50750  0.60770  0.32520  1.0000
  H   H98       1.0  0.50750  0.89230  0.17480  1.0000
  H   H99       1.0  0.99250  0.10770  0.17480  1.0000
  H   H100      1.0  0.99250  0.39230  0.32520  1.0000
  H   H101      1.0  0.49250  0.39230  0.67480  1.0000
  H   H102      1.0  0.49250  0.10770  0.82520  1.0000
  H   H103      1.0  0.00750  0.89230  0.82520  1.0000
  H   H104      1.0  0.00750  0.60770  0.67480  1.0000
  H   H105      1.0  0.50810  0.70960  0.30220  1.0000
  H   H106      1.0  0.50810  0.79040  0.19780  1.0000
  H   H107      1.0  0.99190  0.20960  0.19780  1.0000
  H   H108      1.0  0.99190  0.29040  0.30220  1.0000
  H   H109      1.0  0.49190  0.29040  0.69780  1.0000
  H   H110      1.0  0.49190  0.20960  0.80220  1.0000
  H   H111      1.0  0.00810  0.79040  0.80220  1.0000
  H   H112      1.0  0.00810  0.70960  0.69780  1.0000
  H   H113      1.0  0.36300  0.70130  0.21000  1.0000
  H   H114      1.0  0.36300  0.79870  0.29000  1.0000
  H   H115      1.0  0.13700  0.20130  0.29000  1.0000
  H   H116      1.0  0.13700  0.29870  0.21000  1.0000
  H   H117      1.0  0.63700  0.29870  0.79000  1.0000
  H   H118      1.0  0.63700  0.20130  0.71000  1.0000
  H   H119      1.0  0.86300  0.79870  0.71000  1.0000
  H   H120      1.0  0.86300  0.70130  0.79000  1.0000
  H   H121      1.0  0.36370  0.59810  0.22390  1.0000
  H   H122      1.0  0.36370  0.90190  0.27610  1.0000
  H   H123      1.0  0.13630  0.09810  0.27610  1.0000
  H   H124      1.0  0.13630  0.40190  0.22390  1.0000
  H   H125      1.0  0.63630  0.40190  0.77610  1.0000
  H   H126      1.0  0.63630  0.09810  0.72390  1.0000
  H   H127      1.0  0.86370  0.90190  0.72390  1.0000
  H   H128      1.0  0.86370  0.59810  0.77610  1.0000
