data_image0
_chemical_formula_structural       C16H8C24H8C8H8C24H8C24H8C16H8C8H8C24H8C48H8C8H8C16H8C8Dy12N8H8O80C8O16
_chemical_formula_sum              "C232 H96 Dy12 N8 O96"
_cell_length_a       18.994
_cell_length_b       23.272
_cell_length_c       21.381
_cell_angle_alpha    90
_cell_angle_beta     102.063
_cell_angle_gamma    90

_space_group_name_H-M_alt    "P 1"
_space_group_IT_number       1

loop_
  _space_group_symop_operation_xyz
  'x, y, z'

loop_
  _atom_site_type_symbol
  _atom_site_label
  _atom_site_symmetry_multiplicity
  _atom_site_fract_x
  _atom_site_fract_y
  _atom_site_fract_z
  _atom_site_occupancy
  C   C1        1.0  0.08100  0.74680  0.11260  1.0000
  C   C2        1.0  0.91900  0.74680  0.38740  1.0000
  C   C3        1.0  0.58100  0.24680  0.11260  1.0000
  C   C4        1.0  0.41900  0.24680  0.38740  1.0000
  C   C5        1.0  0.91900  0.25320  0.88740  1.0000
  C   C6        1.0  0.08100  0.25320  0.61260  1.0000
  C   C7        1.0  0.41900  0.75320  0.88740  1.0000
  C   C8        1.0  0.58100  0.75320  0.61260  1.0000
  C   C9        1.0  0.04490  0.69500  0.10060  1.0000
  C   C10       1.0  0.95510  0.69500  0.39940  1.0000
  C   C11       1.0  0.54490  0.19500  0.10060  1.0000
  C   C12       1.0  0.45510  0.19500  0.39940  1.0000
  C   C13       1.0  0.95510  0.30500  0.89940  1.0000
  C   C14       1.0  0.04490  0.30500  0.60060  1.0000
  C   C15       1.0  0.45510  0.80500  0.89940  1.0000
  C   C16       1.0  0.54490  0.80500  0.60060  1.0000
  H   H1        1.0  0.01080  0.68570  0.12450  1.0000
  H   H2        1.0  0.98920  0.68570  0.37550  1.0000
  H   H3        1.0  0.51080  0.18570  0.12450  1.0000
  H   H4        1.0  0.48920  0.18570  0.37550  1.0000
  H   H5        1.0  0.98920  0.31430  0.87550  1.0000
  H   H6        1.0  0.01080  0.31430  0.62450  1.0000
  H   H7        1.0  0.48920  0.81430  0.87550  1.0000
  H   H8        1.0  0.51080  0.81430  0.62450  1.0000
  C   C17       1.0  0.05690  0.65700  0.05560  1.0000
  C   C18       1.0  0.94310  0.65700  0.44440  1.0000
  C   C19       1.0  0.55690  0.15700  0.05560  1.0000
  C   C20       1.0  0.44310  0.15700  0.44440  1.0000
  C   C21       1.0  0.94310  0.34300  0.94440  1.0000
  C   C22       1.0  0.05690  0.34300  0.55560  1.0000
  C   C23       1.0  0.44310  0.84300  0.94440  1.0000
  C   C24       1.0  0.55690  0.84300  0.55560  1.0000
  C   C25       1.0  0.01520  0.60300  0.04740  1.0000
  C   C26       1.0  0.98480  0.60300  0.45260  1.0000
  C   C27       1.0  0.51520  0.10300  0.04740  1.0000
  C   C28       1.0  0.48480  0.10300  0.45260  1.0000
  C   C29       1.0  0.98480  0.39700  0.95260  1.0000
  C   C30       1.0  0.01520  0.39700  0.54740  1.0000
  C   C31       1.0  0.48480  0.89700  0.95260  1.0000
  C   C32       1.0  0.51520  0.89700  0.54740  1.0000
  C   C33       1.0  0.11080  0.66960  0.02190  1.0000
  C   C34       1.0  0.88920  0.66960  0.47810  1.0000
  C   C35       1.0  0.61080  0.16960  0.02190  1.0000
  C   C36       1.0  0.38920  0.16960  0.47810  1.0000
  C   C37       1.0  0.88920  0.33040  0.97810  1.0000
  C   C38       1.0  0.11080  0.33040  0.52190  1.0000
  C   C39       1.0  0.38920  0.83040  0.97810  1.0000
  C   C40       1.0  0.61080  0.83040  0.52190  1.0000
  H   H9        1.0  0.12270  0.64380  0.99250  1.0000
  H   H10       1.0  0.87730  0.64380  0.50750  1.0000
  H   H11       1.0  0.62270  0.14380  0.99250  1.0000
  H   H12       1.0  0.37730  0.14380  0.50750  1.0000
  H   H13       1.0  0.87730  0.35620  0.00750  1.0000
  H   H14       1.0  0.12270  0.35620  0.49250  1.0000
  H   H15       1.0  0.37730  0.85620  0.00750  1.0000
  H   H16       1.0  0.62270  0.85620  0.49250  1.0000
  C   C41       1.0  0.14580  0.72190  0.03410  1.0000
  C   C42       1.0  0.85420  0.72190  0.46590  1.0000
  C   C43       1.0  0.64580  0.22190  0.03410  1.0000
  C   C44       1.0  0.35420  0.22190  0.46590  1.0000
  C   C45       1.0  0.85420  0.27810  0.96590  1.0000
  C   C46       1.0  0.14580  0.27810  0.53410  1.0000
  C   C47       1.0  0.35420  0.77810  0.96590  1.0000
  C   C48       1.0  0.64580  0.77810  0.53410  1.0000
  H   H17       1.0  0.18220  0.73010  0.01240  1.0000
  H   H18       1.0  0.81780  0.73010  0.48760  1.0000
  H   H19       1.0  0.68220  0.23010  0.01240  1.0000
  H   H20       1.0  0.31780  0.23010  0.48760  1.0000
  H   H21       1.0  0.81780  0.26990  0.98760  1.0000
  H   H22       1.0  0.18220  0.26990  0.51240  1.0000
  H   H23       1.0  0.31780  0.76990  0.98760  1.0000
  H   H24       1.0  0.68220  0.76990  0.51240  1.0000
  C   C49       1.0  0.13040  0.76280  0.07640  1.0000
  C   C50       1.0  0.86960  0.76280  0.42360  1.0000
  C   C51       1.0  0.63040  0.26280  0.07640  1.0000
  C   C52       1.0  0.36960  0.26280  0.42360  1.0000
  C   C53       1.0  0.86960  0.23720  0.92360  1.0000
  C   C54       1.0  0.13040  0.23720  0.57640  1.0000
  C   C55       1.0  0.36960  0.73720  0.92360  1.0000
  C   C56       1.0  0.63040  0.73720  0.57640  1.0000
  C   C57       1.0  0.16540  0.82020  0.08320  1.0000
  C   C58       1.0  0.83460  0.82020  0.41680  1.0000
  C   C59       1.0  0.66540  0.32020  0.08320  1.0000
  C   C60       1.0  0.33460  0.32020  0.41680  1.0000
  C   C61       1.0  0.83460  0.17980  0.91680  1.0000
  C   C62       1.0  0.16540  0.17980  0.58320  1.0000
  C   C63       1.0  0.33460  0.67980  0.91680  1.0000
  C   C64       1.0  0.66540  0.67980  0.58320  1.0000
  C   C65       1.0  0.21460  0.83550  0.13860  1.0000
  C   C66       1.0  0.78540  0.83550  0.36140  1.0000
  C   C67       1.0  0.71460  0.33550  0.13860  1.0000
  C   C68       1.0  0.28540  0.33550  0.36140  1.0000
  C   C69       1.0  0.78540  0.16450  0.86140  1.0000
  C   C70       1.0  0.21460  0.16450  0.63860  1.0000
  C   C71       1.0  0.28540  0.66450  0.86140  1.0000
  C   C72       1.0  0.71460  0.66450  0.63860  1.0000
  H   H25       1.0  0.23000  0.80850  0.17050  1.0000
  H   H26       1.0  0.77000  0.80850  0.32950  1.0000
  H   H27       1.0  0.73000  0.30850  0.17050  1.0000
  H   H28       1.0  0.27000  0.30850  0.32950  1.0000
  H   H29       1.0  0.77000  0.19150  0.82950  1.0000
  H   H30       1.0  0.23000  0.19150  0.67050  1.0000
  H   H31       1.0  0.27000  0.69150  0.82950  1.0000
  H   H32       1.0  0.73000  0.69150  0.67050  1.0000
  C   C73       1.0  0.24030  0.89110  0.14590  1.0000
  C   C74       1.0  0.75970  0.89110  0.35410  1.0000
  C   C75       1.0  0.74030  0.39110  0.14590  1.0000
  C   C76       1.0  0.25970  0.39110  0.35410  1.0000
  C   C77       1.0  0.75970  0.10890  0.85410  1.0000
  C   C78       1.0  0.24030  0.10890  0.64590  1.0000
  C   C79       1.0  0.25970  0.60890  0.85410  1.0000
  C   C80       1.0  0.74030  0.60890  0.64590  1.0000
  C   C81       1.0  0.16950  0.91400  0.04190  1.0000
  C   C82       1.0  0.83050  0.91400  0.45810  1.0000
  C   C83       1.0  0.66950  0.41400  0.04190  1.0000
  C   C84       1.0  0.33050  0.41400  0.45810  1.0000
  C   C85       1.0  0.83050  0.08600  0.95810  1.0000
  C   C86       1.0  0.16950  0.08600  0.54190  1.0000
  C   C87       1.0  0.33050  0.58600  0.95810  1.0000
  C   C88       1.0  0.66950  0.58600  0.54190  1.0000
  C   C89       1.0  0.14590  0.85940  0.03560  1.0000
  C   C90       1.0  0.85410  0.85940  0.46440  1.0000
  C   C91       1.0  0.64590  0.35940  0.03560  1.0000
  C   C92       1.0  0.35410  0.35940  0.46440  1.0000
  C   C93       1.0  0.85410  0.14060  0.96440  1.0000
  C   C94       1.0  0.14590  0.14060  0.53560  1.0000
  C   C95       1.0  0.35410  0.64060  0.96440  1.0000
  C   C96       1.0  0.64590  0.64060  0.53560  1.0000
  H   H33       1.0  0.11540  0.84820  0.99770  1.0000
  H   H34       1.0  0.88460  0.84820  0.50230  1.0000
  H   H35       1.0  0.61540  0.34820  0.99770  1.0000
  H   H36       1.0  0.38460  0.34820  0.50230  1.0000
  H   H37       1.0  0.88460  0.15180  0.00230  1.0000
  H   H38       1.0  0.11540  0.15180  0.49770  1.0000
  H   H39       1.0  0.38460  0.65180  0.00230  1.0000
  H   H40       1.0  0.61540  0.65180  0.49770  1.0000
  C   C97       1.0  0.14230  0.95600  0.99280  1.0000
  C   C98       1.0  0.85770  0.95600  0.50720  1.0000
  C   C99       1.0  0.64230  0.45600  0.99280  1.0000
  C   C100      1.0  0.35770  0.45600  0.50720  1.0000
  C   C101      1.0  0.85770  0.04400  0.00720  1.0000
  C   C102      1.0  0.14230  0.04400  0.49280  1.0000
  C   C103      1.0  0.35770  0.54400  0.00720  1.0000
  C   C104      1.0  0.64230  0.54400  0.49280  1.0000
  C   C105      1.0  0.06970  0.95610  0.96420  1.0000
  C   C106      1.0  0.93030  0.95610  0.53580  1.0000
  C   C107      1.0  0.56970  0.45610  0.96420  1.0000
  C   C108      1.0  0.43030  0.45610  0.53580  1.0000
  C   C109      1.0  0.93030  0.04390  0.03580  1.0000
  C   C110      1.0  0.06970  0.04390  0.46420  1.0000
  C   C111      1.0  0.43030  0.54390  0.03580  1.0000
  C   C112      1.0  0.56970  0.54390  0.46420  1.0000
  H   H41       1.0  0.03990  0.92870  0.97680  1.0000
  H   H42       1.0  0.96010  0.92870  0.52320  1.0000
  H   H43       1.0  0.53990  0.42870  0.97680  1.0000
  H   H44       1.0  0.46010  0.42870  0.52320  1.0000
  H   H45       1.0  0.96010  0.07130  0.02320  1.0000
  H   H46       1.0  0.03990  0.07130  0.47680  1.0000
  H   H47       1.0  0.46010  0.57130  0.02320  1.0000
  H   H48       1.0  0.53990  0.57130  0.47680  1.0000
  C   C113      1.0  0.04040  0.99500  0.91810  1.0000
  C   C114      1.0  0.95960  0.99500  0.58190  1.0000
  C   C115      1.0  0.54040  0.49500  0.91810  1.0000
  C   C116      1.0  0.45960  0.49500  0.58190  1.0000
  C   C117      1.0  0.95960  0.00500  0.08190  1.0000
  C   C118      1.0  0.04040  0.00500  0.41810  1.0000
  C   C119      1.0  0.45960  0.50500  0.08190  1.0000
  C   C120      1.0  0.54040  0.50500  0.41810  1.0000
  H   H49       1.0  0.99110  0.99530  0.90110  1.0000
  H   H50       1.0  0.00890  0.99530  0.59890  1.0000
  H   H51       1.0  0.49110  0.49530  0.90110  1.0000
  H   H52       1.0  0.50890  0.49530  0.59890  1.0000
  H   H53       1.0  0.00890  0.00470  0.09890  1.0000
  H   H54       1.0  0.99110  0.00470  0.40110  1.0000
  H   H55       1.0  0.50890  0.50470  0.09890  1.0000
  H   H56       1.0  0.49110  0.50470  0.40110  1.0000
  C   C121      1.0  0.08750  0.03590  0.89620  1.0000
  C   C122      1.0  0.91250  0.03590  0.60380  1.0000
  C   C123      1.0  0.58750  0.53590  0.89620  1.0000
  C   C124      1.0  0.41250  0.53590  0.60380  1.0000
  C   C125      1.0  0.91250  0.96410  0.10380  1.0000
  C   C126      1.0  0.08750  0.96410  0.39620  1.0000
  C   C127      1.0  0.41250  0.46410  0.10380  1.0000
  C   C128      1.0  0.58750  0.46410  0.39620  1.0000
  C   C129      1.0  0.05620  0.07690  0.84230  1.0000
  C   C130      1.0  0.94380  0.07690  0.65770  1.0000
  C   C131      1.0  0.55620  0.57690  0.84230  1.0000
  C   C132      1.0  0.44380  0.57690  0.65770  1.0000
  C   C133      1.0  0.94380  0.92310  0.15770  1.0000
  C   C134      1.0  0.05620  0.92310  0.34230  1.0000
  C   C135      1.0  0.44380  0.42310  0.15770  1.0000
  C   C136      1.0  0.55620  0.42310  0.34230  1.0000
  C   C137      1.0  0.15860  0.03680  0.92460  1.0000
  C   C138      1.0  0.84140  0.03680  0.57540  1.0000
  C   C139      1.0  0.65860  0.53680  0.92460  1.0000
  C   C140      1.0  0.34140  0.53680  0.57540  1.0000
  C   C141      1.0  0.84140  0.96320  0.07540  1.0000
  C   C142      1.0  0.15860  0.96320  0.42460  1.0000
  C   C143      1.0  0.34140  0.46320  0.07540  1.0000
  C   C144      1.0  0.65860  0.46320  0.42460  1.0000
  H   H57       1.0  0.18900  0.06410  0.91260  1.0000
  H   H58       1.0  0.81100  0.06410  0.58740  1.0000
  H   H59       1.0  0.68900  0.56410  0.91260  1.0000
  H   H60       1.0  0.31100  0.56410  0.58740  1.0000
  H   H61       1.0  0.81100  0.93590  0.08740  1.0000
  H   H62       1.0  0.18900  0.93590  0.41260  1.0000
  H   H63       1.0  0.31100  0.43590  0.08740  1.0000
  H   H64       1.0  0.68900  0.43590  0.41260  1.0000
  C   C145      1.0  0.18570  0.99680  0.97160  1.0000
  C   C146      1.0  0.81430  0.99680  0.52840  1.0000
  C   C147      1.0  0.68570  0.49680  0.97160  1.0000
  C   C148      1.0  0.31430  0.49680  0.52840  1.0000
  C   C149      1.0  0.81430  0.00320  0.02840  1.0000
  C   C150      1.0  0.18570  0.00320  0.47160  1.0000
  C   C151      1.0  0.31430  0.50320  0.02840  1.0000
  C   C152      1.0  0.68570  0.50320  0.47160  1.0000
  C   C153      1.0  0.26700  0.99900  0.99760  1.0000
  C   C154      1.0  0.73300  0.99900  0.50240  1.0000
  C   C155      1.0  0.76700  0.49900  0.99760  1.0000
  C   C156      1.0  0.23300  0.49900  0.50240  1.0000
  C   C157      1.0  0.73300  0.00100  0.00240  1.0000
  C   C158      1.0  0.26700  0.00100  0.49760  1.0000
  C   C159      1.0  0.23300  0.50100  0.00240  1.0000
  C   C160      1.0  0.76700  0.50100  0.49760  1.0000
  C   C161      1.0  0.37540  0.96080  0.15200  1.0000
  C   C162      1.0  0.62460  0.96080  0.34800  1.0000
  C   C163      1.0  0.87540  0.46080  0.15200  1.0000
  C   C164      1.0  0.12460  0.46080  0.34800  1.0000
  C   C165      1.0  0.62460  0.03920  0.84800  1.0000
  C   C166      1.0  0.37540  0.03920  0.65200  1.0000
  C   C167      1.0  0.12460  0.53920  0.84800  1.0000
  C   C168      1.0  0.87540  0.53920  0.65200  1.0000
  C   C169      1.0  0.34880  0.94090  0.20890  1.0000
  C   C170      1.0  0.65120  0.94090  0.29110  1.0000
  C   C171      1.0  0.84880  0.44090  0.20890  1.0000
  C   C172      1.0  0.15120  0.44090  0.29110  1.0000
  C   C173      1.0  0.65120  0.05910  0.79110  1.0000
  C   C174      1.0  0.34880  0.05910  0.70890  1.0000
  C   C175      1.0  0.15120  0.55910  0.79110  1.0000
  C   C176      1.0  0.84880  0.55910  0.70890  1.0000
  C   C177      1.0  0.28720  0.90750  0.20660  1.0000
  C   C178      1.0  0.71280  0.90750  0.29340  1.0000
  C   C179      1.0  0.78720  0.40750  0.20660  1.0000
  C   C180      1.0  0.21280  0.40750  0.29340  1.0000
  C   C181      1.0  0.71280  0.09250  0.79340  1.0000
  C   C182      1.0  0.28720  0.09250  0.70660  1.0000
  C   C183      1.0  0.21280  0.59250  0.79340  1.0000
  C   C184      1.0  0.78720  0.59250  0.70660  1.0000
  C   C185      1.0  0.26940  0.89140  0.26310  1.0000
  C   C186      1.0  0.73060  0.89140  0.23690  1.0000
  C   C187      1.0  0.76940  0.39140  0.26310  1.0000
  C   C188      1.0  0.23060  0.39140  0.23690  1.0000
  C   C189      1.0  0.73060  0.10860  0.73690  1.0000
  C   C190      1.0  0.26940  0.10860  0.76310  1.0000
  C   C191      1.0  0.23060  0.60860  0.73690  1.0000
  C   C192      1.0  0.76940  0.60860  0.76310  1.0000
  H   H65       1.0  0.22950  0.86790  0.26140  1.0000
  H   H66       1.0  0.77050  0.86790  0.23860  1.0000
  H   H67       1.0  0.72950  0.36790  0.26140  1.0000
  H   H68       1.0  0.27050  0.36790  0.23860  1.0000
  H   H69       1.0  0.77050  0.13210  0.73860  1.0000
  H   H70       1.0  0.22950  0.13210  0.76140  1.0000
  H   H71       1.0  0.27050  0.63210  0.73860  1.0000
  H   H72       1.0  0.72950  0.63210  0.76140  1.0000
  C   C193      1.0  0.30740  0.90820  0.32170  1.0000
  C   C194      1.0  0.69260  0.90820  0.17830  1.0000
  C   C195      1.0  0.80740  0.40820  0.32170  1.0000
  C   C196      1.0  0.19260  0.40820  0.17830  1.0000
  C   C197      1.0  0.69260  0.09180  0.67830  1.0000
  C   C198      1.0  0.30740  0.09180  0.82170  1.0000
  C   C199      1.0  0.19260  0.59180  0.67830  1.0000
  C   C200      1.0  0.80740  0.59180  0.82170  1.0000
  H   H73       1.0  0.29210  0.89770  0.35870  1.0000
  H   H74       1.0  0.70790  0.89770  0.14130  1.0000
  H   H75       1.0  0.79210  0.39770  0.35870  1.0000
  H   H76       1.0  0.20790  0.39770  0.14130  1.0000
  H   H77       1.0  0.70790  0.10230  0.64130  1.0000
  H   H78       1.0  0.29210  0.10230  0.85870  1.0000
  H   H79       1.0  0.20790  0.60230  0.64130  1.0000
  H   H80       1.0  0.79210  0.60230  0.85870  1.0000
  C   C201      1.0  0.36840  0.94070  0.32510  1.0000
  C   C202      1.0  0.63160  0.94070  0.17490  1.0000
  C   C203      1.0  0.86840  0.44070  0.32510  1.0000
  C   C204      1.0  0.13160  0.44070  0.17490  1.0000
  C   C205      1.0  0.63160  0.05930  0.67490  1.0000
  C   C206      1.0  0.36840  0.05930  0.82510  1.0000
  C   C207      1.0  0.13160  0.55930  0.67490  1.0000
  C   C208      1.0  0.86840  0.55930  0.82510  1.0000
  C   C209      1.0  0.38920  0.95740  0.26860  1.0000
  C   C210      1.0  0.61080  0.95740  0.23140  1.0000
  C   C211      1.0  0.88920  0.45740  0.26860  1.0000
  C   C212      1.0  0.11080  0.45740  0.23140  1.0000
  C   C213      1.0  0.61080  0.04260  0.73140  1.0000
  C   C214      1.0  0.38920  0.04260  0.76860  1.0000
  C   C215      1.0  0.11080  0.54260  0.73140  1.0000
  C   C216      1.0  0.88920  0.54260  0.76860  1.0000
  H   H81       1.0  0.43020  0.97980  0.27080  1.0000
  H   H82       1.0  0.56980  0.97980  0.22920  1.0000
  H   H83       1.0  0.93020  0.47980  0.27080  1.0000
  H   H84       1.0  0.06980  0.47980  0.22920  1.0000
  H   H85       1.0  0.56980  0.02020  0.72920  1.0000
  H   H86       1.0  0.43020  0.02020  0.77080  1.0000
  H   H87       1.0  0.06980  0.52020  0.72920  1.0000
  H   H88       1.0  0.93020  0.52020  0.77080  1.0000
  C   C217      1.0  0.41510  0.96190  0.38870  1.0000
  C   C218      1.0  0.58490  0.96190  0.11130  1.0000
  C   C219      1.0  0.91510  0.46190  0.38870  1.0000
  C   C220      1.0  0.08490  0.46190  0.11130  1.0000
  C   C221      1.0  0.58490  0.03810  0.61130  1.0000
  C   C222      1.0  0.41510  0.03810  0.88870  1.0000
  C   C223      1.0  0.08490  0.53810  0.61130  1.0000
  C   C224      1.0  0.91510  0.53810  0.88870  1.0000
  Dy  Dy1       1.0  0.41677  0.00424  0.04143  1.0000
  Dy  Dy2       1.0  0.58323  0.00424  0.45857  1.0000
  Dy  Dy3       1.0  0.91677  0.50424  0.04143  1.0000
  Dy  Dy4       1.0  0.08323  0.50424  0.45857  1.0000
  Dy  Dy5       1.0  0.58323  0.99576  0.95857  1.0000
  Dy  Dy6       1.0  0.41677  0.99576  0.54143  1.0000
  Dy  Dy7       1.0  0.08323  0.49576  0.95857  1.0000
  Dy  Dy8       1.0  0.91677  0.49576  0.54143  1.0000
  Dy  Dy9       1.0  0.00000  0.84386  0.25000  1.0000
  Dy  Dy10      1.0  0.50000  0.34386  0.25000  1.0000
  Dy  Dy11      1.0  0.00000  0.15614  0.75000  1.0000
  Dy  Dy12      1.0  0.50000  0.65614  0.75000  1.0000
  N   N1        1.0  0.21740  0.93230  0.09870  1.0000
  N   N2        1.0  0.78260  0.93230  0.40130  1.0000
  N   N3        1.0  0.71740  0.43230  0.09870  1.0000
  N   N4        1.0  0.28260  0.43230  0.40130  1.0000
  N   N5        1.0  0.78260  0.06770  0.90130  1.0000
  N   N6        1.0  0.21740  0.06770  0.59870  1.0000
  N   N7        1.0  0.28260  0.56770  0.90130  1.0000
  N   N8        1.0  0.71740  0.56770  0.59870  1.0000
  H   H89       1.0  0.23170  0.96730  0.10370  1.0000
  H   H90       1.0  0.76830  0.96730  0.39630  1.0000
  H   H91       1.0  0.73170  0.46730  0.10370  1.0000
  H   H92       1.0  0.26830  0.46730  0.39630  1.0000
  H   H93       1.0  0.76830  0.03270  0.89630  1.0000
  H   H94       1.0  0.23170  0.03270  0.60370  1.0000
  H   H95       1.0  0.26830  0.53270  0.89630  1.0000
  H   H96       1.0  0.73170  0.53270  0.60370  1.0000
  O   O1        1.0  0.95970  0.59890  0.07090  1.0000
  O   O2        1.0  0.04030  0.59890  0.42910  1.0000
  O   O3        1.0  0.45970  0.09890  0.07090  1.0000
  O   O4        1.0  0.54030  0.09890  0.42910  1.0000
  O   O5        1.0  0.04030  0.40110  0.92910  1.0000
  O   O6        1.0  0.95970  0.40110  0.57090  1.0000
  O   O7        1.0  0.54030  0.90110  0.92910  1.0000
  O   O8        1.0  0.45970  0.90110  0.57090  1.0000
  O   O9        1.0  0.03330  0.56290  0.01350  1.0000
  O   O10       1.0  0.96670  0.56290  0.48650  1.0000
  O   O11       1.0  0.53330  0.06290  0.01350  1.0000
  O   O12       1.0  0.46670  0.06290  0.48650  1.0000
  O   O13       1.0  0.96670  0.43710  0.98650  1.0000
  O   O14       1.0  0.03330  0.43710  0.51350  1.0000
  O   O15       1.0  0.46670  0.93710  0.98650  1.0000
  O   O16       1.0  0.53330  0.93710  0.51350  1.0000
  O   O17       1.0  0.99110  0.07470  0.81570  1.0000
  O   O18       1.0  0.00890  0.07470  0.68430  1.0000
  O   O19       1.0  0.49110  0.57470  0.81570  1.0000
  O   O20       1.0  0.50890  0.57470  0.68430  1.0000
  O   O21       1.0  0.00890  0.92530  0.18430  1.0000
  O   O22       1.0  0.99110  0.92530  0.31570  1.0000
  O   O23       1.0  0.50890  0.42530  0.18430  1.0000
  O   O24       1.0  0.49110  0.42530  0.31570  1.0000
  O   O25       1.0  0.09760  0.11080  0.82330  1.0000
  O   O26       1.0  0.90240  0.11080  0.67670  1.0000
  O   O27       1.0  0.59760  0.61080  0.82330  1.0000
  O   O28       1.0  0.40240  0.61080  0.67670  1.0000
  O   O29       1.0  0.90240  0.88920  0.17670  1.0000
  O   O30       1.0  0.09760  0.88920  0.32330  1.0000
  O   O31       1.0  0.40240  0.38920  0.17670  1.0000
  O   O32       1.0  0.59760  0.38920  0.32330  1.0000
  O   O33       1.0  0.30470  0.95740  0.98520  1.0000
  O   O34       1.0  0.69530  0.95740  0.51480  1.0000
  O   O35       1.0  0.80470  0.45740  0.98520  1.0000
  O   O36       1.0  0.19530  0.45740  0.51480  1.0000
  O   O37       1.0  0.69530  0.04260  0.01480  1.0000
  O   O38       1.0  0.30470  0.04260  0.48520  1.0000
  O   O39       1.0  0.19530  0.54260  0.01480  1.0000
  O   O40       1.0  0.80470  0.54260  0.48520  1.0000
  O   O41       1.0  0.29470  0.04440  0.02750  1.0000
  O   O42       1.0  0.70530  0.04440  0.47250  1.0000
  O   O43       1.0  0.79470  0.54440  0.02750  1.0000
  O   O44       1.0  0.20530  0.54440  0.47250  1.0000
  O   O45       1.0  0.70530  0.95560  0.97250  1.0000
  O   O46       1.0  0.29470  0.95560  0.52750  1.0000
  O   O47       1.0  0.20530  0.45560  0.97250  1.0000
  O   O48       1.0  0.79470  0.45560  0.52750  1.0000
  O   O49       1.0  0.38330  0.92530  0.11090  1.0000
  O   O50       1.0  0.61670  0.92530  0.38910  1.0000
  O   O51       1.0  0.88330  0.42530  0.11090  1.0000
  O   O52       1.0  0.11670  0.42530  0.38910  1.0000
  O   O53       1.0  0.61670  0.07470  0.88910  1.0000
  O   O54       1.0  0.38330  0.07470  0.61090  1.0000
  O   O55       1.0  0.11670  0.57470  0.88910  1.0000
  O   O56       1.0  0.88330  0.57470  0.61090  1.0000
  O   O57       1.0  0.38870  0.01330  0.14670  1.0000
  O   O58       1.0  0.61130  0.01330  0.35330  1.0000
  O   O59       1.0  0.88870  0.51330  0.14670  1.0000
  O   O60       1.0  0.11130  0.51330  0.35330  1.0000
  O   O61       1.0  0.61130  0.98670  0.85330  1.0000
  O   O62       1.0  0.38870  0.98670  0.64670  1.0000
  O   O63       1.0  0.11130  0.48670  0.85330  1.0000
  O   O64       1.0  0.88870  0.48670  0.64670  1.0000
  O   O65       1.0  0.47490  0.98300  0.38680  1.0000
  O   O66       1.0  0.52510  0.98300  0.11320  1.0000
  O   O67       1.0  0.97490  0.48300  0.38680  1.0000
  O   O68       1.0  0.02510  0.48300  0.11320  1.0000
  O   O69       1.0  0.52510  0.01700  0.61320  1.0000
  O   O70       1.0  0.47490  0.01700  0.88680  1.0000
  O   O71       1.0  0.02510  0.51700  0.61320  1.0000
  O   O72       1.0  0.97490  0.51700  0.88680  1.0000
  O   O73       1.0  0.39030  0.95360  0.43880  1.0000
  O   O74       1.0  0.60970  0.95360  0.06120  1.0000
  O   O75       1.0  0.89030  0.45360  0.43880  1.0000
  O   O76       1.0  0.10970  0.45360  0.06120  1.0000
  O   O77       1.0  0.60970  0.04640  0.56120  1.0000
  O   O78       1.0  0.39030  0.04640  0.93880  1.0000
  O   O79       1.0  0.10970  0.54640  0.56120  1.0000
  O   O80       1.0  0.89030  0.54640  0.93880  1.0000
  C   C225      1.0  0.05480  0.80600  0.15640  1.0000
  C   C226      1.0  0.94520  0.80600  0.34360  1.0000
  C   C227      1.0  0.55480  0.30600  0.15640  1.0000
  C   C228      1.0  0.44520  0.30600  0.34360  1.0000
  C   C229      1.0  0.94520  0.19400  0.84360  1.0000
  C   C230      1.0  0.05480  0.19400  0.65640  1.0000
  C   C231      1.0  0.44520  0.69400  0.84360  1.0000
  C   C232      1.0  0.55480  0.69400  0.65640  1.0000
  O   O81       1.0  0.97200  0.77600  0.17460  1.0000
  O   O82       1.0  0.02800  0.77600  0.32540  1.0000
  O   O83       1.0  0.47200  0.27600  0.17460  1.0000
  O   O84       1.0  0.52800  0.27600  0.32540  1.0000
  O   O85       1.0  0.02800  0.22400  0.82540  1.0000
  O   O86       1.0  0.97200  0.22400  0.67460  1.0000
  O   O87       1.0  0.52800  0.72400  0.82540  1.0000
  O   O88       1.0  0.47200  0.72400  0.67460  1.0000
  O   O89       1.0  0.09530  0.80310  0.20710  1.0000
  O   O90       1.0  0.90470  0.80310  0.29290  1.0000
  O   O91       1.0  0.59530  0.30310  0.20710  1.0000
  O   O92       1.0  0.40470  0.30310  0.29290  1.0000
  O   O93       1.0  0.90470  0.19690  0.79290  1.0000
  O   O94       1.0  0.09530  0.19690  0.70710  1.0000
  O   O95       1.0  0.40470  0.69690  0.79290  1.0000
  O   O96       1.0  0.59530  0.69690  0.70710  1.0000
