data_image0
_chemical_formula_structural       C24H8C24H8C8H8C32H8C24H8C8H8C16H8C32H8C16H8C8H8C16H8C24Ho12N8H8O96
_chemical_formula_sum              "C232 H96 Ho12 N8 O96"
_cell_length_a       18.951
_cell_length_b       23.186
_cell_length_c       21.379
_cell_angle_alpha    90
_cell_angle_beta     102.011
_cell_angle_gamma    90

_space_group_name_H-M_alt    "P 1"
_space_group_IT_number       1

loop_
  _space_group_symop_operation_xyz
  'x, y, z'

loop_
  _atom_site_type_symbol
  _atom_site_label
  _atom_site_symmetry_multiplicity
  _atom_site_fract_x
  _atom_site_fract_y
  _atom_site_fract_z
  _atom_site_occupancy
  C   C1        1.0  0.41680  0.53680  0.38960  1.0000
  C   C2        1.0  0.58320  0.53680  0.11040  1.0000
  C   C3        1.0  0.91680  0.03680  0.38960  1.0000
  C   C4        1.0  0.08320  0.03680  0.11040  1.0000
  C   C5        1.0  0.58320  0.46320  0.61040  1.0000
  C   C6        1.0  0.41680  0.46320  0.88960  1.0000
  C   C7        1.0  0.08320  0.96320  0.61040  1.0000
  C   C8        1.0  0.91680  0.96320  0.88960  1.0000
  C   C9        1.0  0.37130  0.55680  0.32650  1.0000
  C   C10       1.0  0.62870  0.55680  0.17350  1.0000
  C   C11       1.0  0.87130  0.05680  0.32650  1.0000
  C   C12       1.0  0.12870  0.05680  0.17350  1.0000
  C   C13       1.0  0.62870  0.44320  0.67350  1.0000
  C   C14       1.0  0.37130  0.44320  0.82650  1.0000
  C   C15       1.0  0.12870  0.94320  0.67350  1.0000
  C   C16       1.0  0.87130  0.94320  0.82650  1.0000
  C   C17       1.0  0.39090  0.54080  0.26920  1.0000
  C   C18       1.0  0.60910  0.54080  0.23080  1.0000
  C   C19       1.0  0.89090  0.04080  0.26920  1.0000
  C   C20       1.0  0.10910  0.04080  0.23080  1.0000
  C   C21       1.0  0.60910  0.45920  0.73080  1.0000
  C   C22       1.0  0.39090  0.45920  0.76920  1.0000
  C   C23       1.0  0.10910  0.95920  0.73080  1.0000
  C   C24       1.0  0.89090  0.95920  0.76920  1.0000
  H   H1        1.0  0.43220  0.51880  0.27060  1.0000
  H   H2        1.0  0.56780  0.51880  0.22940  1.0000
  H   H3        1.0  0.93220  0.01880  0.27060  1.0000
  H   H4        1.0  0.06780  0.01880  0.22940  1.0000
  H   H5        1.0  0.56780  0.48120  0.72940  1.0000
  H   H6        1.0  0.43220  0.48120  0.77060  1.0000
  H   H7        1.0  0.06780  0.98120  0.72940  1.0000
  H   H8        1.0  0.93220  0.98120  0.77060  1.0000
  C   C25       1.0  0.35020  0.55730  0.21080  1.0000
  C   C26       1.0  0.64980  0.55730  0.28920  1.0000
  C   C27       1.0  0.85020  0.05730  0.21080  1.0000
  C   C28       1.0  0.14980  0.05730  0.28920  1.0000
  C   C29       1.0  0.64980  0.44270  0.78920  1.0000
  C   C30       1.0  0.35020  0.44270  0.71080  1.0000
  C   C31       1.0  0.14980  0.94270  0.78920  1.0000
  C   C32       1.0  0.85020  0.94270  0.71080  1.0000
  C   C33       1.0  0.28750  0.59130  0.20810  1.0000
  C   C34       1.0  0.71250  0.59130  0.29190  1.0000
  C   C35       1.0  0.78750  0.09130  0.20810  1.0000
  C   C36       1.0  0.21250  0.09130  0.29190  1.0000
  C   C37       1.0  0.71250  0.40870  0.79190  1.0000
  C   C38       1.0  0.28750  0.40870  0.70810  1.0000
  C   C39       1.0  0.21250  0.90870  0.79190  1.0000
  C   C40       1.0  0.78750  0.90870  0.70810  1.0000
  C   C41       1.0  0.26790  0.60610  0.26520  1.0000
  C   C42       1.0  0.73210  0.60610  0.23480  1.0000
  C   C43       1.0  0.76790  0.10610  0.26520  1.0000
  C   C44       1.0  0.23210  0.10610  0.23480  1.0000
  C   C45       1.0  0.73210  0.39390  0.73480  1.0000
  C   C46       1.0  0.26790  0.39390  0.76520  1.0000
  C   C47       1.0  0.23210  0.89390  0.73480  1.0000
  C   C48       1.0  0.76790  0.89390  0.76520  1.0000
  H   H9        1.0  0.22650  0.62800  0.26410  1.0000
  H   H10       1.0  0.77350  0.62800  0.23590  1.0000
  H   H11       1.0  0.72650  0.12800  0.26410  1.0000
  H   H12       1.0  0.27350  0.12800  0.23590  1.0000
  H   H13       1.0  0.77350  0.37200  0.73590  1.0000
  H   H14       1.0  0.22650  0.37200  0.76410  1.0000
  H   H15       1.0  0.27350  0.87200  0.73590  1.0000
  H   H16       1.0  0.72650  0.87200  0.76410  1.0000
  C   C49       1.0  0.30870  0.58890  0.32330  1.0000
  C   C50       1.0  0.69130  0.58890  0.17670  1.0000
  C   C51       1.0  0.80870  0.08890  0.32330  1.0000
  C   C52       1.0  0.19130  0.08890  0.17670  1.0000
  C   C53       1.0  0.69130  0.41110  0.67670  1.0000
  C   C54       1.0  0.30870  0.41110  0.82330  1.0000
  C   C55       1.0  0.19130  0.91110  0.67670  1.0000
  C   C56       1.0  0.80870  0.91110  0.82330  1.0000
  H   H17       1.0  0.29430  0.59900  0.36090  1.0000
  H   H18       1.0  0.70570  0.59900  0.13910  1.0000
  H   H19       1.0  0.79430  0.09900  0.36090  1.0000
  H   H20       1.0  0.20570  0.09900  0.13910  1.0000
  H   H21       1.0  0.70570  0.40100  0.63910  1.0000
  H   H22       1.0  0.29430  0.40100  0.86090  1.0000
  H   H23       1.0  0.20570  0.90100  0.63910  1.0000
  H   H24       1.0  0.79430  0.90100  0.86090  1.0000
  C   C57       1.0  0.37570  0.53860  0.15210  1.0000
  C   C58       1.0  0.62430  0.53860  0.34790  1.0000
  C   C59       1.0  0.87570  0.03860  0.15210  1.0000
  C   C60       1.0  0.12430  0.03860  0.34790  1.0000
  C   C61       1.0  0.62430  0.46140  0.84790  1.0000
  C   C62       1.0  0.37570  0.46140  0.65210  1.0000
  C   C63       1.0  0.12430  0.96140  0.84790  1.0000
  C   C64       1.0  0.87570  0.96140  0.65210  1.0000
  C   C65       1.0  0.23910  0.60830  0.14690  1.0000
  C   C66       1.0  0.76090  0.60830  0.35310  1.0000
  C   C67       1.0  0.73910  0.10830  0.14690  1.0000
  C   C68       1.0  0.26090  0.10830  0.35310  1.0000
  C   C69       1.0  0.76090  0.39170  0.85310  1.0000
  C   C70       1.0  0.23910  0.39170  0.64690  1.0000
  C   C71       1.0  0.26090  0.89170  0.85310  1.0000
  C   C72       1.0  0.73910  0.89170  0.64690  1.0000
  C   C73       1.0  0.16870  0.58440  0.04510  1.0000
  C   C74       1.0  0.83130  0.58440  0.45490  1.0000
  C   C75       1.0  0.66870  0.08440  0.04510  1.0000
  C   C76       1.0  0.33130  0.08440  0.45490  1.0000
  C   C77       1.0  0.83130  0.41560  0.95490  1.0000
  C   C78       1.0  0.16870  0.41560  0.54510  1.0000
  C   C79       1.0  0.33130  0.91560  0.95490  1.0000
  C   C80       1.0  0.66870  0.91560  0.54510  1.0000
  C   C81       1.0  0.14250  0.63900  0.03790  1.0000
  C   C82       1.0  0.85750  0.63900  0.46210  1.0000
  C   C83       1.0  0.64250  0.13900  0.03790  1.0000
  C   C84       1.0  0.35750  0.13900  0.46210  1.0000
  C   C85       1.0  0.85750  0.36100  0.96210  1.0000
  C   C86       1.0  0.14250  0.36100  0.53790  1.0000
  C   C87       1.0  0.35750  0.86100  0.96210  1.0000
  C   C88       1.0  0.64250  0.86100  0.53790  1.0000
  H   H25       1.0  0.10990  0.64960  0.00090  1.0000
  H   H26       1.0  0.89010  0.64960  0.49910  1.0000
  H   H27       1.0  0.60990  0.14960  0.00090  1.0000
  H   H28       1.0  0.39010  0.14960  0.49910  1.0000
  H   H29       1.0  0.89010  0.35040  0.99910  1.0000
  H   H30       1.0  0.10990  0.35040  0.50090  1.0000
  H   H31       1.0  0.39010  0.85040  0.99910  1.0000
  H   H32       1.0  0.60990  0.85040  0.50090  1.0000
  C   C89       1.0  0.16450  0.67830  0.08590  1.0000
  C   C90       1.0  0.83550  0.67830  0.41410  1.0000
  C   C91       1.0  0.66450  0.17830  0.08590  1.0000
  C   C92       1.0  0.33550  0.17830  0.41410  1.0000
  C   C93       1.0  0.83550  0.32170  0.91410  1.0000
  C   C94       1.0  0.16450  0.32170  0.58590  1.0000
  C   C95       1.0  0.33550  0.82170  0.91410  1.0000
  C   C96       1.0  0.66450  0.82170  0.58590  1.0000
  C   C97       1.0  0.14160  0.54240  0.99330  1.0000
  C   C98       1.0  0.85840  0.54240  0.50670  1.0000
  C   C99       1.0  0.64160  0.04240  0.99330  1.0000
  C   C100      1.0  0.35840  0.04240  0.50670  1.0000
  C   C101      1.0  0.85840  0.45760  0.00670  1.0000
  C   C102      1.0  0.14160  0.45760  0.49330  1.0000
  C   C103      1.0  0.35840  0.95760  0.00670  1.0000
  C   C104      1.0  0.64160  0.95760  0.49330  1.0000
  C   C105      1.0  0.06900  0.54230  0.96540  1.0000
  C   C106      1.0  0.93100  0.54230  0.53460  1.0000
  C   C107      1.0  0.56900  0.04230  0.96540  1.0000
  C   C108      1.0  0.43100  0.04230  0.53460  1.0000
  C   C109      1.0  0.93100  0.45770  0.03460  1.0000
  C   C110      1.0  0.06900  0.45770  0.46540  1.0000
  C   C111      1.0  0.43100  0.95770  0.03460  1.0000
  C   C112      1.0  0.56900  0.95770  0.46540  1.0000
  H   H33       1.0  0.03850  0.56920  0.97830  1.0000
  H   H34       1.0  0.96150  0.56920  0.52170  1.0000
  H   H35       1.0  0.53850  0.06920  0.97830  1.0000
  H   H36       1.0  0.46150  0.06920  0.52170  1.0000
  H   H37       1.0  0.96150  0.43080  0.02170  1.0000
  H   H38       1.0  0.03850  0.43080  0.47830  1.0000
  H   H39       1.0  0.46150  0.93080  0.02170  1.0000
  H   H40       1.0  0.53850  0.93080  0.47830  1.0000
  C   C113      1.0  0.04160  0.50330  0.91930  1.0000
  C   C114      1.0  0.95840  0.50330  0.58070  1.0000
  C   C115      1.0  0.54160  0.00330  0.91930  1.0000
  C   C116      1.0  0.45840  0.00330  0.58070  1.0000
  C   C117      1.0  0.95840  0.49670  0.08070  1.0000
  C   C118      1.0  0.04160  0.49670  0.41930  1.0000
  C   C119      1.0  0.45840  0.99670  0.08070  1.0000
  C   C120      1.0  0.54160  0.99670  0.41930  1.0000
  H   H41       1.0  0.99210  0.50270  0.90280  1.0000
  H   H42       1.0  0.00790  0.50270  0.59720  1.0000
  H   H43       1.0  0.49210  0.00270  0.90280  1.0000
  H   H44       1.0  0.50790  0.00270  0.59720  1.0000
  H   H45       1.0  0.00790  0.49730  0.09720  1.0000
  H   H46       1.0  0.99210  0.49730  0.40280  1.0000
  H   H47       1.0  0.50790  0.99730  0.09720  1.0000
  H   H48       1.0  0.49210  0.99730  0.40280  1.0000
  C   C121      1.0  0.08580  0.46450  0.89640  1.0000
  C   C122      1.0  0.91420  0.46450  0.60360  1.0000
  C   C123      1.0  0.58580  0.96450  0.89640  1.0000
  C   C124      1.0  0.41420  0.96450  0.60360  1.0000
  C   C125      1.0  0.91420  0.53550  0.10360  1.0000
  C   C126      1.0  0.08580  0.53550  0.39640  1.0000
  C   C127      1.0  0.41420  0.03550  0.10360  1.0000
  C   C128      1.0  0.58580  0.03550  0.39640  1.0000
  C   C129      1.0  0.15820  0.46280  0.92360  1.0000
  C   C130      1.0  0.84180  0.46280  0.57640  1.0000
  C   C131      1.0  0.65820  0.96280  0.92360  1.0000
  C   C132      1.0  0.34180  0.96280  0.57640  1.0000
  C   C133      1.0  0.84180  0.53720  0.07640  1.0000
  C   C134      1.0  0.15820  0.53720  0.42360  1.0000
  C   C135      1.0  0.34180  0.03720  0.07640  1.0000
  C   C136      1.0  0.65820  0.03720  0.42360  1.0000
  H   H49       1.0  0.18800  0.43610  0.90950  1.0000
  H   H50       1.0  0.81200  0.43610  0.59050  1.0000
  H   H51       1.0  0.68800  0.93610  0.90950  1.0000
  H   H52       1.0  0.31200  0.93610  0.59050  1.0000
  H   H53       1.0  0.81200  0.56390  0.09050  1.0000
  H   H54       1.0  0.18800  0.56390  0.40950  1.0000
  H   H55       1.0  0.31200  0.06390  0.09050  1.0000
  H   H56       1.0  0.68800  0.06390  0.40950  1.0000
  C   C137      1.0  0.18640  0.50130  0.97240  1.0000
  C   C138      1.0  0.81360  0.50130  0.52760  1.0000
  C   C139      1.0  0.68640  0.00130  0.97240  1.0000
  C   C140      1.0  0.31360  0.00130  0.52760  1.0000
  C   C141      1.0  0.81360  0.49870  0.02760  1.0000
  C   C142      1.0  0.18640  0.49870  0.47240  1.0000
  C   C143      1.0  0.31360  0.99870  0.02760  1.0000
  C   C144      1.0  0.68640  0.99870  0.47240  1.0000
  C   C145      1.0  0.26740  0.50010  0.99780  1.0000
  C   C146      1.0  0.73260  0.50010  0.50220  1.0000
  C   C147      1.0  0.76740  0.00010  0.99780  1.0000
  C   C148      1.0  0.23260  0.00010  0.50220  1.0000
  C   C149      1.0  0.73260  0.49990  0.00220  1.0000
  C   C150      1.0  0.26740  0.49990  0.49780  1.0000
  C   C151      1.0  0.23260  0.99990  0.00220  1.0000
  C   C152      1.0  0.76740  0.99990  0.49780  1.0000
  C   C153      1.0  0.05680  0.42350  0.84190  1.0000
  C   C154      1.0  0.94320  0.42350  0.65810  1.0000
  C   C155      1.0  0.55680  0.92350  0.84190  1.0000
  C   C156      1.0  0.44320  0.92350  0.65810  1.0000
  C   C157      1.0  0.94320  0.57650  0.15810  1.0000
  C   C158      1.0  0.05680  0.57650  0.34190  1.0000
  C   C159      1.0  0.44320  0.07650  0.15810  1.0000
  C   C160      1.0  0.55680  0.07650  0.34190  1.0000
  C   C161      1.0  0.21310  0.66390  0.14010  1.0000
  C   C162      1.0  0.78690  0.66390  0.35990  1.0000
  C   C163      1.0  0.71310  0.16390  0.14010  1.0000
  C   C164      1.0  0.28690  0.16390  0.35990  1.0000
  C   C165      1.0  0.78690  0.33610  0.85990  1.0000
  C   C166      1.0  0.21310  0.33610  0.64010  1.0000
  C   C167      1.0  0.28690  0.83610  0.85990  1.0000
  C   C168      1.0  0.71310  0.83610  0.64010  1.0000
  H   H57       1.0  0.22830  0.69110  0.17200  1.0000
  H   H58       1.0  0.77170  0.69110  0.32800  1.0000
  H   H59       1.0  0.72830  0.19110  0.17200  1.0000
  H   H60       1.0  0.27170  0.19110  0.32800  1.0000
  H   H61       1.0  0.77170  0.30890  0.82800  1.0000
  H   H62       1.0  0.22830  0.30890  0.67200  1.0000
  H   H63       1.0  0.27170  0.80890  0.82800  1.0000
  H   H64       1.0  0.72830  0.80890  0.67200  1.0000
  C   C169      1.0  0.12940  0.73620  0.07790  1.0000
  C   C170      1.0  0.87060  0.73620  0.42210  1.0000
  C   C171      1.0  0.62940  0.23620  0.07790  1.0000
  C   C172      1.0  0.37060  0.23620  0.42210  1.0000
  C   C173      1.0  0.87060  0.26380  0.92210  1.0000
  C   C174      1.0  0.12940  0.26380  0.57790  1.0000
  C   C175      1.0  0.37060  0.76380  0.92210  1.0000
  C   C176      1.0  0.62940  0.76380  0.57790  1.0000
  C   C177      1.0  0.14380  0.77490  0.03260  1.0000
  C   C178      1.0  0.85620  0.77490  0.46740  1.0000
  C   C179      1.0  0.64380  0.27490  0.03260  1.0000
  C   C180      1.0  0.35620  0.27490  0.46740  1.0000
  C   C181      1.0  0.85620  0.22510  0.96740  1.0000
  C   C182      1.0  0.14380  0.22510  0.53260  1.0000
  C   C183      1.0  0.35620  0.72510  0.96740  1.0000
  C   C184      1.0  0.64380  0.72510  0.53260  1.0000
  H   H65       1.0  0.17830  0.76540  0.00920  1.0000
  H   H66       1.0  0.82170  0.76540  0.49080  1.0000
  H   H67       1.0  0.67830  0.26540  0.00920  1.0000
  H   H68       1.0  0.32170  0.26540  0.49080  1.0000
  H   H69       1.0  0.82170  0.23460  0.99080  1.0000
  H   H70       1.0  0.17830  0.23460  0.50920  1.0000
  H   H71       1.0  0.32170  0.73460  0.99080  1.0000
  H   H72       1.0  0.67830  0.73460  0.50920  1.0000
  C   C185      1.0  0.10810  0.82780  0.02110  1.0000
  C   C186      1.0  0.89190  0.82780  0.47890  1.0000
  C   C187      1.0  0.60810  0.32780  0.02110  1.0000
  C   C188      1.0  0.39190  0.32780  0.47890  1.0000
  C   C189      1.0  0.89190  0.17220  0.97890  1.0000
  C   C190      1.0  0.10810  0.17220  0.52110  1.0000
  C   C191      1.0  0.39190  0.67220  0.97890  1.0000
  C   C192      1.0  0.60810  0.67220  0.52110  1.0000
  H   H73       1.0  0.11850  0.85280  0.99020  1.0000
  H   H74       1.0  0.88150  0.85280  0.50980  1.0000
  H   H75       1.0  0.61850  0.35280  0.99020  1.0000
  H   H76       1.0  0.38150  0.35280  0.50980  1.0000
  H   H77       1.0  0.88150  0.14720  0.00980  1.0000
  H   H78       1.0  0.11850  0.14720  0.49020  1.0000
  H   H79       1.0  0.38150  0.64720  0.00980  1.0000
  H   H80       1.0  0.61850  0.64720  0.49020  1.0000
  C   C193      1.0  0.05720  0.84250  0.05590  1.0000
  C   C194      1.0  0.94280  0.84250  0.44410  1.0000
  C   C195      1.0  0.55720  0.34250  0.05590  1.0000
  C   C196      1.0  0.44280  0.34250  0.44410  1.0000
  C   C197      1.0  0.94280  0.15750  0.94410  1.0000
  C   C198      1.0  0.05720  0.15750  0.55590  1.0000
  C   C199      1.0  0.44280  0.65750  0.94410  1.0000
  C   C200      1.0  0.55720  0.65750  0.55590  1.0000
  C   C201      1.0  0.04270  0.80490  0.10110  1.0000
  C   C202      1.0  0.95730  0.80490  0.39890  1.0000
  C   C203      1.0  0.54270  0.30490  0.10110  1.0000
  C   C204      1.0  0.45730  0.30490  0.39890  1.0000
  C   C205      1.0  0.95730  0.19510  0.89890  1.0000
  C   C206      1.0  0.04270  0.19510  0.60110  1.0000
  C   C207      1.0  0.45730  0.69510  0.89890  1.0000
  C   C208      1.0  0.54270  0.69510  0.60110  1.0000
  H   H81       1.0  0.00770  0.81460  0.12390  1.0000
  H   H82       1.0  0.99230  0.81460  0.37610  1.0000
  H   H83       1.0  0.50770  0.31460  0.12390  1.0000
  H   H84       1.0  0.49230  0.31460  0.37610  1.0000
  H   H85       1.0  0.99230  0.18540  0.87610  1.0000
  H   H86       1.0  0.00770  0.18540  0.62390  1.0000
  H   H87       1.0  0.49230  0.68540  0.87610  1.0000
  H   H88       1.0  0.50770  0.68540  0.62390  1.0000
  C   C209      1.0  0.07920  0.75230  0.11390  1.0000
  C   C210      1.0  0.92080  0.75230  0.38610  1.0000
  C   C211      1.0  0.57920  0.25230  0.11390  1.0000
  C   C212      1.0  0.42080  0.25230  0.38610  1.0000
  C   C213      1.0  0.92080  0.24770  0.88610  1.0000
  C   C214      1.0  0.07920  0.24770  0.61390  1.0000
  C   C215      1.0  0.42080  0.74770  0.88610  1.0000
  C   C216      1.0  0.57920  0.74770  0.61390  1.0000
  C   C217      1.0  0.05710  0.71430  0.16340  1.0000
  C   C218      1.0  0.94290  0.71430  0.33660  1.0000
  C   C219      1.0  0.55710  0.21430  0.16340  1.0000
  C   C220      1.0  0.44290  0.21430  0.33660  1.0000
  C   C221      1.0  0.94290  0.28570  0.83660  1.0000
  C   C222      1.0  0.05710  0.28570  0.66340  1.0000
  C   C223      1.0  0.44290  0.78570  0.83660  1.0000
  C   C224      1.0  0.55710  0.78570  0.66340  1.0000
  C   C225      1.0  0.01490  0.89670  0.04430  1.0000
  C   C226      1.0  0.98510  0.89670  0.45570  1.0000
  C   C227      1.0  0.51490  0.39670  0.04430  1.0000
  C   C228      1.0  0.48510  0.39670  0.45570  1.0000
  C   C229      1.0  0.98510  0.10330  0.95570  1.0000
  C   C230      1.0  0.01490  0.10330  0.54430  1.0000
  C   C231      1.0  0.48510  0.60330  0.95570  1.0000
  C   C232      1.0  0.51490  0.60330  0.54430  1.0000
  Ho  Ho1       1.0  0.41577  0.49586  0.04149  1.0000
  Ho  Ho2       1.0  0.58423  0.49586  0.45851  1.0000
  Ho  Ho3       1.0  0.91577  0.99586  0.04149  1.0000
  Ho  Ho4       1.0  0.08423  0.99586  0.45851  1.0000
  Ho  Ho5       1.0  0.58423  0.50414  0.95851  1.0000
  Ho  Ho6       1.0  0.41577  0.50414  0.54149  1.0000
  Ho  Ho7       1.0  0.08423  0.00414  0.95851  1.0000
  Ho  Ho8       1.0  0.91577  0.00414  0.54149  1.0000
  Ho  Ho9       1.0  0.00000  0.34576  0.75000  1.0000
  Ho  Ho10      1.0  0.50000  0.84576  0.75000  1.0000
  Ho  Ho11      1.0  0.00000  0.65424  0.25000  1.0000
  Ho  Ho12      1.0  0.50000  0.15424  0.25000  1.0000
  N   N1        1.0  0.21630  0.56770  0.09940  1.0000
  N   N2        1.0  0.78370  0.56770  0.40060  1.0000
  N   N3        1.0  0.71630  0.06770  0.09940  1.0000
  N   N4        1.0  0.28370  0.06770  0.40060  1.0000
  N   N5        1.0  0.78370  0.43230  0.90060  1.0000
  N   N6        1.0  0.21630  0.43230  0.59940  1.0000
  N   N7        1.0  0.28370  0.93230  0.90060  1.0000
  N   N8        1.0  0.71630  0.93230  0.59940  1.0000
  H   H89       1.0  0.23180  0.53280  0.10390  1.0000
  H   H90       1.0  0.76820  0.53280  0.39610  1.0000
  H   H91       1.0  0.73180  0.03280  0.10390  1.0000
  H   H92       1.0  0.26820  0.03280  0.39610  1.0000
  H   H93       1.0  0.76820  0.46720  0.89610  1.0000
  H   H94       1.0  0.23180  0.46720  0.60390  1.0000
  H   H95       1.0  0.26820  0.96720  0.89610  1.0000
  H   H96       1.0  0.73180  0.96720  0.60390  1.0000
  O   O1        1.0  0.39090  0.54410  0.43870  1.0000
  O   O2        1.0  0.60910  0.54410  0.06130  1.0000
  O   O3        1.0  0.89090  0.04410  0.43870  1.0000
  O   O4        1.0  0.10910  0.04410  0.06130  1.0000
  O   O5        1.0  0.60910  0.45590  0.56130  1.0000
  O   O6        1.0  0.39090  0.45590  0.93870  1.0000
  O   O7        1.0  0.10910  0.95590  0.56130  1.0000
  O   O8        1.0  0.89090  0.95590  0.93870  1.0000
  O   O9        1.0  0.47660  0.51560  0.38750  1.0000
  O   O10       1.0  0.52340  0.51560  0.11250  1.0000
  O   O11       1.0  0.97660  0.01560  0.38750  1.0000
  O   O12       1.0  0.02340  0.01560  0.11250  1.0000
  O   O13       1.0  0.52340  0.48440  0.61250  1.0000
  O   O14       1.0  0.47660  0.48440  0.88750  1.0000
  O   O15       1.0  0.02340  0.98440  0.61250  1.0000
  O   O16       1.0  0.97660  0.98440  0.88750  1.0000
  O   O17       1.0  0.38870  0.48520  0.14650  1.0000
  O   O18       1.0  0.61130  0.48520  0.35350  1.0000
  O   O19       1.0  0.88870  0.98520  0.14650  1.0000
  O   O20       1.0  0.11130  0.98520  0.35350  1.0000
  O   O21       1.0  0.61130  0.51480  0.85350  1.0000
  O   O22       1.0  0.38870  0.51480  0.64650  1.0000
  O   O23       1.0  0.11130  0.01480  0.85350  1.0000
  O   O24       1.0  0.88870  0.01480  0.64650  1.0000
  O   O25       1.0  0.38350  0.57350  0.11080  1.0000
  O   O26       1.0  0.61650  0.57350  0.38920  1.0000
  O   O27       1.0  0.88350  0.07350  0.11080  1.0000
  O   O28       1.0  0.11650  0.07350  0.38920  1.0000
  O   O29       1.0  0.61650  0.42650  0.88920  1.0000
  O   O30       1.0  0.38350  0.42650  0.61080  1.0000
  O   O31       1.0  0.11650  0.92650  0.88920  1.0000
  O   O32       1.0  0.88350  0.92650  0.61080  1.0000
  O   O33       1.0  0.29560  0.45520  0.02650  1.0000
  O   O34       1.0  0.70440  0.45520  0.47350  1.0000
  O   O35       1.0  0.79560  0.95520  0.02650  1.0000
  O   O36       1.0  0.20440  0.95520  0.47350  1.0000
  O   O37       1.0  0.70440  0.54480  0.97350  1.0000
  O   O38       1.0  0.29560  0.54480  0.52650  1.0000
  O   O39       1.0  0.20440  0.04480  0.97350  1.0000
  O   O40       1.0  0.79560  0.04480  0.52650  1.0000
  O   O41       1.0  0.30500  0.54220  0.98790  1.0000
  O   O42       1.0  0.69500  0.54220  0.51210  1.0000
  O   O43       1.0  0.80500  0.04220  0.98790  1.0000
  O   O44       1.0  0.19500  0.04220  0.51210  1.0000
  O   O45       1.0  0.69500  0.45780  0.01210  1.0000
  O   O46       1.0  0.30500  0.45780  0.48790  1.0000
  O   O47       1.0  0.19500  0.95780  0.01210  1.0000
  O   O48       1.0  0.80500  0.95780  0.48790  1.0000
  O   O49       1.0  0.09760  0.38910  0.82240  1.0000
  O   O50       1.0  0.90240  0.38910  0.67760  1.0000
  O   O51       1.0  0.59760  0.88910  0.82240  1.0000
  O   O52       1.0  0.40240  0.88910  0.67760  1.0000
  O   O53       1.0  0.90240  0.61090  0.17760  1.0000
  O   O54       1.0  0.09760  0.61090  0.32240  1.0000
  O   O55       1.0  0.40240  0.11090  0.17760  1.0000
  O   O56       1.0  0.59760  0.11090  0.32240  1.0000
  O   O57       1.0  0.99020  0.42380  0.81830  1.0000
  O   O58       1.0  0.00980  0.42380  0.68170  1.0000
  O   O59       1.0  0.49020  0.92380  0.81830  1.0000
  O   O60       1.0  0.50980  0.92380  0.68170  1.0000
  O   O61       1.0  0.00980  0.57620  0.18170  1.0000
  O   O62       1.0  0.99020  0.57620  0.31830  1.0000
  O   O63       1.0  0.50980  0.07620  0.18170  1.0000
  O   O64       1.0  0.49020  0.07620  0.31830  1.0000
  O   O65       1.0  0.97620  0.72170  0.17240  1.0000
  O   O66       1.0  0.02380  0.72170  0.32760  1.0000
  O   O67       1.0  0.47620  0.22170  0.17240  1.0000
  O   O68       1.0  0.52380  0.22170  0.32760  1.0000
  O   O69       1.0  0.02380  0.27830  0.82760  1.0000
  O   O70       1.0  0.97620  0.27830  0.67240  1.0000
  O   O71       1.0  0.52380  0.77830  0.82760  1.0000
  O   O72       1.0  0.47620  0.77830  0.67240  1.0000
  O   O73       1.0  0.09290  0.69380  0.20700  1.0000
  O   O74       1.0  0.90710  0.69380  0.29300  1.0000
  O   O75       1.0  0.59290  0.19380  0.20700  1.0000
  O   O76       1.0  0.40710  0.19380  0.29300  1.0000
  O   O77       1.0  0.90710  0.30620  0.79300  1.0000
  O   O78       1.0  0.09290  0.30620  0.70700  1.0000
  O   O79       1.0  0.40710  0.80620  0.79300  1.0000
  O   O80       1.0  0.59290  0.80620  0.70700  1.0000
  O   O81       1.0  0.95950  0.90250  0.06770  1.0000
  O   O82       1.0  0.04050  0.90250  0.43230  1.0000
  O   O83       1.0  0.45950  0.40250  0.06770  1.0000
  O   O84       1.0  0.54050  0.40250  0.43230  1.0000
  O   O85       1.0  0.04050  0.09750  0.93230  1.0000
  O   O86       1.0  0.95950  0.09750  0.56770  1.0000
  O   O87       1.0  0.54050  0.59750  0.93230  1.0000
  O   O88       1.0  0.45950  0.59750  0.56770  1.0000
  O   O89       1.0  0.03530  0.93630  0.01160  1.0000
  O   O90       1.0  0.96470  0.93630  0.48840  1.0000
  O   O91       1.0  0.53530  0.43630  0.01160  1.0000
  O   O92       1.0  0.46470  0.43630  0.48840  1.0000
  O   O93       1.0  0.96470  0.06370  0.98840  1.0000
  O   O94       1.0  0.03530  0.06370  0.51160  1.0000
  O   O95       1.0  0.46470  0.56370  0.98840  1.0000
  O   O96       1.0  0.53530  0.56370  0.51160  1.0000
