data_image0
_chemical_formula_structural       C24H8C16H8C8H8C40H8C16H8C16H8C8H8C16H8C56H8C16H8C8H8C8Er12N8H8O96
_chemical_formula_sum              "C232 H96 Er12 N8 O96"
_cell_length_a       19.0782
_cell_length_b       23.1744
_cell_length_c       21.3856
_cell_angle_alpha    90
_cell_angle_beta     101.989
_cell_angle_gamma    90

_space_group_name_H-M_alt    "P 1"
_space_group_IT_number       1

loop_
  _space_group_symop_operation_xyz
  'x, y, z'

loop_
  _atom_site_type_symbol
  _atom_site_label
  _atom_site_symmetry_multiplicity
  _atom_site_fract_x
  _atom_site_fract_y
  _atom_site_fract_z
  _atom_site_occupancy
  C   C1        1.0  0.73130  0.49890  0.00070  1.0000
  C   C2        1.0  0.26870  0.49890  0.49930  1.0000
  C   C3        1.0  0.23130  0.99890  0.00070  1.0000
  C   C4        1.0  0.76870  0.99890  0.49930  1.0000
  C   C5        1.0  0.26870  0.50110  0.99930  1.0000
  C   C6        1.0  0.73130  0.50110  0.50070  1.0000
  C   C7        1.0  0.76870  0.00110  0.99930  1.0000
  C   C8        1.0  0.23130  0.00110  0.50070  1.0000
  C   C9        1.0  0.81200  0.50060  0.02680  1.0000
  C   C10       1.0  0.18800  0.50060  0.47320  1.0000
  C   C11       1.0  0.31200  0.00060  0.02680  1.0000
  C   C12       1.0  0.68800  0.00060  0.47320  1.0000
  C   C13       1.0  0.18800  0.49940  0.97320  1.0000
  C   C14       1.0  0.81200  0.49940  0.52680  1.0000
  C   C15       1.0  0.68800  0.99940  0.97320  1.0000
  C   C16       1.0  0.31200  0.99940  0.52680  1.0000
  C   C17       1.0  0.84010  0.46310  0.07540  1.0000
  C   C18       1.0  0.15990  0.46310  0.42460  1.0000
  C   C19       1.0  0.34010  0.96310  0.07540  1.0000
  C   C20       1.0  0.65990  0.96310  0.42460  1.0000
  C   C21       1.0  0.15990  0.53690  0.92460  1.0000
  C   C22       1.0  0.84010  0.53690  0.57540  1.0000
  C   C23       1.0  0.65990  0.03690  0.92460  1.0000
  C   C24       1.0  0.34010  0.03690  0.57540  1.0000
  H   H1        1.0  0.81030  0.43680  0.08990  1.0000
  H   H2        1.0  0.18970  0.43680  0.41010  1.0000
  H   H3        1.0  0.31030  0.93680  0.08990  1.0000
  H   H4        1.0  0.68970  0.93680  0.41010  1.0000
  H   H5        1.0  0.18970  0.56320  0.91010  1.0000
  H   H6        1.0  0.81030  0.56320  0.58990  1.0000
  H   H7        1.0  0.68970  0.06320  0.91010  1.0000
  H   H8        1.0  0.31030  0.06320  0.58990  1.0000
  C   C25       1.0  0.91220  0.46440  0.10270  1.0000
  C   C26       1.0  0.08780  0.46440  0.39730  1.0000
  C   C27       1.0  0.41220  0.96440  0.10270  1.0000
  C   C28       1.0  0.58780  0.96440  0.39730  1.0000
  C   C29       1.0  0.08780  0.53560  0.89730  1.0000
  C   C30       1.0  0.91220  0.53560  0.60270  1.0000
  C   C31       1.0  0.58780  0.03560  0.89730  1.0000
  C   C32       1.0  0.41220  0.03560  0.60270  1.0000
  C   C33       1.0  0.95640  0.50410  0.08080  1.0000
  C   C34       1.0  0.04360  0.50410  0.41920  1.0000
  C   C35       1.0  0.45640  0.00410  0.08080  1.0000
  C   C36       1.0  0.54360  0.00410  0.41920  1.0000
  C   C37       1.0  0.04360  0.49590  0.91920  1.0000
  C   C38       1.0  0.95640  0.49590  0.58080  1.0000
  C   C39       1.0  0.54360  0.99590  0.91920  1.0000
  C   C40       1.0  0.45640  0.99590  0.58080  1.0000
  H   H9        1.0  0.00520  0.50470  0.09870  1.0000
  H   H10       1.0  0.99480  0.50470  0.40130  1.0000
  H   H11       1.0  0.50520  0.00470  0.09870  1.0000
  H   H12       1.0  0.49480  0.00470  0.40130  1.0000
  H   H13       1.0  0.99480  0.49530  0.90130  1.0000
  H   H14       1.0  0.00520  0.49530  0.59870  1.0000
  H   H15       1.0  0.49480  0.99530  0.90130  1.0000
  H   H16       1.0  0.50520  0.99530  0.59870  1.0000
  C   C41       1.0  0.92870  0.54210  0.03330  1.0000
  C   C42       1.0  0.07130  0.54210  0.46670  1.0000
  C   C43       1.0  0.42870  0.04210  0.03330  1.0000
  C   C44       1.0  0.57130  0.04210  0.46670  1.0000
  C   C45       1.0  0.07130  0.45790  0.96670  1.0000
  C   C46       1.0  0.92870  0.45790  0.53330  1.0000
  C   C47       1.0  0.57130  0.95790  0.96670  1.0000
  C   C48       1.0  0.42870  0.95790  0.53330  1.0000
  H   H17       1.0  0.95890  0.56850  0.01950  1.0000
  H   H18       1.0  0.04110  0.56850  0.48050  1.0000
  H   H19       1.0  0.45890  0.06850  0.01950  1.0000
  H   H20       1.0  0.54110  0.06850  0.48050  1.0000
  H   H21       1.0  0.04110  0.43150  0.98050  1.0000
  H   H22       1.0  0.95890  0.43150  0.51950  1.0000
  H   H23       1.0  0.54110  0.93150  0.98050  1.0000
  H   H24       1.0  0.45890  0.93150  0.51950  1.0000
  C   C49       1.0  0.85650  0.54210  0.00520  1.0000
  C   C50       1.0  0.14350  0.54210  0.49480  1.0000
  C   C51       1.0  0.35650  0.04210  0.00520  1.0000
  C   C52       1.0  0.64350  0.04210  0.49480  1.0000
  C   C53       1.0  0.14350  0.45790  0.99480  1.0000
  C   C54       1.0  0.85650  0.45790  0.50520  1.0000
  C   C55       1.0  0.64350  0.95790  0.99480  1.0000
  C   C56       1.0  0.35650  0.95790  0.50520  1.0000
  C   C57       1.0  0.94250  0.42400  0.15680  1.0000
  C   C58       1.0  0.05750  0.42400  0.34320  1.0000
  C   C59       1.0  0.44250  0.92400  0.15680  1.0000
  C   C60       1.0  0.55750  0.92400  0.34320  1.0000
  C   C61       1.0  0.05750  0.57600  0.84320  1.0000
  C   C62       1.0  0.94250  0.57600  0.65680  1.0000
  C   C63       1.0  0.55750  0.07600  0.84320  1.0000
  C   C64       1.0  0.44250  0.07600  0.65680  1.0000
  C   C65       1.0  0.82930  0.58410  0.95350  1.0000
  C   C66       1.0  0.17070  0.58410  0.54650  1.0000
  C   C67       1.0  0.32930  0.08410  0.95350  1.0000
  C   C68       1.0  0.67070  0.08410  0.54650  1.0000
  C   C69       1.0  0.17070  0.41590  0.04650  1.0000
  C   C70       1.0  0.82930  0.41590  0.45350  1.0000
  C   C71       1.0  0.67070  0.91590  0.04650  1.0000
  C   C72       1.0  0.32930  0.91590  0.45350  1.0000
  C   C73       1.0  0.75930  0.60810  0.85180  1.0000
  C   C74       1.0  0.24070  0.60810  0.64820  1.0000
  C   C75       1.0  0.25930  0.10810  0.85180  1.0000
  C   C76       1.0  0.74070  0.10810  0.64820  1.0000
  C   C77       1.0  0.24070  0.39190  0.14820  1.0000
  C   C78       1.0  0.75930  0.39190  0.35180  1.0000
  C   C79       1.0  0.74070  0.89190  0.14820  1.0000
  C   C80       1.0  0.25930  0.89190  0.35180  1.0000
  C   C81       1.0  0.78690  0.66360  0.85840  1.0000
  C   C82       1.0  0.21310  0.66360  0.64160  1.0000
  C   C83       1.0  0.28690  0.16360  0.85840  1.0000
  C   C84       1.0  0.71310  0.16360  0.64160  1.0000
  C   C85       1.0  0.21310  0.33640  0.14160  1.0000
  C   C86       1.0  0.78690  0.33640  0.35840  1.0000
  C   C87       1.0  0.71310  0.83640  0.14160  1.0000
  C   C88       1.0  0.28690  0.83640  0.35840  1.0000
  H   H25       1.0  0.77230  0.69070  0.82620  1.0000
  H   H26       1.0  0.22770  0.69070  0.67380  1.0000
  H   H27       1.0  0.27230  0.19070  0.82620  1.0000
  H   H28       1.0  0.72770  0.19070  0.67380  1.0000
  H   H29       1.0  0.22770  0.30930  0.17380  1.0000
  H   H30       1.0  0.77230  0.30930  0.32620  1.0000
  H   H31       1.0  0.72770  0.80930  0.17380  1.0000
  H   H32       1.0  0.27230  0.80930  0.32620  1.0000
  C   C89       1.0  0.83530  0.67830  0.91230  1.0000
  C   C90       1.0  0.16470  0.67830  0.58770  1.0000
  C   C91       1.0  0.33530  0.17830  0.91230  1.0000
  C   C92       1.0  0.66470  0.17830  0.58770  1.0000
  C   C93       1.0  0.16470  0.32170  0.08770  1.0000
  C   C94       1.0  0.83530  0.32170  0.41230  1.0000
  C   C95       1.0  0.66470  0.82170  0.08770  1.0000
  C   C96       1.0  0.33530  0.82170  0.41230  1.0000
  C   C97       1.0  0.85660  0.63870  0.96100  1.0000
  C   C98       1.0  0.14340  0.63870  0.53900  1.0000
  C   C99       1.0  0.35660  0.13870  0.96100  1.0000
  C   C100      1.0  0.64340  0.13870  0.53900  1.0000
  C   C101      1.0  0.14340  0.36130  0.03900  1.0000
  C   C102      1.0  0.85660  0.36130  0.46100  1.0000
  C   C103      1.0  0.64340  0.86130  0.03900  1.0000
  C   C104      1.0  0.35660  0.86130  0.46100  1.0000
  H   H33       1.0  0.88880  0.64910  0.99820  1.0000
  H   H34       1.0  0.11120  0.64910  0.50180  1.0000
  H   H35       1.0  0.38880  0.14910  0.99820  1.0000
  H   H36       1.0  0.61120  0.14910  0.50180  1.0000
  H   H37       1.0  0.11120  0.35090  0.00180  1.0000
  H   H38       1.0  0.88880  0.35090  0.49820  1.0000
  H   H39       1.0  0.61120  0.85090  0.00180  1.0000
  H   H40       1.0  0.38880  0.85090  0.49820  1.0000
  C   C105      1.0  0.86980  0.73580  0.92050  1.0000
  C   C106      1.0  0.13020  0.73580  0.57950  1.0000
  C   C107      1.0  0.36980  0.23580  0.92050  1.0000
  C   C108      1.0  0.63020  0.23580  0.57950  1.0000
  C   C109      1.0  0.13020  0.26420  0.07950  1.0000
  C   C110      1.0  0.86980  0.26420  0.42050  1.0000
  C   C111      1.0  0.63020  0.76420  0.07950  1.0000
  C   C112      1.0  0.36980  0.76420  0.42050  1.0000
  C   C113      1.0  0.85670  0.77330  0.96600  1.0000
  C   C114      1.0  0.14330  0.77330  0.53400  1.0000
  C   C115      1.0  0.35670  0.27330  0.96600  1.0000
  C   C116      1.0  0.64330  0.27330  0.53400  1.0000
  C   C117      1.0  0.14330  0.22670  0.03400  1.0000
  C   C118      1.0  0.85670  0.22670  0.46600  1.0000
  C   C119      1.0  0.64330  0.72670  0.03400  1.0000
  C   C120      1.0  0.35670  0.72670  0.46600  1.0000
  H   H41       1.0  0.82290  0.76310  0.98980  1.0000
  H   H42       1.0  0.17710  0.76310  0.51020  1.0000
  H   H43       1.0  0.32290  0.26310  0.98980  1.0000
  H   H44       1.0  0.67710  0.26310  0.51020  1.0000
  H   H45       1.0  0.17710  0.23690  0.01020  1.0000
  H   H46       1.0  0.82290  0.23690  0.48980  1.0000
  H   H47       1.0  0.67710  0.73690  0.01020  1.0000
  H   H48       1.0  0.32290  0.73690  0.48980  1.0000
  C   C121      1.0  0.89210  0.82670  0.97850  1.0000
  C   C122      1.0  0.10790  0.82670  0.52150  1.0000
  C   C123      1.0  0.39210  0.32670  0.97850  1.0000
  C   C124      1.0  0.60790  0.32670  0.52150  1.0000
  C   C125      1.0  0.10790  0.17330  0.02150  1.0000
  C   C126      1.0  0.89210  0.17330  0.47850  1.0000
  C   C127      1.0  0.60790  0.67330  0.02150  1.0000
  C   C128      1.0  0.39210  0.67330  0.47850  1.0000
  H   H49       1.0  0.88140  0.85130  0.00960  1.0000
  H   H50       1.0  0.11860  0.85130  0.49040  1.0000
  H   H51       1.0  0.38140  0.35130  0.00960  1.0000
  H   H52       1.0  0.61860  0.35130  0.49040  1.0000
  H   H53       1.0  0.11860  0.14870  0.99040  1.0000
  H   H54       1.0  0.88140  0.14870  0.50960  1.0000
  H   H55       1.0  0.61860  0.64870  0.99040  1.0000
  H   H56       1.0  0.38140  0.64870  0.50960  1.0000
  C   C129      1.0  0.94300  0.84200  0.94370  1.0000
  C   C130      1.0  0.05700  0.84200  0.55630  1.0000
  C   C131      1.0  0.44300  0.34200  0.94370  1.0000
  C   C132      1.0  0.55700  0.34200  0.55630  1.0000
  C   C133      1.0  0.05700  0.15800  0.05630  1.0000
  C   C134      1.0  0.94300  0.15800  0.44370  1.0000
  C   C135      1.0  0.55700  0.65800  0.05630  1.0000
  C   C136      1.0  0.44300  0.65800  0.44370  1.0000
  C   C137      1.0  0.95660  0.80430  0.89820  1.0000
  C   C138      1.0  0.04340  0.80430  0.60180  1.0000
  C   C139      1.0  0.45660  0.30430  0.89820  1.0000
  C   C140      1.0  0.54340  0.30430  0.60180  1.0000
  C   C141      1.0  0.04340  0.19570  0.10180  1.0000
  C   C142      1.0  0.95660  0.19570  0.39820  1.0000
  C   C143      1.0  0.54340  0.69570  0.10180  1.0000
  C   C144      1.0  0.45660  0.69570  0.39820  1.0000
  H   H57       1.0  0.99160  0.81410  0.87560  1.0000
  H   H58       1.0  0.00840  0.81410  0.62440  1.0000
  H   H59       1.0  0.49160  0.31410  0.87560  1.0000
  H   H60       1.0  0.50840  0.31410  0.62440  1.0000
  H   H61       1.0  0.00840  0.18590  0.12440  1.0000
  H   H62       1.0  0.99160  0.18590  0.37560  1.0000
  H   H63       1.0  0.50840  0.68590  0.12440  1.0000
  H   H64       1.0  0.49160  0.68590  0.37560  1.0000
  C   C145      1.0  0.92050  0.75200  0.88420  1.0000
  C   C146      1.0  0.07950  0.75200  0.61580  1.0000
  C   C147      1.0  0.42050  0.25200  0.88420  1.0000
  C   C148      1.0  0.57950  0.25200  0.61580  1.0000
  C   C149      1.0  0.07950  0.24800  0.11580  1.0000
  C   C150      1.0  0.92050  0.24800  0.38420  1.0000
  C   C151      1.0  0.57950  0.74800  0.11580  1.0000
  C   C152      1.0  0.42050  0.74800  0.38420  1.0000
  C   C153      1.0  0.58250  0.53680  0.60990  1.0000
  C   C154      1.0  0.41750  0.53680  0.89010  1.0000
  C   C155      1.0  0.08250  0.03680  0.60990  1.0000
  C   C156      1.0  0.91750  0.03680  0.89010  1.0000
  C   C157      1.0  0.41750  0.46320  0.39010  1.0000
  C   C158      1.0  0.58250  0.46320  0.10990  1.0000
  C   C159      1.0  0.91750  0.96320  0.39010  1.0000
  C   C160      1.0  0.08250  0.96320  0.10990  1.0000
  C   C161      1.0  0.94350  0.71440  0.83450  1.0000
  C   C162      1.0  0.05650  0.71440  0.66550  1.0000
  C   C163      1.0  0.44350  0.21440  0.83450  1.0000
  C   C164      1.0  0.55650  0.21440  0.66550  1.0000
  C   C165      1.0  0.05650  0.28560  0.16550  1.0000
  C   C166      1.0  0.94350  0.28560  0.33450  1.0000
  C   C167      1.0  0.55650  0.78560  0.16550  1.0000
  C   C168      1.0  0.44350  0.78560  0.33450  1.0000
  C   C169      1.0  0.98460  0.89630  0.95600  1.0000
  C   C170      1.0  0.01540  0.89630  0.54400  1.0000
  C   C171      1.0  0.48460  0.39630  0.95600  1.0000
  C   C172      1.0  0.51540  0.39630  0.54400  1.0000
  C   C173      1.0  0.01540  0.10370  0.04400  1.0000
  C   C174      1.0  0.98460  0.10370  0.45600  1.0000
  C   C175      1.0  0.51540  0.60370  0.04400  1.0000
  C   C176      1.0  0.48460  0.60370  0.45600  1.0000
  C   C177      1.0  0.71080  0.59150  0.79100  1.0000
  C   C178      1.0  0.28920  0.59150  0.70900  1.0000
  C   C179      1.0  0.21080  0.09150  0.79100  1.0000
  C   C180      1.0  0.78920  0.09150  0.70900  1.0000
  C   C181      1.0  0.28920  0.40850  0.20900  1.0000
  C   C182      1.0  0.71080  0.40850  0.29100  1.0000
  C   C183      1.0  0.78920  0.90850  0.20900  1.0000
  C   C184      1.0  0.21080  0.90850  0.29100  1.0000
  C   C185      1.0  0.64920  0.55720  0.78890  1.0000
  C   C186      1.0  0.35080  0.55720  0.71110  1.0000
  C   C187      1.0  0.14920  0.05720  0.78890  1.0000
  C   C188      1.0  0.85080  0.05720  0.71110  1.0000
  C   C189      1.0  0.35080  0.44280  0.21110  1.0000
  C   C190      1.0  0.64920  0.44280  0.28890  1.0000
  C   C191      1.0  0.85080  0.94280  0.21110  1.0000
  C   C192      1.0  0.14920  0.94280  0.28890  1.0000
  C   C193      1.0  0.60810  0.54120  0.73020  1.0000
  C   C194      1.0  0.39190  0.54120  0.76980  1.0000
  C   C195      1.0  0.10810  0.04120  0.73020  1.0000
  C   C196      1.0  0.89190  0.04120  0.76980  1.0000
  C   C197      1.0  0.39190  0.45880  0.26980  1.0000
  C   C198      1.0  0.60810  0.45880  0.23020  1.0000
  C   C199      1.0  0.89190  0.95880  0.26980  1.0000
  C   C200      1.0  0.10810  0.95880  0.23020  1.0000
  H   H65       1.0  0.56670  0.51970  0.72890  1.0000
  H   H66       1.0  0.43330  0.51970  0.77110  1.0000
  H   H67       1.0  0.06670  0.01970  0.72890  1.0000
  H   H68       1.0  0.93330  0.01970  0.77110  1.0000
  H   H69       1.0  0.43330  0.48030  0.27110  1.0000
  H   H70       1.0  0.56670  0.48030  0.22890  1.0000
  H   H71       1.0  0.93330  0.98030  0.27110  1.0000
  H   H72       1.0  0.06670  0.98030  0.22890  1.0000
  C   C201      1.0  0.62740  0.55640  0.67290  1.0000
  C   C202      1.0  0.37260  0.55640  0.82710  1.0000
  C   C203      1.0  0.12740  0.05640  0.67290  1.0000
  C   C204      1.0  0.87260  0.05640  0.82710  1.0000
  C   C205      1.0  0.37260  0.44360  0.32710  1.0000
  C   C206      1.0  0.62740  0.44360  0.17290  1.0000
  C   C207      1.0  0.87260  0.94360  0.32710  1.0000
  C   C208      1.0  0.12740  0.94360  0.17290  1.0000
  C   C209      1.0  0.68970  0.58820  0.67550  1.0000
  C   C210      1.0  0.31030  0.58820  0.82450  1.0000
  C   C211      1.0  0.18970  0.08820  0.67550  1.0000
  C   C212      1.0  0.81030  0.08820  0.82450  1.0000
  C   C213      1.0  0.31030  0.41180  0.32450  1.0000
  C   C214      1.0  0.68970  0.41180  0.17550  1.0000
  C   C215      1.0  0.81030  0.91180  0.32450  1.0000
  C   C216      1.0  0.18970  0.91180  0.17550  1.0000
  H   H73       1.0  0.70410  0.59770  0.63790  1.0000
  H   H74       1.0  0.29590  0.59770  0.86210  1.0000
  H   H75       1.0  0.20410  0.09770  0.63790  1.0000
  H   H76       1.0  0.79590  0.09770  0.86210  1.0000
  H   H77       1.0  0.29590  0.40230  0.36210  1.0000
  H   H78       1.0  0.70410  0.40230  0.13790  1.0000
  H   H79       1.0  0.79590  0.90230  0.36210  1.0000
  H   H80       1.0  0.20410  0.90230  0.13790  1.0000
  C   C217      1.0  0.73050  0.60610  0.73390  1.0000
  C   C218      1.0  0.26950  0.60610  0.76610  1.0000
  C   C219      1.0  0.23050  0.10610  0.73390  1.0000
  C   C220      1.0  0.76950  0.10610  0.76610  1.0000
  C   C221      1.0  0.26950  0.39390  0.26610  1.0000
  C   C222      1.0  0.73050  0.39390  0.23390  1.0000
  C   C223      1.0  0.76950  0.89390  0.26610  1.0000
  C   C224      1.0  0.23050  0.89390  0.23390  1.0000
  H   H81       1.0  0.77150  0.62810  0.73480  1.0000
  H   H82       1.0  0.22850  0.62810  0.76520  1.0000
  H   H83       1.0  0.27150  0.12810  0.73480  1.0000
  H   H84       1.0  0.72850  0.12810  0.76520  1.0000
  H   H85       1.0  0.22850  0.37190  0.26520  1.0000
  H   H86       1.0  0.77150  0.37190  0.23480  1.0000
  H   H87       1.0  0.72850  0.87190  0.26520  1.0000
  H   H88       1.0  0.27150  0.87190  0.23480  1.0000
  C   C225      1.0  0.62420  0.53840  0.84770  1.0000
  C   C226      1.0  0.37580  0.53840  0.65230  1.0000
  C   C227      1.0  0.12420  0.03840  0.84770  1.0000
  C   C228      1.0  0.87580  0.03840  0.65230  1.0000
  C   C229      1.0  0.37580  0.46160  0.15230  1.0000
  C   C230      1.0  0.62420  0.46160  0.34770  1.0000
  C   C231      1.0  0.87580  0.96160  0.15230  1.0000
  C   C232      1.0  0.12420  0.96160  0.34770  1.0000
  Er  Er1       1.0  0.58411  0.49584  0.95825  1.0000
  Er  Er2       1.0  0.41589  0.49584  0.54175  1.0000
  Er  Er3       1.0  0.08411  0.99584  0.95825  1.0000
  Er  Er4       1.0  0.91589  0.99584  0.54175  1.0000
  Er  Er5       1.0  0.41589  0.50416  0.04175  1.0000
  Er  Er6       1.0  0.58411  0.50416  0.45825  1.0000
  Er  Er7       1.0  0.91589  0.00416  0.04175  1.0000
  Er  Er8       1.0  0.08411  0.00416  0.45825  1.0000
  Er  Er9       1.0  0.00000  0.65245  0.75000  1.0000
  Er  Er10      1.0  0.50000  0.15245  0.75000  1.0000
  Er  Er11      1.0  0.00000  0.34755  0.25000  1.0000
  Er  Er12      1.0  0.50000  0.84755  0.25000  1.0000
  N   N1        1.0  0.78130  0.56800  0.89970  1.0000
  N   N2        1.0  0.21870  0.56800  0.60030  1.0000
  N   N3        1.0  0.28130  0.06800  0.89970  1.0000
  N   N4        1.0  0.71870  0.06800  0.60030  1.0000
  N   N5        1.0  0.21870  0.43200  0.10030  1.0000
  N   N6        1.0  0.78130  0.43200  0.39970  1.0000
  N   N7        1.0  0.71870  0.93200  0.10030  1.0000
  N   N8        1.0  0.28130  0.93200  0.39970  1.0000
  H   H89       1.0  0.76490  0.53340  0.89560  1.0000
  H   H90       1.0  0.23510  0.53340  0.60440  1.0000
  H   H91       1.0  0.26490  0.03340  0.89560  1.0000
  H   H92       1.0  0.73510  0.03340  0.60440  1.0000
  H   H93       1.0  0.23510  0.46660  0.10440  1.0000
  H   H94       1.0  0.76490  0.46660  0.39560  1.0000
  H   H95       1.0  0.73510  0.96660  0.10440  1.0000
  H   H96       1.0  0.26490  0.96660  0.39560  1.0000
  O   O1        1.0  0.61540  0.57390  0.88910  1.0000
  O   O2        1.0  0.38460  0.57390  0.61090  1.0000
  O   O3        1.0  0.11540  0.07390  0.88910  1.0000
  O   O4        1.0  0.88460  0.07390  0.61090  1.0000
  O   O5        1.0  0.38460  0.42610  0.11090  1.0000
  O   O6        1.0  0.61540  0.42610  0.38910  1.0000
  O   O7        1.0  0.88460  0.92610  0.11090  1.0000
  O   O8        1.0  0.11540  0.92610  0.38910  1.0000
  O   O9        1.0  0.61110  0.48490  0.85320  1.0000
  O   O10       1.0  0.38890  0.48490  0.64680  1.0000
  O   O11       1.0  0.11110  0.98490  0.85320  1.0000
  O   O12       1.0  0.88890  0.98490  0.64680  1.0000
  O   O13       1.0  0.38890  0.51510  0.14680  1.0000
  O   O14       1.0  0.61110  0.51510  0.35320  1.0000
  O   O15       1.0  0.88890  0.01510  0.14680  1.0000
  O   O16       1.0  0.11110  0.01510  0.35320  1.0000
  O   O17       1.0  0.60840  0.54390  0.56130  1.0000
  O   O18       1.0  0.39160  0.54390  0.93870  1.0000
  O   O19       1.0  0.10840  0.04390  0.56130  1.0000
  O   O20       1.0  0.89160  0.04390  0.93870  1.0000
  O   O21       1.0  0.39160  0.45610  0.43870  1.0000
  O   O22       1.0  0.60840  0.45610  0.06130  1.0000
  O   O23       1.0  0.89160  0.95610  0.43870  1.0000
  O   O24       1.0  0.10840  0.95610  0.06130  1.0000
  O   O25       1.0  0.52280  0.51540  0.61250  1.0000
  O   O26       1.0  0.47720  0.51540  0.88750  1.0000
  O   O27       1.0  0.02280  0.01540  0.61250  1.0000
  O   O28       1.0  0.97720  0.01540  0.88750  1.0000
  O   O29       1.0  0.47720  0.48460  0.38750  1.0000
  O   O30       1.0  0.52280  0.48460  0.11250  1.0000
  O   O31       1.0  0.97720  0.98460  0.38750  1.0000
  O   O32       1.0  0.02280  0.98460  0.11250  1.0000
  O   O33       1.0  0.69460  0.54170  0.01060  1.0000
  O   O34       1.0  0.30540  0.54170  0.48940  1.0000
  O   O35       1.0  0.19460  0.04170  0.01060  1.0000
  O   O36       1.0  0.80540  0.04170  0.48940  1.0000
  O   O37       1.0  0.30540  0.45830  0.98940  1.0000
  O   O38       1.0  0.69460  0.45830  0.51060  1.0000
  O   O39       1.0  0.80540  0.95830  0.98940  1.0000
  O   O40       1.0  0.19460  0.95830  0.51060  1.0000
  O   O41       1.0  0.70370  0.45400  0.97330  1.0000
  O   O42       1.0  0.29630  0.45400  0.52670  1.0000
  O   O43       1.0  0.20370  0.95400  0.97330  1.0000
  O   O44       1.0  0.79630  0.95400  0.52670  1.0000
  O   O45       1.0  0.29630  0.54600  0.02670  1.0000
  O   O46       1.0  0.70370  0.54600  0.47330  1.0000
  O   O47       1.0  0.79630  0.04600  0.02670  1.0000
  O   O48       1.0  0.20370  0.04600  0.47330  1.0000
  O   O49       1.0  0.90180  0.38970  0.17790  1.0000
  O   O50       1.0  0.09820  0.38970  0.32210  1.0000
  O   O51       1.0  0.40180  0.88970  0.17790  1.0000
  O   O52       1.0  0.59820  0.88970  0.32210  1.0000
  O   O53       1.0  0.09820  0.61030  0.82210  1.0000
  O   O54       1.0  0.90180  0.61030  0.67790  1.0000
  O   O55       1.0  0.59820  0.11030  0.82210  1.0000
  O   O56       1.0  0.40180  0.11030  0.67790  1.0000
  O   O57       1.0  0.00820  0.42410  0.18010  1.0000
  O   O58       1.0  0.99180  0.42410  0.31990  1.0000
  O   O59       1.0  0.50820  0.92410  0.18010  1.0000
  O   O60       1.0  0.49180  0.92410  0.31990  1.0000
  O   O61       1.0  0.99180  0.57590  0.81990  1.0000
  O   O62       1.0  0.00820  0.57590  0.68010  1.0000
  O   O63       1.0  0.49180  0.07590  0.81990  1.0000
  O   O64       1.0  0.50820  0.07590  0.68010  1.0000
  O   O65       1.0  0.96400  0.93540  0.98920  1.0000
  O   O66       1.0  0.03600  0.93540  0.51080  1.0000
  O   O67       1.0  0.46400  0.43540  0.98920  1.0000
  O   O68       1.0  0.53600  0.43540  0.51080  1.0000
  O   O69       1.0  0.03600  0.06460  0.01080  1.0000
  O   O70       1.0  0.96400  0.06460  0.48920  1.0000
  O   O71       1.0  0.53600  0.56460  0.01080  1.0000
  O   O72       1.0  0.46400  0.56460  0.48920  1.0000
  O   O73       1.0  0.03980  0.90230  0.93300  1.0000
  O   O74       1.0  0.96020  0.90230  0.56700  1.0000
  O   O75       1.0  0.53980  0.40230  0.93300  1.0000
  O   O76       1.0  0.46020  0.40230  0.56700  1.0000
  O   O77       1.0  0.96020  0.09770  0.06700  1.0000
  O   O78       1.0  0.03980  0.09770  0.43300  1.0000
  O   O79       1.0  0.46020  0.59770  0.06700  1.0000
  O   O80       1.0  0.53980  0.59770  0.43300  1.0000
  O   O81       1.0  0.01460  0.71980  0.82980  1.0000
  O   O82       1.0  0.98540  0.71980  0.67020  1.0000
  O   O83       1.0  0.51460  0.21980  0.82980  1.0000
  O   O84       1.0  0.48540  0.21980  0.67020  1.0000
  O   O85       1.0  0.98540  0.28020  0.17020  1.0000
  O   O86       1.0  0.01460  0.28020  0.32980  1.0000
  O   O87       1.0  0.48540  0.78020  0.17020  1.0000
  O   O88       1.0  0.51460  0.78020  0.32980  1.0000
  O   O89       1.0  0.90590  0.69060  0.79400  1.0000
  O   O90       1.0  0.09410  0.69060  0.70600  1.0000
  O   O91       1.0  0.40590  0.19060  0.79400  1.0000
  O   O92       1.0  0.59410  0.19060  0.70600  1.0000
  O   O93       1.0  0.09410  0.30940  0.20600  1.0000
  O   O94       1.0  0.90590  0.30940  0.29400  1.0000
  O   O95       1.0  0.59410  0.80940  0.20600  1.0000
  O   O96       1.0  0.40590  0.80940  0.29400  1.0000
