data_image0
_chemical_formula_structural       Yb12O40C32H8C8N8H8C24H8C8O8C8H8C32H8C8H8C16H8C8H8C16H8C16H8C8O16C16H8C16H8C8O16C8O16
_chemical_formula_sum              "Yb12 O96 C232 H96 N8"
_cell_length_a       18.6003
_cell_length_b       23.2583
_cell_length_c       21.2376
_cell_angle_alpha    90
_cell_angle_beta     101.549
_cell_angle_gamma    90

_space_group_name_H-M_alt    "P 1"
_space_group_IT_number       1

loop_
  _space_group_symop_operation_xyz
  'x, y, z'

loop_
  _atom_site_type_symbol
  _atom_site_label
  _atom_site_symmetry_multiplicity
  _atom_site_fract_x
  _atom_site_fract_y
  _atom_site_fract_z
  _atom_site_occupancy
  Yb  Yb1       1.0  0.50000  0.64989  0.75000  1.0000
  Yb  Yb2       1.0  0.00000  0.14989  0.75000  1.0000
  Yb  Yb3       1.0  0.50000  0.35011  0.25000  1.0000
  Yb  Yb4       1.0  0.00000  0.85011  0.25000  1.0000
  Yb  Yb5       1.0  0.91373  0.50283  0.04223  1.0000
  Yb  Yb6       1.0  0.08627  0.50283  0.45777  1.0000
  Yb  Yb7       1.0  0.41373  0.00283  0.04223  1.0000
  Yb  Yb8       1.0  0.58627  0.00283  0.45777  1.0000
  Yb  Yb9       1.0  0.08627  0.49717  0.95777  1.0000
  Yb  Yb10      1.0  0.91373  0.49717  0.54223  1.0000
  Yb  Yb11      1.0  0.58627  0.99717  0.95777  1.0000
  Yb  Yb12      1.0  0.41373  0.99717  0.54223  1.0000
  O   O1        1.0  0.88710  0.51510  0.14700  1.0000
  O   O2        1.0  0.11290  0.51510  0.35300  1.0000
  O   O3        1.0  0.38710  0.01510  0.14700  1.0000
  O   O4        1.0  0.61290  0.01510  0.35300  1.0000
  O   O5        1.0  0.11290  0.48490  0.85300  1.0000
  O   O6        1.0  0.88710  0.48490  0.64700  1.0000
  O   O7        1.0  0.61290  0.98490  0.85300  1.0000
  O   O8        1.0  0.38710  0.98490  0.64700  1.0000
  O   O9        1.0  0.88240  0.42610  0.11160  1.0000
  O   O10       1.0  0.11760  0.42610  0.38840  1.0000
  O   O11       1.0  0.38240  0.92610  0.11160  1.0000
  O   O12       1.0  0.61760  0.92610  0.38840  1.0000
  O   O13       1.0  0.11760  0.57390  0.88840  1.0000
  O   O14       1.0  0.88240  0.57390  0.61160  1.0000
  O   O15       1.0  0.61760  0.07390  0.88840  1.0000
  O   O16       1.0  0.38240  0.07390  0.61160  1.0000
  O   O17       1.0  0.80220  0.45730  0.99010  1.0000
  O   O18       1.0  0.19780  0.45730  0.50990  1.0000
  O   O19       1.0  0.30220  0.95730  0.99010  1.0000
  O   O20       1.0  0.69780  0.95730  0.50990  1.0000
  O   O21       1.0  0.19780  0.54270  0.00990  1.0000
  O   O22       1.0  0.80220  0.54270  0.49010  1.0000
  O   O23       1.0  0.69780  0.04270  0.00990  1.0000
  O   O24       1.0  0.30220  0.04270  0.49010  1.0000
  O   O25       1.0  0.79290  0.54420  0.02850  1.0000
  O   O26       1.0  0.20710  0.54420  0.47150  1.0000
  O   O27       1.0  0.29290  0.04420  0.02850  1.0000
  O   O28       1.0  0.70710  0.04420  0.47150  1.0000
  O   O29       1.0  0.20710  0.45580  0.97150  1.0000
  O   O30       1.0  0.79290  0.45580  0.52850  1.0000
  O   O31       1.0  0.70710  0.95580  0.97150  1.0000
  O   O32       1.0  0.29290  0.95580  0.52850  1.0000
  O   O33       1.0  0.59570  0.60890  0.82370  1.0000
  O   O34       1.0  0.40430  0.60890  0.67630  1.0000
  O   O35       1.0  0.09570  0.10890  0.82370  1.0000
  O   O36       1.0  0.90430  0.10890  0.67630  1.0000
  O   O37       1.0  0.40430  0.39110  0.17630  1.0000
  O   O38       1.0  0.59570  0.39110  0.32370  1.0000
  O   O39       1.0  0.90430  0.89110  0.17630  1.0000
  O   O40       1.0  0.09570  0.89110  0.32370  1.0000
  C   C1        1.0  0.76460  0.50000  0.00000  1.0000
  C   C2        1.0  0.23540  0.50000  0.50000  1.0000
  C   C3        1.0  0.26460  0.00000  0.00000  1.0000
  C   C4        1.0  0.73540  0.00000  0.50000  1.0000
  C   C5        1.0  0.23540  0.50000  0.00000  1.0000
  C   C6        1.0  0.76460  0.50000  0.50000  1.0000
  C   C7        1.0  0.73540  0.00000  0.00000  1.0000
  C   C8        1.0  0.26460  0.00000  0.50000  1.0000
  C   C9        1.0  0.68150  0.49910  0.97500  1.0000
  C   C10       1.0  0.31850  0.49910  0.52500  1.0000
  C   C11       1.0  0.18150  0.99910  0.97500  1.0000
  C   C12       1.0  0.81850  0.99910  0.52500  1.0000
  C   C13       1.0  0.31850  0.50090  0.02500  1.0000
  C   C14       1.0  0.68150  0.50090  0.47500  1.0000
  C   C15       1.0  0.81850  0.00090  0.02500  1.0000
  C   C16       1.0  0.18150  0.00090  0.47500  1.0000
  C   C17       1.0  0.87400  0.46110  0.15280  1.0000
  C   C18       1.0  0.12600  0.46110  0.34720  1.0000
  C   C19       1.0  0.37400  0.96110  0.15280  1.0000
  C   C20       1.0  0.62600  0.96110  0.34720  1.0000
  C   C21       1.0  0.12600  0.53890  0.84720  1.0000
  C   C22       1.0  0.87400  0.53890  0.65280  1.0000
  C   C23       1.0  0.62600  0.03890  0.84720  1.0000
  C   C24       1.0  0.37400  0.03890  0.65280  1.0000
  C   C25       1.0  0.63790  0.36080  0.04130  1.0000
  C   C26       1.0  0.36210  0.36080  0.45870  1.0000
  C   C27       1.0  0.13790  0.86080  0.04130  1.0000
  C   C28       1.0  0.86210  0.86080  0.45870  1.0000
  C   C29       1.0  0.36210  0.63920  0.95870  1.0000
  C   C30       1.0  0.63790  0.63920  0.54130  1.0000
  C   C31       1.0  0.86210  0.13920  0.95870  1.0000
  C   C32       1.0  0.13790  0.13920  0.54130  1.0000
  H   H1        1.0  0.60460  0.35010  0.00440  1.0000
  H   H2        1.0  0.39540  0.35010  0.49560  1.0000
  H   H3        1.0  0.10460  0.85010  0.00440  1.0000
  H   H4        1.0  0.89540  0.85010  0.49560  1.0000
  H   H5        1.0  0.39540  0.64990  0.99560  1.0000
  H   H6        1.0  0.60460  0.64990  0.50440  1.0000
  H   H7        1.0  0.89540  0.14990  0.99560  1.0000
  H   H8        1.0  0.10460  0.14990  0.50440  1.0000
  C   C33       1.0  0.66070  0.32160  0.08930  1.0000
  C   C34       1.0  0.33930  0.32160  0.41070  1.0000
  C   C35       1.0  0.16070  0.82160  0.08930  1.0000
  C   C36       1.0  0.83930  0.82160  0.41070  1.0000
  C   C37       1.0  0.33930  0.67840  0.91070  1.0000
  C   C38       1.0  0.66070  0.67840  0.58930  1.0000
  C   C39       1.0  0.83930  0.17840  0.91070  1.0000
  C   C40       1.0  0.16070  0.17840  0.58930  1.0000
  N   N1        1.0  0.71180  0.43210  0.10140  1.0000
  N   N2        1.0  0.28820  0.43210  0.39860  1.0000
  N   N3        1.0  0.21180  0.93210  0.10140  1.0000
  N   N4        1.0  0.78820  0.93210  0.39860  1.0000
  N   N5        1.0  0.28820  0.56790  0.89860  1.0000
  N   N6        1.0  0.71180  0.56790  0.60140  1.0000
  N   N7        1.0  0.78820  0.06790  0.89860  1.0000
  N   N8        1.0  0.21180  0.06790  0.60140  1.0000
  H   H9        1.0  0.72670  0.46710  0.10540  1.0000
  H   H10       1.0  0.27330  0.46710  0.39460  1.0000
  H   H11       1.0  0.22670  0.96710  0.10540  1.0000
  H   H12       1.0  0.77330  0.96710  0.39460  1.0000
  H   H13       1.0  0.27330  0.53290  0.89460  1.0000
  H   H14       1.0  0.72670  0.53290  0.60540  1.0000
  H   H15       1.0  0.77330  0.03290  0.89460  1.0000
  H   H16       1.0  0.22670  0.03290  0.60540  1.0000
  C   C41       1.0  0.78560  0.41000  0.21090  1.0000
  C   C42       1.0  0.21440  0.41000  0.28910  1.0000
  C   C43       1.0  0.28560  0.91000  0.21090  1.0000
  C   C44       1.0  0.71440  0.91000  0.28910  1.0000
  C   C45       1.0  0.21440  0.59000  0.78910  1.0000
  C   C46       1.0  0.78560  0.59000  0.71090  1.0000
  C   C47       1.0  0.71440  0.09000  0.78910  1.0000
  C   C48       1.0  0.28560  0.09000  0.71090  1.0000
  C   C49       1.0  0.84890  0.44290  0.21290  1.0000
  C   C50       1.0  0.15110  0.44290  0.28710  1.0000
  C   C51       1.0  0.34890  0.94290  0.21290  1.0000
  C   C52       1.0  0.65110  0.94290  0.28710  1.0000
  C   C53       1.0  0.15110  0.55710  0.78710  1.0000
  C   C54       1.0  0.84890  0.55710  0.71290  1.0000
  C   C55       1.0  0.65110  0.05710  0.78710  1.0000
  C   C56       1.0  0.34890  0.05710  0.71290  1.0000
  C   C57       1.0  0.71070  0.33660  0.14260  1.0000
  C   C58       1.0  0.28930  0.33660  0.35740  1.0000
  C   C59       1.0  0.21070  0.83660  0.14260  1.0000
  C   C60       1.0  0.78930  0.83660  0.35740  1.0000
  C   C61       1.0  0.28930  0.66340  0.85740  1.0000
  C   C62       1.0  0.71070  0.66340  0.64260  1.0000
  C   C63       1.0  0.78930  0.16340  0.85740  1.0000
  C   C64       1.0  0.21070  0.16340  0.64260  1.0000
  H   H17       1.0  0.72730  0.30950  0.17440  1.0000
  H   H18       1.0  0.27270  0.30950  0.32560  1.0000
  H   H19       1.0  0.22730  0.80950  0.17440  1.0000
  H   H20       1.0  0.77270  0.80950  0.32560  1.0000
  H   H21       1.0  0.27270  0.69050  0.82560  1.0000
  H   H22       1.0  0.72730  0.69050  0.67440  1.0000
  H   H23       1.0  0.77270  0.19050  0.82560  1.0000
  H   H24       1.0  0.22730  0.19050  0.67440  1.0000
  C   C65       1.0  0.73640  0.39200  0.14950  1.0000
  C   C66       1.0  0.26360  0.39200  0.35050  1.0000
  C   C67       1.0  0.23640  0.89200  0.14950  1.0000
  C   C68       1.0  0.76360  0.89200  0.35050  1.0000
  C   C69       1.0  0.26360  0.60800  0.85050  1.0000
  C   C70       1.0  0.73640  0.60800  0.64950  1.0000
  C   C71       1.0  0.76360  0.10800  0.85050  1.0000
  C   C72       1.0  0.23640  0.10800  0.64950  1.0000
  O   O41       1.0  0.48350  0.57690  0.82070  1.0000
  O   O42       1.0  0.51650  0.57690  0.67930  1.0000
  O   O43       1.0  0.98350  0.07690  0.82070  1.0000
  O   O44       1.0  0.01650  0.07690  0.67930  1.0000
  O   O45       1.0  0.51650  0.42310  0.17930  1.0000
  O   O46       1.0  0.48350  0.42310  0.32070  1.0000
  O   O47       1.0  0.01650  0.92310  0.17930  1.0000
  O   O48       1.0  0.98350  0.92310  0.32070  1.0000
  C   C73       1.0  0.89040  0.45970  0.27080  1.0000
  C   C74       1.0  0.10960  0.45970  0.22920  1.0000
  C   C75       1.0  0.39040  0.95970  0.27080  1.0000
  C   C76       1.0  0.60960  0.95970  0.22920  1.0000
  C   C77       1.0  0.10960  0.54030  0.72920  1.0000
  C   C78       1.0  0.89040  0.54030  0.77080  1.0000
  C   C79       1.0  0.60960  0.04030  0.72920  1.0000
  C   C80       1.0  0.39040  0.04030  0.77080  1.0000
  H   H25       1.0  0.93240  0.48150  0.27170  1.0000
  H   H26       1.0  0.06760  0.48150  0.22830  1.0000
  H   H27       1.0  0.43240  0.98150  0.27170  1.0000
  H   H28       1.0  0.56760  0.98150  0.22830  1.0000
  H   H29       1.0  0.06760  0.51850  0.72830  1.0000
  H   H30       1.0  0.93240  0.51850  0.77170  1.0000
  H   H31       1.0  0.56760  0.01850  0.72830  1.0000
  H   H32       1.0  0.43240  0.01850  0.77170  1.0000
  C   C81       1.0  0.62720  0.26320  0.08190  1.0000
  C   C82       1.0  0.37280  0.26320  0.41810  1.0000
  C   C83       1.0  0.12720  0.76320  0.08190  1.0000
  C   C84       1.0  0.87280  0.76320  0.41810  1.0000
  C   C85       1.0  0.37280  0.73680  0.91810  1.0000
  C   C86       1.0  0.62720  0.73680  0.58190  1.0000
  C   C87       1.0  0.87280  0.23680  0.91810  1.0000
  C   C88       1.0  0.12720  0.23680  0.58190  1.0000
  C   C89       1.0  0.66370  0.41470  0.04770  1.0000
  C   C90       1.0  0.33630  0.41470  0.45230  1.0000
  C   C91       1.0  0.16370  0.91470  0.04770  1.0000
  C   C92       1.0  0.83630  0.91470  0.45230  1.0000
  C   C93       1.0  0.33630  0.58530  0.95230  1.0000
  C   C94       1.0  0.66370  0.58530  0.54770  1.0000
  C   C95       1.0  0.83630  0.08530  0.95230  1.0000
  C   C96       1.0  0.16370  0.08530  0.54770  1.0000
  C   C97       1.0  0.63680  0.45710  0.99600  1.0000
  C   C98       1.0  0.36320  0.45710  0.50400  1.0000
  C   C99       1.0  0.13680  0.95710  0.99600  1.0000
  C   C100      1.0  0.86320  0.95710  0.50400  1.0000
  C   C101      1.0  0.36320  0.54290  0.00400  1.0000
  C   C102      1.0  0.63680  0.54290  0.49600  1.0000
  C   C103      1.0  0.86320  0.04290  0.00400  1.0000
  C   C104      1.0  0.13680  0.04290  0.49600  1.0000
  C   C105      1.0  0.65380  0.53640  0.92660  1.0000
  C   C106      1.0  0.34620  0.53640  0.57340  1.0000
  C   C107      1.0  0.15380  0.03640  0.92660  1.0000
  C   C108      1.0  0.84620  0.03640  0.57340  1.0000
  C   C109      1.0  0.34620  0.46360  0.07340  1.0000
  C   C110      1.0  0.65380  0.46360  0.42660  1.0000
  C   C111      1.0  0.84620  0.96360  0.07340  1.0000
  C   C112      1.0  0.15380  0.96360  0.42660  1.0000
  H   H33       1.0  0.68450  0.56340  0.91320  1.0000
  H   H34       1.0  0.31550  0.56340  0.58680  1.0000
  H   H35       1.0  0.18450  0.06340  0.91320  1.0000
  H   H36       1.0  0.81550  0.06340  0.58680  1.0000
  H   H37       1.0  0.31550  0.43660  0.08680  1.0000
  H   H38       1.0  0.68450  0.43660  0.41320  1.0000
  H   H39       1.0  0.81550  0.93660  0.08680  1.0000
  H   H40       1.0  0.18450  0.93660  0.41320  1.0000
  C   C113      1.0  0.76530  0.39470  0.26800  1.0000
  C   C114      1.0  0.23470  0.39470  0.23200  1.0000
  C   C115      1.0  0.26530  0.89470  0.26800  1.0000
  C   C116      1.0  0.73470  0.89470  0.23200  1.0000
  C   C117      1.0  0.23470  0.60530  0.73200  1.0000
  C   C118      1.0  0.76530  0.60530  0.76800  1.0000
  C   C119      1.0  0.73470  0.10530  0.73200  1.0000
  C   C120      1.0  0.26530  0.10530  0.76800  1.0000
  H   H41       1.0  0.72330  0.37280  0.26710  1.0000
  H   H42       1.0  0.27670  0.37280  0.23290  1.0000
  H   H43       1.0  0.22330  0.87280  0.26710  1.0000
  H   H44       1.0  0.77670  0.87280  0.23290  1.0000
  H   H45       1.0  0.27670  0.62720  0.73290  1.0000
  H   H46       1.0  0.72330  0.62720  0.76710  1.0000
  H   H47       1.0  0.77670  0.12720  0.73290  1.0000
  H   H48       1.0  0.22330  0.12720  0.76710  1.0000
  C   C121      1.0  0.58120  0.53450  0.89760  1.0000
  C   C122      1.0  0.41880  0.53450  0.60240  1.0000
  C   C123      1.0  0.08120  0.03450  0.89760  1.0000
  C   C124      1.0  0.91880  0.03450  0.60240  1.0000
  C   C125      1.0  0.41880  0.46550  0.10240  1.0000
  C   C126      1.0  0.58120  0.46550  0.39760  1.0000
  C   C127      1.0  0.91880  0.96550  0.10240  1.0000
  C   C128      1.0  0.08120  0.96550  0.39760  1.0000
  C   C129      1.0  0.56220  0.45700  0.96620  1.0000
  C   C130      1.0  0.43780  0.45700  0.53380  1.0000
  C   C131      1.0  0.06220  0.95700  0.96620  1.0000
  C   C132      1.0  0.93780  0.95700  0.53380  1.0000
  C   C133      1.0  0.43780  0.54300  0.03380  1.0000
  C   C134      1.0  0.56220  0.54300  0.46620  1.0000
  C   C135      1.0  0.93780  0.04300  0.03380  1.0000
  C   C136      1.0  0.06220  0.04300  0.46620  1.0000
  H   H49       1.0  0.53070  0.43080  0.97980  1.0000
  H   H50       1.0  0.46930  0.43080  0.52020  1.0000
  H   H51       1.0  0.03070  0.93080  0.97980  1.0000
  H   H52       1.0  0.96930  0.93080  0.52020  1.0000
  H   H53       1.0  0.46930  0.56920  0.02020  1.0000
  H   H54       1.0  0.53070  0.56920  0.47980  1.0000
  H   H55       1.0  0.96930  0.06920  0.02020  1.0000
  H   H56       1.0  0.03070  0.06920  0.47980  1.0000
  C   C137      1.0  0.64320  0.22650  0.03660  1.0000
  C   C138      1.0  0.35680  0.22650  0.46340  1.0000
  C   C139      1.0  0.14320  0.72650  0.03660  1.0000
  C   C140      1.0  0.85680  0.72650  0.46340  1.0000
  C   C141      1.0  0.35680  0.77350  0.96340  1.0000
  C   C142      1.0  0.64320  0.77350  0.53660  1.0000
  C   C143      1.0  0.85680  0.27350  0.96340  1.0000
  C   C144      1.0  0.14320  0.27350  0.53660  1.0000
  H   H57       1.0  0.67860  0.23710  0.01350  1.0000
  H   H58       1.0  0.32140  0.23710  0.48650  1.0000
  H   H59       1.0  0.17860  0.73710  0.01350  1.0000
  H   H60       1.0  0.82140  0.73710  0.48650  1.0000
  H   H61       1.0  0.32140  0.76290  0.98650  1.0000
  H   H62       1.0  0.67860  0.76290  0.51350  1.0000
  H   H63       1.0  0.82140  0.26290  0.98650  1.0000
  H   H64       1.0  0.17860  0.26290  0.51350  1.0000
  C   C145      1.0  0.55220  0.57650  0.84450  1.0000
  C   C146      1.0  0.44780  0.57650  0.65550  1.0000
  C   C147      1.0  0.05220  0.07650  0.84450  1.0000
  C   C148      1.0  0.94780  0.07650  0.65550  1.0000
  C   C149      1.0  0.44780  0.42350  0.15550  1.0000
  C   C150      1.0  0.55220  0.42350  0.34450  1.0000
  C   C151      1.0  0.94780  0.92350  0.15550  1.0000
  C   C152      1.0  0.05220  0.92350  0.34450  1.0000
  C   C153      1.0  0.53530  0.49410  0.91830  1.0000
  C   C154      1.0  0.46470  0.49410  0.58170  1.0000
  C   C155      1.0  0.03530  0.99410  0.91830  1.0000
  C   C156      1.0  0.96470  0.99410  0.58170  1.0000
  C   C157      1.0  0.46470  0.50590  0.08170  1.0000
  C   C158      1.0  0.53530  0.50590  0.41830  1.0000
  C   C159      1.0  0.96470  0.00590  0.08170  1.0000
  C   C160      1.0  0.03530  0.00590  0.41830  1.0000
  H   H65       1.0  0.48580  0.49280  0.89890  1.0000
  H   H66       1.0  0.51420  0.49280  0.60110  1.0000
  H   H67       1.0  0.98580  0.99280  0.89890  1.0000
  H   H68       1.0  0.01420  0.99280  0.60110  1.0000
  H   H69       1.0  0.51420  0.50720  0.10110  1.0000
  H   H70       1.0  0.48580  0.50720  0.39890  1.0000
  H   H71       1.0  0.01420  0.00720  0.10110  1.0000
  H   H72       1.0  0.98580  0.00720  0.39890  1.0000
  C   C161      1.0  0.86990  0.44420  0.32880  1.0000
  C   C162      1.0  0.13010  0.44420  0.17120  1.0000
  C   C163      1.0  0.36990  0.94420  0.32880  1.0000
  C   C164      1.0  0.63010  0.94420  0.17120  1.0000
  C   C165      1.0  0.13010  0.55580  0.67120  1.0000
  C   C166      1.0  0.86990  0.55580  0.82880  1.0000
  C   C167      1.0  0.63010  0.05580  0.67120  1.0000
  C   C168      1.0  0.36990  0.05580  0.82880  1.0000
  C   C169      1.0  0.80710  0.41190  0.32620  1.0000
  C   C170      1.0  0.19290  0.41190  0.17380  1.0000
  C   C171      1.0  0.30710  0.91190  0.32620  1.0000
  C   C172      1.0  0.69290  0.91190  0.17380  1.0000
  C   C173      1.0  0.19290  0.58810  0.67380  1.0000
  C   C174      1.0  0.80710  0.58810  0.82620  1.0000
  C   C175      1.0  0.69290  0.08810  0.67380  1.0000
  C   C176      1.0  0.30710  0.08810  0.82620  1.0000
  H   H73       1.0  0.79280  0.40160  0.36420  1.0000
  H   H74       1.0  0.20720  0.40160  0.13580  1.0000
  H   H75       1.0  0.29280  0.90160  0.36420  1.0000
  H   H76       1.0  0.70720  0.90160  0.13580  1.0000
  H   H77       1.0  0.20720  0.59840  0.63580  1.0000
  H   H78       1.0  0.79280  0.59840  0.86420  1.0000
  H   H79       1.0  0.70720  0.09840  0.63580  1.0000
  H   H80       1.0  0.29280  0.09840  0.86420  1.0000
  C   C177      1.0  0.91630  0.46430  0.39160  1.0000
  C   C178      1.0  0.08370  0.46430  0.10840  1.0000
  C   C179      1.0  0.41630  0.96430  0.39160  1.0000
  C   C180      1.0  0.58370  0.96430  0.10840  1.0000
  C   C181      1.0  0.08370  0.53570  0.60840  1.0000
  C   C182      1.0  0.91630  0.53570  0.89160  1.0000
  C   C183      1.0  0.58370  0.03570  0.60840  1.0000
  C   C184      1.0  0.41630  0.03570  0.89160  1.0000
  O   O49       1.0  0.97780  0.48440  0.38900  1.0000
  O   O50       1.0  0.02220  0.48440  0.11100  1.0000
  O   O51       1.0  0.47780  0.98440  0.38900  1.0000
  O   O52       1.0  0.52220  0.98440  0.11100  1.0000
  O   O53       1.0  0.02220  0.51560  0.61100  1.0000
  O   O54       1.0  0.97780  0.51560  0.88900  1.0000
  O   O55       1.0  0.52220  0.01560  0.61100  1.0000
  O   O56       1.0  0.47780  0.01560  0.88900  1.0000
  O   O57       1.0  0.88980  0.45780  0.44100  1.0000
  O   O58       1.0  0.11020  0.45780  0.05900  1.0000
  O   O59       1.0  0.38980  0.95780  0.44100  1.0000
  O   O60       1.0  0.61020  0.95780  0.05900  1.0000
  O   O61       1.0  0.11020  0.54220  0.55900  1.0000
  O   O62       1.0  0.88980  0.54220  0.94100  1.0000
  O   O63       1.0  0.61020  0.04220  0.55900  1.0000
  O   O64       1.0  0.38980  0.04220  0.94100  1.0000
  C   C185      1.0  0.57440  0.24610  0.11690  1.0000
  C   C186      1.0  0.42560  0.24610  0.38310  1.0000
  C   C187      1.0  0.07440  0.74610  0.11690  1.0000
  C   C188      1.0  0.92560  0.74610  0.38310  1.0000
  C   C189      1.0  0.42560  0.75390  0.88310  1.0000
  C   C190      1.0  0.57440  0.75390  0.61690  1.0000
  C   C191      1.0  0.92560  0.25390  0.88310  1.0000
  C   C192      1.0  0.07440  0.25390  0.61690  1.0000
  C   C193      1.0  0.60790  0.17280  0.02360  1.0000
  C   C194      1.0  0.39210  0.17280  0.47640  1.0000
  C   C195      1.0  0.10790  0.67280  0.02360  1.0000
  C   C196      1.0  0.89210  0.67280  0.47640  1.0000
  C   C197      1.0  0.39210  0.82720  0.97640  1.0000
  C   C198      1.0  0.60790  0.82720  0.52360  1.0000
  C   C199      1.0  0.89210  0.32720  0.97640  1.0000
  C   C200      1.0  0.10790  0.32720  0.52360  1.0000
  H   H81       1.0  0.62060  0.14840  0.99290  1.0000
  H   H82       1.0  0.37940  0.14840  0.50710  1.0000
  H   H83       1.0  0.12060  0.64840  0.99290  1.0000
  H   H84       1.0  0.87940  0.64840  0.50710  1.0000
  H   H85       1.0  0.37940  0.85160  0.00710  1.0000
  H   H86       1.0  0.62060  0.85160  0.49290  1.0000
  H   H87       1.0  0.87940  0.35160  0.00710  1.0000
  H   H88       1.0  0.12060  0.35160  0.49290  1.0000
  C   C201      1.0  0.55480  0.15690  0.05620  1.0000
  C   C202      1.0  0.44520  0.15690  0.44380  1.0000
  C   C203      1.0  0.05480  0.65690  0.05620  1.0000
  C   C204      1.0  0.94520  0.65690  0.44380  1.0000
  C   C205      1.0  0.44520  0.84310  0.94380  1.0000
  C   C206      1.0  0.55480  0.84310  0.55620  1.0000
  C   C207      1.0  0.94520  0.34310  0.94380  1.0000
  C   C208      1.0  0.05480  0.34310  0.55620  1.0000
  C   C209      1.0  0.53810  0.19350  0.10190  1.0000
  C   C210      1.0  0.46190  0.19350  0.39810  1.0000
  C   C211      1.0  0.03810  0.69350  0.10190  1.0000
  C   C212      1.0  0.96190  0.69350  0.39810  1.0000
  C   C213      1.0  0.46190  0.80650  0.89810  1.0000
  C   C214      1.0  0.53810  0.80650  0.60190  1.0000
  C   C215      1.0  0.96190  0.30650  0.89810  1.0000
  C   C216      1.0  0.03810  0.30650  0.60190  1.0000
  H   H89       1.0  0.50140  0.18310  0.12370  1.0000
  H   H90       1.0  0.49860  0.18310  0.37630  1.0000
  H   H91       1.0  0.00140  0.68310  0.12370  1.0000
  H   H92       1.0  0.99860  0.68310  0.37630  1.0000
  H   H93       1.0  0.49860  0.81690  0.87630  1.0000
  H   H94       1.0  0.50140  0.81690  0.62370  1.0000
  H   H95       1.0  0.99860  0.31690  0.87630  1.0000
  H   H96       1.0  0.00140  0.31690  0.62370  1.0000
  C   C217      1.0  0.51450  0.10200  0.04330  1.0000
  C   C218      1.0  0.48550  0.10200  0.45670  1.0000
  C   C219      1.0  0.01450  0.60200  0.04330  1.0000
  C   C220      1.0  0.98550  0.60200  0.45670  1.0000
  C   C221      1.0  0.48550  0.89800  0.95670  1.0000
  C   C222      1.0  0.51450  0.89800  0.54330  1.0000
  C   C223      1.0  0.98550  0.39800  0.95670  1.0000
  C   C224      1.0  0.01450  0.39800  0.54330  1.0000
  O   O65       1.0  0.45790  0.09500  0.06630  1.0000
  O   O66       1.0  0.54210  0.09500  0.43370  1.0000
  O   O67       1.0  0.95790  0.59500  0.06630  1.0000
  O   O68       1.0  0.04210  0.59500  0.43370  1.0000
  O   O69       1.0  0.54210  0.90500  0.93370  1.0000
  O   O70       1.0  0.45790  0.90500  0.56630  1.0000
  O   O71       1.0  0.04210  0.40500  0.93370  1.0000
  O   O72       1.0  0.95790  0.40500  0.56630  1.0000
  O   O73       1.0  0.53830  0.06500  0.01000  1.0000
  O   O74       1.0  0.46170  0.06500  0.49000  1.0000
  O   O75       1.0  0.03830  0.56500  0.01000  1.0000
  O   O76       1.0  0.96170  0.56500  0.49000  1.0000
  O   O77       1.0  0.46170  0.93500  0.99000  1.0000
  O   O78       1.0  0.53830  0.93500  0.51000  1.0000
  O   O79       1.0  0.96170  0.43500  0.99000  1.0000
  O   O80       1.0  0.03830  0.43500  0.51000  1.0000
  C   C225      1.0  0.54870  0.28150  0.16740  1.0000
  C   C226      1.0  0.45130  0.28150  0.33260  1.0000
  C   C227      1.0  0.04870  0.78150  0.16740  1.0000
  C   C228      1.0  0.95130  0.78150  0.33260  1.0000
  C   C229      1.0  0.45130  0.71850  0.83260  1.0000
  C   C230      1.0  0.54870  0.71850  0.66740  1.0000
  C   C231      1.0  0.95130  0.21850  0.83260  1.0000
  C   C232      1.0  0.04870  0.21850  0.66740  1.0000
  O   O81       1.0  0.59360  0.30830  0.20860  1.0000
  O   O82       1.0  0.40640  0.30830  0.29140  1.0000
  O   O83       1.0  0.09360  0.80830  0.20860  1.0000
  O   O84       1.0  0.90640  0.80830  0.29140  1.0000
  O   O85       1.0  0.40640  0.69170  0.79140  1.0000
  O   O86       1.0  0.59360  0.69170  0.70860  1.0000
  O   O87       1.0  0.90640  0.19170  0.79140  1.0000
  O   O88       1.0  0.09360  0.19170  0.70860  1.0000
  O   O89       1.0  0.48120  0.28050  0.17220  1.0000
  O   O90       1.0  0.51880  0.28050  0.32780  1.0000
  O   O91       1.0  0.98120  0.78050  0.17220  1.0000
  O   O92       1.0  0.01880  0.78050  0.32780  1.0000
  O   O93       1.0  0.51880  0.71950  0.82780  1.0000
  O   O94       1.0  0.48120  0.71950  0.67220  1.0000
  O   O95       1.0  0.01880  0.21950  0.82780  1.0000
  O   O96       1.0  0.98120  0.21950  0.67220  1.0000
