data_image0
_chemical_formula_structural       V12Fe7O88C12H12C24H24C12H12
_chemical_formula_sum              "V12 Fe7 O88 C48 H48"
_cell_length_a       14.4915
_cell_length_b       14.4915
_cell_length_c       16.0927
_cell_angle_alpha    90
_cell_angle_beta     90
_cell_angle_gamma    120

_space_group_name_H-M_alt    "P 1"
_space_group_IT_number       1

loop_
  _space_group_symop_operation_xyz
  'x, y, z'

loop_
  _atom_site_type_symbol
  _atom_site_label
  _atom_site_symmetry_multiplicity
  _atom_site_fract_x
  _atom_site_fract_y
  _atom_site_fract_z
  _atom_site_occupancy
  V   V1        1.0  0.54365  0.34854  0.89356  1.0000
  V   V2        1.0  0.65146  0.19511  0.89356  1.0000
  V   V3        1.0  0.80489  0.45635  0.89356  1.0000
  V   V4        1.0  0.45635  0.65146  0.89356  1.0000
  V   V5        1.0  0.34854  0.80489  0.89356  1.0000
  V   V6        1.0  0.19511  0.54365  0.89356  1.0000
  V   V7        1.0  0.45635  0.65146  0.10644  1.0000
  V   V8        1.0  0.34854  0.80489  0.10644  1.0000
  V   V9        1.0  0.19511  0.54365  0.10644  1.0000
  V   V10       1.0  0.54365  0.34854  0.10644  1.0000
  V   V11       1.0  0.65146  0.19511  0.10644  1.0000
  V   V12       1.0  0.80489  0.45635  0.10644  1.0000
  Fe  Fe1       1.0  0.66667  0.33333  0.70873  1.0000
  Fe  Fe2       1.0  0.33333  0.66667  0.70873  1.0000
  Fe  Fe3       1.0  0.33333  0.66667  0.29127  1.0000
  Fe  Fe4       1.0  0.66667  0.33333  0.29127  1.0000
  Fe  Fe5       1.0  0.50000  0.00000  0.50000  1.0000
  Fe  Fe6       1.0  0.00000  0.50000  0.50000  1.0000
  Fe  Fe7       1.0  0.50000  0.50000  0.50000  1.0000
  O   O1        1.0  0.53748  0.30140  0.77508  1.0000
  O   O2        1.0  0.69860  0.23608  0.77508  1.0000
  O   O3        1.0  0.76392  0.46252  0.77508  1.0000
  O   O4        1.0  0.46252  0.69860  0.77508  1.0000
  O   O5        1.0  0.30140  0.76392  0.77508  1.0000
  O   O6        1.0  0.23608  0.53748  0.77508  1.0000
  O   O7        1.0  0.46252  0.69860  0.22492  1.0000
  O   O8        1.0  0.30140  0.76392  0.22492  1.0000
  O   O9        1.0  0.23608  0.53748  0.22492  1.0000
  O   O10       1.0  0.53748  0.30140  0.22492  1.0000
  O   O11       1.0  0.69860  0.23608  0.22492  1.0000
  O   O12       1.0  0.76392  0.46252  0.22492  1.0000
  O   O13       1.0  0.38983  0.28270  0.87004  1.0000
  O   O14       1.0  0.71730  0.10713  0.87004  1.0000
  O   O15       1.0  0.89287  0.61017  0.87004  1.0000
  O   O16       1.0  0.61017  0.71730  0.87004  1.0000
  O   O17       1.0  0.28270  0.89287  0.87004  1.0000
  O   O18       1.0  0.10713  0.38983  0.87004  1.0000
  O   O19       1.0  0.61017  0.71730  0.12996  1.0000
  O   O20       1.0  0.28270  0.89287  0.12996  1.0000
  O   O21       1.0  0.10713  0.38983  0.12996  1.0000
  O   O22       1.0  0.38983  0.28270  0.12996  1.0000
  O   O23       1.0  0.71730  0.10713  0.12996  1.0000
  O   O24       1.0  0.89287  0.61017  0.12996  1.0000
  O   O25       1.0  0.57210  0.21270  0.63096  1.0000
  O   O26       1.0  0.78730  0.35940  0.63096  1.0000
  O   O27       1.0  0.64060  0.42790  0.63096  1.0000
  O   O28       1.0  0.42790  0.78730  0.63096  1.0000
  O   O29       1.0  0.21270  0.64060  0.63096  1.0000
  O   O30       1.0  0.35940  0.57210  0.63096  1.0000
  O   O31       1.0  0.42790  0.78730  0.36904  1.0000
  O   O32       1.0  0.21270  0.64060  0.36904  1.0000
  O   O33       1.0  0.35940  0.57210  0.36904  1.0000
  O   O34       1.0  0.57210  0.21270  0.36904  1.0000
  O   O35       1.0  0.78730  0.35940  0.36904  1.0000
  O   O36       1.0  0.64060  0.42790  0.36904  1.0000
  O   O37       1.0  0.25830  0.19740  0.77896  1.0000
  O   O38       1.0  0.80260  0.06090  0.77896  1.0000
  O   O39       1.0  0.93910  0.74170  0.77896  1.0000
  O   O40       1.0  0.74170  0.80260  0.77896  1.0000
  O   O41       1.0  0.19740  0.93910  0.77896  1.0000
  O   O42       1.0  0.06090  0.25830  0.77896  1.0000
  O   O43       1.0  0.74170  0.80260  0.22104  1.0000
  O   O44       1.0  0.19740  0.93910  0.22104  1.0000
  O   O45       1.0  0.06090  0.25830  0.22104  1.0000
  O   O46       1.0  0.25830  0.19740  0.22104  1.0000
  O   O47       1.0  0.80260  0.06090  0.22104  1.0000
  O   O48       1.0  0.93910  0.74170  0.22104  1.0000
  O   O49       1.0  0.43850  0.05570  0.59410  1.0000
  O   O50       1.0  0.94430  0.38280  0.59410  1.0000
  O   O51       1.0  0.61720  0.56150  0.59410  1.0000
  O   O52       1.0  0.56150  0.94430  0.59410  1.0000
  O   O53       1.0  0.05570  0.61720  0.59410  1.0000
  O   O54       1.0  0.38280  0.43850  0.59410  1.0000
  O   O55       1.0  0.56150  0.94430  0.40590  1.0000
  O   O56       1.0  0.05570  0.61720  0.40590  1.0000
  O   O57       1.0  0.38280  0.43850  0.40590  1.0000
  O   O58       1.0  0.43850  0.05570  0.40590  1.0000
  O   O59       1.0  0.94430  0.38280  0.40590  1.0000
  O   O60       1.0  0.61720  0.56150  0.40590  1.0000
  O   O61       1.0  0.34840  0.85580  0.50000  1.0000
  O   O62       1.0  0.14420  0.49260  0.50000  1.0000
  O   O63       1.0  0.50740  0.65160  0.50000  1.0000
  O   O64       1.0  0.65160  0.14420  0.50000  1.0000
  O   O65       1.0  0.85580  0.50740  0.50000  1.0000
  O   O66       1.0  0.49260  0.34840  0.50000  1.0000
  O   O67       1.0  0.66667  0.33333  0.89710  1.0000
  O   O68       1.0  0.33333  0.66667  0.89710  1.0000
  O   O69       1.0  0.33333  0.66667  0.10290  1.0000
  O   O70       1.0  0.66667  0.33333  0.10290  1.0000
  O   O71       1.0  0.50820  0.30380  0.00000  1.0000
  O   O72       1.0  0.69620  0.20440  0.00000  1.0000
  O   O73       1.0  0.79560  0.49180  0.00000  1.0000
  O   O74       1.0  0.49180  0.69620  0.00000  1.0000
  O   O75       1.0  0.30380  0.79560  0.00000  1.0000
  O   O76       1.0  0.20440  0.50820  0.00000  1.0000
  O   O77       1.0  0.59529  0.47525  0.89387  1.0000
  O   O78       1.0  0.52475  0.12004  0.89387  1.0000
  O   O79       1.0  0.87996  0.40471  0.89387  1.0000
  O   O80       1.0  0.40471  0.52475  0.89387  1.0000
  O   O81       1.0  0.47525  0.87996  0.89387  1.0000
  O   O82       1.0  0.12004  0.59529  0.89387  1.0000
  O   O83       1.0  0.40471  0.52475  0.10613  1.0000
  O   O84       1.0  0.47525  0.87996  0.10613  1.0000
  O   O85       1.0  0.12004  0.59529  0.10613  1.0000
  O   O86       1.0  0.59529  0.47525  0.10613  1.0000
  O   O87       1.0  0.52475  0.12004  0.10613  1.0000
  O   O88       1.0  0.87996  0.40471  0.10613  1.0000
  C   C1        1.0  0.43660  0.24990  0.73520  1.0000
  C   C2        1.0  0.75010  0.18670  0.73520  1.0000
  C   C3        1.0  0.81330  0.56340  0.73520  1.0000
  C   C4        1.0  0.56340  0.75010  0.73520  1.0000
  C   C5        1.0  0.24990  0.81330  0.73520  1.0000
  C   C6        1.0  0.18670  0.43660  0.73520  1.0000
  C   C7        1.0  0.56340  0.75010  0.26480  1.0000
  C   C8        1.0  0.24990  0.81330  0.26480  1.0000
  C   C9        1.0  0.18670  0.43660  0.26480  1.0000
  C   C10       1.0  0.43660  0.24990  0.26480  1.0000
  C   C11       1.0  0.75010  0.18670  0.26480  1.0000
  C   C12       1.0  0.81330  0.56340  0.26480  1.0000
  H   H1        1.0  0.43792  0.29187  0.68697  1.0000
  H   H2        1.0  0.70813  0.14605  0.68697  1.0000
  H   H3        1.0  0.85395  0.56208  0.68697  1.0000
  H   H4        1.0  0.56208  0.70813  0.68697  1.0000
  H   H5        1.0  0.29187  0.85395  0.68697  1.0000
  H   H6        1.0  0.14605  0.43792  0.68697  1.0000
  H   H7        1.0  0.56208  0.70813  0.31303  1.0000
  H   H8        1.0  0.29187  0.85395  0.31303  1.0000
  H   H9        1.0  0.14605  0.43792  0.31303  1.0000
  H   H10       1.0  0.43792  0.29187  0.31303  1.0000
  H   H11       1.0  0.70813  0.14605  0.31303  1.0000
  H   H12       1.0  0.85395  0.56208  0.31303  1.0000
  C   C13       1.0  0.35280  0.24150  0.79740  1.0000
  C   C14       1.0  0.75850  0.11130  0.79740  1.0000
  C   C15       1.0  0.88870  0.64720  0.79740  1.0000
  C   C16       1.0  0.64720  0.75850  0.79740  1.0000
  C   C17       1.0  0.24150  0.88870  0.79740  1.0000
  C   C18       1.0  0.11130  0.35280  0.79740  1.0000
  C   C19       1.0  0.64720  0.75850  0.20260  1.0000
  C   C20       1.0  0.24150  0.88870  0.20260  1.0000
  C   C21       1.0  0.11130  0.35280  0.20260  1.0000
  C   C22       1.0  0.35280  0.24150  0.20260  1.0000
  C   C23       1.0  0.75850  0.11130  0.20260  1.0000
  C   C24       1.0  0.88870  0.64720  0.20260  1.0000
  C   C25       1.0  0.40890  0.13880  0.70730  1.0000
  C   C26       1.0  0.86120  0.27010  0.70730  1.0000
  C   C27       1.0  0.72990  0.59110  0.70730  1.0000
  C   C28       1.0  0.59110  0.86120  0.70730  1.0000
  C   C29       1.0  0.13880  0.72990  0.70730  1.0000
  C   C30       1.0  0.27010  0.40890  0.70730  1.0000
  C   C31       1.0  0.59110  0.86120  0.29270  1.0000
  C   C32       1.0  0.13880  0.72990  0.29270  1.0000
  C   C33       1.0  0.27010  0.40890  0.29270  1.0000
  C   C34       1.0  0.40890  0.13880  0.29270  1.0000
  C   C35       1.0  0.86120  0.27010  0.29270  1.0000
  C   C36       1.0  0.72990  0.59110  0.29270  1.0000
  H   H13       1.0  0.41410  0.10057  0.75484  1.0000
  H   H14       1.0  0.89943  0.31353  0.75484  1.0000
  H   H15       1.0  0.68647  0.58590  0.75484  1.0000
  H   H16       1.0  0.58590  0.89943  0.75484  1.0000
  H   H17       1.0  0.10057  0.68647  0.75484  1.0000
  H   H18       1.0  0.31353  0.41410  0.75484  1.0000
  H   H19       1.0  0.58590  0.89943  0.24516  1.0000
  H   H20       1.0  0.10057  0.68647  0.24516  1.0000
  H   H21       1.0  0.31353  0.41410  0.24516  1.0000
  H   H22       1.0  0.41410  0.10057  0.24516  1.0000
  H   H23       1.0  0.89943  0.31353  0.24516  1.0000
  H   H24       1.0  0.68647  0.58590  0.24516  1.0000
  H   H25       1.0  0.33537  0.10142  0.68872  1.0000
  H   H26       1.0  0.89858  0.23395  0.68872  1.0000
  H   H27       1.0  0.76605  0.66463  0.68872  1.0000
  H   H28       1.0  0.66463  0.89858  0.68872  1.0000
  H   H29       1.0  0.10142  0.76605  0.68872  1.0000
  H   H30       1.0  0.23395  0.33537  0.68872  1.0000
  H   H31       1.0  0.66463  0.89858  0.31128  1.0000
  H   H32       1.0  0.10142  0.76605  0.31128  1.0000
  H   H33       1.0  0.23395  0.33537  0.31128  1.0000
  H   H34       1.0  0.33537  0.10142  0.31128  1.0000
  H   H35       1.0  0.89858  0.23395  0.31128  1.0000
  H   H36       1.0  0.76605  0.66463  0.31128  1.0000
  C   C37       1.0  0.47710  0.13540  0.63930  1.0000
  C   C38       1.0  0.86460  0.34170  0.63930  1.0000
  C   C39       1.0  0.65830  0.52290  0.63930  1.0000
  C   C40       1.0  0.52290  0.86460  0.63930  1.0000
  C   C41       1.0  0.13540  0.65830  0.63930  1.0000
  C   C42       1.0  0.34170  0.47710  0.63930  1.0000
  C   C43       1.0  0.52290  0.86460  0.36070  1.0000
  C   C44       1.0  0.13540  0.65830  0.36070  1.0000
  C   C45       1.0  0.34170  0.47710  0.36070  1.0000
  C   C46       1.0  0.47710  0.13540  0.36070  1.0000
  C   C47       1.0  0.86460  0.34170  0.36070  1.0000
  C   C48       1.0  0.65830  0.52290  0.36070  1.0000
  H   H37       1.0  0.35700  0.82500  0.54270  1.0000
  H   H38       1.0  0.17500  0.53200  0.54270  1.0000
  H   H39       1.0  0.46800  0.64300  0.54270  1.0000
  H   H40       1.0  0.64300  0.17500  0.54270  1.0000
  H   H41       1.0  0.82500  0.46800  0.54270  1.0000
  H   H42       1.0  0.53200  0.35700  0.54270  1.0000
  H   H43       1.0  0.64300  0.17500  0.45730  1.0000
  H   H44       1.0  0.82500  0.46800  0.45730  1.0000
  H   H45       1.0  0.53200  0.35700  0.45730  1.0000
  H   H46       1.0  0.35700  0.82500  0.45730  1.0000
  H   H47       1.0  0.17500  0.53200  0.45730  1.0000
  H   H48       1.0  0.46800  0.64300  0.45730  1.0000
