data_image0
_chemical_formula_structural       Th4P4O4C8H4C8H4C4H4C4H4C4H4C4H4C12O8Cl8O4C8H4C4H4C4H4C4O4C8H4C8H4O8C4H4
_chemical_formula_sum              "Th4 P4 O28 C84 H48 Cl8"
_cell_length_a       21.735
_cell_length_b       23.205
_cell_length_c       10.5286
_cell_angle_alpha    90
_cell_angle_beta     90
_cell_angle_gamma    90

_space_group_name_H-M_alt    "P 1"
_space_group_IT_number       1

loop_
  _space_group_symop_operation_xyz
  'x, y, z'

loop_
  _atom_site_type_symbol
  _atom_site_label
  _atom_site_symmetry_multiplicity
  _atom_site_fract_x
  _atom_site_fract_y
  _atom_site_fract_z
  _atom_site_occupancy
  Th  Th1       1.0  0.03161  0.28268  0.01490  1.0000
  Th  Th2       1.0  0.96839  0.71732  0.01490  1.0000
  Th  Th3       1.0  0.46839  0.78268  0.98510  1.0000
  Th  Th4       1.0  0.53161  0.21732  0.98510  1.0000
  P   P1        1.0  0.90593  0.34976  0.80660  1.0000
  P   P2        1.0  0.09407  0.65024  0.80660  1.0000
  P   P3        1.0  0.59407  0.84976  0.19340  1.0000
  P   P4        1.0  0.40593  0.15024  0.19340  1.0000
  O   O1        1.0  0.94920  0.31580  0.88680  1.0000
  O   O2        1.0  0.05080  0.68420  0.88680  1.0000
  O   O3        1.0  0.55080  0.81580  0.11320  1.0000
  O   O4        1.0  0.44920  0.18420  0.11320  1.0000
  C   C1        1.0  0.96390  0.32550  0.39360  1.0000
  C   C2        1.0  0.03610  0.67450  0.39360  1.0000
  C   C3        1.0  0.53610  0.82550  0.60640  1.0000
  C   C4        1.0  0.46390  0.17450  0.60640  1.0000
  C   C5        1.0  0.91560  0.44010  0.97480  1.0000
  C   C6        1.0  0.08440  0.55990  0.97480  1.0000
  C   C7        1.0  0.58440  0.94010  0.02520  1.0000
  C   C8        1.0  0.41560  0.05990  0.02520  1.0000
  H   H1        1.0  0.91590  0.41160  0.03700  1.0000
  H   H2        1.0  0.08410  0.58840  0.03700  1.0000
  H   H3        1.0  0.58410  0.91160  0.96300  1.0000
  H   H4        1.0  0.41590  0.08840  0.96300  1.0000
  C   C9        1.0  0.92570  0.34110  0.64160  1.0000
  C   C10       1.0  0.07430  0.65890  0.64160  1.0000
  C   C11       1.0  0.57430  0.84110  0.35840  1.0000
  C   C12       1.0  0.42570  0.15890  0.35840  1.0000
  C   C13       1.0  0.90720  0.34320  0.41770  1.0000
  C   C14       1.0  0.09280  0.65680  0.41770  1.0000
  C   C15       1.0  0.59280  0.84320  0.58230  1.0000
  C   C16       1.0  0.40720  0.15680  0.58230  1.0000
  H   H5        1.0  0.88110  0.35180  0.35030  1.0000
  H   H6        1.0  0.11890  0.64820  0.35030  1.0000
  H   H7        1.0  0.61890  0.85180  0.64970  1.0000
  H   H8        1.0  0.38110  0.14820  0.64970  1.0000
  C   C17       1.0  0.92130  0.49630  0.00770  1.0000
  C   C18       1.0  0.07870  0.50370  0.00770  1.0000
  C   C19       1.0  0.57870  0.99630  0.99230  1.0000
  C   C20       1.0  0.42130  0.00370  0.99230  1.0000
  H   H9        1.0  0.92480  0.50650  0.09290  1.0000
  H   H10       1.0  0.07520  0.49350  0.09290  1.0000
  H   H11       1.0  0.57520  0.00650  0.90710  1.0000
  H   H12       1.0  0.42480  0.99350  0.90710  1.0000
  C   C21       1.0  0.88510  0.34920  0.54360  1.0000
  C   C22       1.0  0.11490  0.65080  0.54360  1.0000
  C   C23       1.0  0.61490  0.84920  0.45640  1.0000
  C   C24       1.0  0.38510  0.15080  0.45640  1.0000
  H   H13       1.0  0.84420  0.35830  0.55930  1.0000
  H   H14       1.0  0.15580  0.64170  0.55930  1.0000
  H   H15       1.0  0.65580  0.85830  0.44070  1.0000
  H   H16       1.0  0.34420  0.14170  0.44070  1.0000
  C   C25       1.0  0.98670  0.32770  0.61500  1.0000
  C   C26       1.0  0.01330  0.67230  0.61500  1.0000
  C   C27       1.0  0.51330  0.82770  0.38500  1.0000
  C   C28       1.0  0.48670  0.17230  0.38500  1.0000
  H   H17       1.0  0.01500  0.32370  0.68060  1.0000
  H   H18       1.0  0.98500  0.67630  0.68060  1.0000
  H   H19       1.0  0.48500  0.82370  0.31940  1.0000
  H   H20       1.0  0.51500  0.17630  0.31940  1.0000
  C   C29       1.0  0.00460  0.32070  0.49360  1.0000
  C   C30       1.0  0.99540  0.67930  0.49360  1.0000
  C   C31       1.0  0.49540  0.82070  0.50640  1.0000
  C   C32       1.0  0.50460  0.17930  0.50640  1.0000
  H   H21       1.0  0.04560  0.31230  0.47660  1.0000
  H   H22       1.0  0.95440  0.68770  0.47660  1.0000
  H   H23       1.0  0.45440  0.81230  0.52340  1.0000
  H   H24       1.0  0.54560  0.18770  0.52340  1.0000
  C   C33       1.0  0.90920  0.42510  0.84600  1.0000
  C   C34       1.0  0.09080  0.57490  0.84600  1.0000
  C   C35       1.0  0.59080  0.92510  0.15400  1.0000
  C   C36       1.0  0.40920  0.07490  0.15400  1.0000
  C   C37       1.0  0.93260  0.60180  0.95130  1.0000
  C   C38       1.0  0.06740  0.39820  0.95130  1.0000
  C   C39       1.0  0.56740  0.10180  0.04870  1.0000
  C   C40       1.0  0.43260  0.89820  0.04870  1.0000
  C   C41       1.0  0.92200  0.53950  0.91310  1.0000
  C   C42       1.0  0.07800  0.46050  0.91310  1.0000
  C   C43       1.0  0.57800  0.03950  0.08690  1.0000
  C   C44       1.0  0.42200  0.96050  0.08690  1.0000
  O   O5        1.0  0.94920  0.61290  0.06250  1.0000
  O   O6        1.0  0.05080  0.38710  0.06250  1.0000
  O   O7        1.0  0.55080  0.11290  0.93750  1.0000
  O   O8        1.0  0.44920  0.88710  0.93750  1.0000
  O   O9        1.0  0.92650  0.64160  0.86840  1.0000
  O   O10       1.0  0.07350  0.35840  0.86840  1.0000
  O   O11       1.0  0.57350  0.14160  0.13160  1.0000
  O   O12       1.0  0.42650  0.85840  0.13160  1.0000
  Cl  Cl1       1.0  0.06800  0.22280  0.80200  1.0000
  Cl  Cl2       1.0  0.93200  0.77720  0.80200  1.0000
  Cl  Cl3       1.0  0.43200  0.72280  0.19800  1.0000
  Cl  Cl4       1.0  0.56800  0.27720  0.19800  1.0000
  Cl  Cl5       1.0  0.95385  0.19135  0.05530  1.0000
  Cl  Cl6       1.0  0.04615  0.80865  0.05530  1.0000
  Cl  Cl7       1.0  0.54615  0.69135  0.94470  1.0000
  Cl  Cl8       1.0  0.45385  0.30865  0.94470  1.0000
  O   O13       1.0  0.94940  0.32180  0.16740  1.0000
  O   O14       1.0  0.05060  0.67820  0.16740  1.0000
  O   O15       1.0  0.55060  0.82180  0.83260  1.0000
  O   O16       1.0  0.44940  0.17820  0.83260  1.0000
  C   C45       1.0  0.98420  0.31290  0.26410  1.0000
  C   C46       1.0  0.01580  0.68710  0.26410  1.0000
  C   C47       1.0  0.51580  0.81290  0.73590  1.0000
  C   C48       1.0  0.48420  0.18710  0.73590  1.0000
  C   C49       1.0  0.91250  0.52550  0.78840  1.0000
  C   C50       1.0  0.08750  0.47450  0.78840  1.0000
  C   C51       1.0  0.58750  0.02550  0.21160  1.0000
  C   C52       1.0  0.41250  0.97450  0.21160  1.0000
  H   H25       1.0  0.90970  0.55410  0.72690  1.0000
  H   H26       1.0  0.09030  0.44590  0.72690  1.0000
  H   H27       1.0  0.59030  0.05410  0.27310  1.0000
  H   H28       1.0  0.40970  0.94590  0.27310  1.0000
  C   C53       1.0  0.77830  0.35760  0.80370  1.0000
  C   C54       1.0  0.22170  0.64240  0.80370  1.0000
  C   C55       1.0  0.72170  0.85760  0.19630  1.0000
  C   C56       1.0  0.27830  0.14240  0.19630  1.0000
  H   H29       1.0  0.78380  0.39400  0.76860  1.0000
  H   H30       1.0  0.21620  0.60600  0.76860  1.0000
  H   H31       1.0  0.71620  0.89400  0.23140  1.0000
  H   H32       1.0  0.28380  0.10600  0.23140  1.0000
  C   C57       1.0  0.90700  0.46750  0.75470  1.0000
  C   C58       1.0  0.09300  0.53250  0.75470  1.0000
  C   C59       1.0  0.59300  0.96750  0.24530  1.0000
  C   C60       1.0  0.40700  0.03250  0.24530  1.0000
  H   H33       1.0  0.90170  0.45750  0.66980  1.0000
  H   H34       1.0  0.09830  0.54250  0.66980  1.0000
  H   H35       1.0  0.59830  0.95750  0.33020  1.0000
  H   H36       1.0  0.40170  0.04250  0.33020  1.0000
  C   C61       1.0  0.82920  0.32460  0.83250  1.0000
  C   C62       1.0  0.17080  0.67540  0.83250  1.0000
  C   C63       1.0  0.67080  0.82460  0.16750  1.0000
  C   C64       1.0  0.32920  0.17540  0.16750  1.0000
  O   O17       1.0  0.03880  0.29340  0.24800  1.0000
  O   O18       1.0  0.96120  0.70660  0.24800  1.0000
  O   O19       1.0  0.46120  0.79340  0.75200  1.0000
  O   O20       1.0  0.53880  0.20660  0.75200  1.0000
  C   C65       1.0  0.71280  0.28270  0.88120  1.0000
  C   C66       1.0  0.28720  0.71730  0.88120  1.0000
  C   C67       1.0  0.78720  0.78270  0.11880  1.0000
  C   C68       1.0  0.21280  0.21730  0.11880  1.0000
  C   C69       1.0  0.71900  0.33750  0.82590  1.0000
  C   C70       1.0  0.28100  0.66250  0.82590  1.0000
  C   C71       1.0  0.78100  0.83750  0.17410  1.0000
  C   C72       1.0  0.21900  0.16250  0.17410  1.0000
  H   H37       1.0  0.68470  0.35950  0.80490  1.0000
  H   H38       1.0  0.31530  0.64050  0.80490  1.0000
  H   H39       1.0  0.81530  0.85950  0.19510  1.0000
  H   H40       1.0  0.18470  0.14050  0.19510  1.0000
  C   C73       1.0  0.64810  0.26010  0.91030  1.0000
  C   C74       1.0  0.35190  0.73990  0.91030  1.0000
  C   C75       1.0  0.85190  0.76010  0.08970  1.0000
  C   C76       1.0  0.14810  0.23990  0.08970  1.0000
  C   C77       1.0  0.76330  0.25190  0.91830  1.0000
  C   C78       1.0  0.23670  0.74810  0.91830  1.0000
  C   C79       1.0  0.73670  0.75190  0.08170  1.0000
  C   C80       1.0  0.26330  0.24810  0.08170  1.0000
  H   H41       1.0  0.75830  0.21760  0.96250  1.0000
  H   H42       1.0  0.24170  0.78240  0.96250  1.0000
  H   H43       1.0  0.74170  0.71760  0.03750  1.0000
  H   H44       1.0  0.25830  0.28240  0.03750  1.0000
  O   O21       1.0  0.64550  0.21010  0.95730  1.0000
  O   O22       1.0  0.35450  0.78990  0.95730  1.0000
  O   O23       1.0  0.85450  0.71010  0.04270  1.0000
  O   O24       1.0  0.14550  0.28990  0.04270  1.0000
  O   O25       1.0  0.60380  0.29360  0.89920  1.0000
  O   O26       1.0  0.39620  0.70640  0.89920  1.0000
  O   O27       1.0  0.89620  0.79360  0.10080  1.0000
  O   O28       1.0  0.10380  0.20640  0.10080  1.0000
  C   C81       1.0  0.82200  0.27180  0.89010  1.0000
  C   C82       1.0  0.17800  0.72820  0.89010  1.0000
  C   C83       1.0  0.67800  0.77180  0.10990  1.0000
  C   C84       1.0  0.32200  0.22820  0.10990  1.0000
  H   H45       1.0  0.85630  0.24960  0.91010  1.0000
  H   H46       1.0  0.14370  0.75040  0.91010  1.0000
  H   H47       1.0  0.64370  0.74960  0.08990  1.0000
  H   H48       1.0  0.35630  0.25040  0.08990  1.0000
