data_image0
_chemical_formula_structural       Co8S8N20O48C12H4C4H4C8H4C4H4C8H4C4H4C8H4C4H4C16H4C4H4C8H4C4H4C8H4C4H4C8H4C4H4C12H16
_chemical_formula_sum              "Co8 S8 N20 O48 C120 H80"
_cell_length_a       17.9697
_cell_length_b       21.8405
_cell_length_c       12.6666
_cell_angle_alpha    90
_cell_angle_beta     90
_cell_angle_gamma    90

_space_group_name_H-M_alt    "P 1"
_space_group_IT_number       1

loop_
  _space_group_symop_operation_xyz
  'x, y, z'

loop_
  _atom_site_type_symbol
  _atom_site_label
  _atom_site_symmetry_multiplicity
  _atom_site_fract_x
  _atom_site_fract_y
  _atom_site_fract_z
  _atom_site_occupancy
  Co  Co1       1.0  0.33730  0.72967  0.03428  1.0000
  Co  Co2       1.0  0.66270  0.27033  0.53428  1.0000
  Co  Co3       1.0  0.16270  0.22967  0.53428  1.0000
  Co  Co4       1.0  0.83730  0.77033  0.03428  1.0000
  Co  Co5       1.0  0.17418  0.72165  0.02627  1.0000
  Co  Co6       1.0  0.82582  0.27835  0.52627  1.0000
  Co  Co7       1.0  0.32582  0.22165  0.52627  1.0000
  Co  Co8       1.0  0.67418  0.77835  0.02627  1.0000
  S   S1        1.0  0.25065  0.60570  0.39188  1.0000
  S   S2        1.0  0.74935  0.39430  0.89188  1.0000
  S   S3        1.0  0.24935  0.10570  0.89188  1.0000
  S   S4        1.0  0.75065  0.89430  0.39188  1.0000
  S   S5        1.0  0.20725  0.84057  0.67729  1.0000
  S   S6        1.0  0.79275  0.15943  0.17729  1.0000
  S   S7        1.0  0.29275  0.34057  0.17729  1.0000
  S   S8        1.0  0.70725  0.65943  0.67729  1.0000
  N   N1        1.0  0.44300  0.76030  0.05260  1.0000
  N   N2        1.0  0.55700  0.23970  0.55260  1.0000
  N   N3        1.0  0.05700  0.26030  0.55260  1.0000
  N   N4        1.0  0.94300  0.73970  0.05260  1.0000
  N   N5        1.0  0.56160  0.79200  0.04150  1.0000
  N   N6        1.0  0.43840  0.20800  0.54150  1.0000
  N   N7        1.0  0.93840  0.29200  0.54150  1.0000
  N   N8        1.0  0.06160  0.70800  0.04150  1.0000
  N   N9        1.0  0.45980  0.79950  0.13760  1.0000
  N   N10       1.0  0.54020  0.20050  0.63760  1.0000
  N   N11       1.0  0.04020  0.29950  0.63760  1.0000
  N   N12       1.0  0.95980  0.70050  0.13760  1.0000
  N   N13       1.0  0.51300  0.73110  0.90270  1.0000
  N   N14       1.0  0.48700  0.26890  0.40270  1.0000
  N   N15       1.0  0.98700  0.23110  0.40270  1.0000
  N   N16       1.0  0.01300  0.76890  0.90270  1.0000
  N   N17       1.0  0.56450  0.85290  0.19800  1.0000
  N   N18       1.0  0.43550  0.14710  0.69800  1.0000
  N   N19       1.0  0.93550  0.35290  0.69800  1.0000
  N   N20       1.0  0.06450  0.64710  0.19800  1.0000
  O   O1        1.0  0.21340  0.30910  0.50090  1.0000
  O   O2        1.0  0.78660  0.69090  0.00090  1.0000
  O   O3        1.0  0.28660  0.80910  0.00090  1.0000
  O   O4        1.0  0.71340  0.19090  0.50090  1.0000
  O   O5        1.0  0.17500  0.14040  0.57200  1.0000
  O   O6        1.0  0.82500  0.85960  0.07200  1.0000
  O   O7        1.0  0.32500  0.64040  0.07200  1.0000
  O   O8        1.0  0.67500  0.35960  0.57200  1.0000
  O   O9        1.0  0.34450  0.70410  0.87790  1.0000
  O   O10       1.0  0.65550  0.29590  0.37790  1.0000
  O   O11       1.0  0.15550  0.20410  0.37790  1.0000
  O   O12       1.0  0.84450  0.79590  0.87790  1.0000
  O   O13       1.0  0.31580  0.75240  0.19470  1.0000
  O   O14       1.0  0.68420  0.24760  0.69470  1.0000
  O   O15       1.0  0.18420  0.25240  0.69470  1.0000
  O   O16       1.0  0.81580  0.74760  0.19470  1.0000
  O   O17       1.0  0.22090  0.69480  0.89220  1.0000
  O   O18       1.0  0.77910  0.30520  0.39220  1.0000
  O   O19       1.0  0.27910  0.19480  0.39220  1.0000
  O   O20       1.0  0.72090  0.80520  0.89220  1.0000
  O   O21       1.0  0.19160  0.74920  0.17430  1.0000
  O   O22       1.0  0.80840  0.25080  0.67430  1.0000
  O   O23       1.0  0.30840  0.24920  0.67430  1.0000
  O   O24       1.0  0.69160  0.75080  0.17430  1.0000
  O   O25       1.0  0.33590  0.31000  0.47340  1.0000
  O   O26       1.0  0.66410  0.69000  0.97340  1.0000
  O   O27       1.0  0.16410  0.81000  0.97340  1.0000
  O   O28       1.0  0.83590  0.19000  0.47340  1.0000
  O   O29       1.0  0.29820  0.13310  0.58300  1.0000
  O   O30       1.0  0.70180  0.86690  0.08300  1.0000
  O   O31       1.0  0.20180  0.63310  0.08300  1.0000
  O   O32       1.0  0.79820  0.36690  0.58300  1.0000
  O   O33       1.0  0.17730  0.62020  0.35560  1.0000
  O   O34       1.0  0.82270  0.37980  0.85560  1.0000
  O   O35       1.0  0.32270  0.12020  0.85560  1.0000
  O   O36       1.0  0.67730  0.87980  0.35560  1.0000
  O   O37       1.0  0.31330  0.62490  0.33110  1.0000
  O   O38       1.0  0.68670  0.37510  0.83110  1.0000
  O   O39       1.0  0.18670  0.12490  0.83110  1.0000
  O   O40       1.0  0.81330  0.87510  0.33110  1.0000
  O   O41       1.0  0.13180  0.82710  0.71100  1.0000
  O   O42       1.0  0.86820  0.17290  0.21100  1.0000
  O   O43       1.0  0.36820  0.32710  0.21100  1.0000
  O   O44       1.0  0.63180  0.67290  0.71100  1.0000
  O   O45       1.0  0.26850  0.82060  0.74060  1.0000
  O   O46       1.0  0.73150  0.17940  0.24060  1.0000
  O   O47       1.0  0.23150  0.32060  0.24060  1.0000
  O   O48       1.0  0.76850  0.67940  0.74060  1.0000
  C   C1        1.0  0.28110  0.69310  0.84090  1.0000
  C   C2        1.0  0.71890  0.30690  0.34090  1.0000
  C   C3        1.0  0.21890  0.19310  0.34090  1.0000
  C   C4        1.0  0.78110  0.80690  0.84090  1.0000
  C   C5        1.0  0.27440  0.67300  0.72750  1.0000
  C   C6        1.0  0.72560  0.32700  0.22750  1.0000
  C   C7        1.0  0.22560  0.17300  0.22750  1.0000
  C   C8        1.0  0.77440  0.82700  0.72750  1.0000
  C   C9        1.0  0.20500  0.66730  0.68170  1.0000
  C   C10       1.0  0.79500  0.33270  0.18170  1.0000
  C   C11       1.0  0.29500  0.16730  0.18170  1.0000
  C   C12       1.0  0.70500  0.83270  0.68170  1.0000
  H   H1        1.0  0.16270  0.67670  0.72080  1.0000
  H   H2        1.0  0.83730  0.32330  0.22080  1.0000
  H   H3        1.0  0.33730  0.17670  0.22080  1.0000
  H   H4        1.0  0.66270  0.82330  0.72080  1.0000
  C   C13       1.0  0.19760  0.64790  0.57910  1.0000
  C   C14       1.0  0.80240  0.35210  0.07910  1.0000
  C   C15       1.0  0.30240  0.14790  0.07910  1.0000
  C   C16       1.0  0.69760  0.85210  0.57910  1.0000
  H   H5        1.0  0.15080  0.64370  0.54880  1.0000
  H   H6        1.0  0.84920  0.35630  0.04880  1.0000
  H   H7        1.0  0.34920  0.14370  0.04880  1.0000
  H   H8        1.0  0.65080  0.85630  0.54880  1.0000
  C   C17       1.0  0.26070  0.63480  0.52160  1.0000
  C   C18       1.0  0.73930  0.36520  0.02160  1.0000
  C   C19       1.0  0.23930  0.13480  0.02160  1.0000
  C   C20       1.0  0.76070  0.86520  0.52160  1.0000
  C   C21       1.0  0.33140  0.64080  0.56560  1.0000
  C   C22       1.0  0.66860  0.35920  0.06560  1.0000
  C   C23       1.0  0.16860  0.14080  0.06560  1.0000
  C   C24       1.0  0.83140  0.85920  0.56560  1.0000
  H   H9        1.0  0.37370  0.63160  0.52640  1.0000
  H   H10       1.0  0.62630  0.36840  0.02640  1.0000
  H   H11       1.0  0.12630  0.13160  0.02640  1.0000
  H   H12       1.0  0.87370  0.86840  0.52640  1.0000
  C   C25       1.0  0.33730  0.66080  0.66870  1.0000
  C   C26       1.0  0.66270  0.33920  0.16870  1.0000
  C   C27       1.0  0.16270  0.16080  0.16870  1.0000
  C   C28       1.0  0.83730  0.83920  0.66870  1.0000
  H   H13       1.0  0.38400  0.66600  0.69890  1.0000
  H   H14       1.0  0.61600  0.33400  0.19890  1.0000
  H   H15       1.0  0.11600  0.16600  0.19890  1.0000
  H   H16       1.0  0.88400  0.83400  0.69890  1.0000
  C   C29       1.0  0.25720  0.52510  0.41150  1.0000
  C   C30       1.0  0.74280  0.47490  0.91150  1.0000
  C   C31       1.0  0.24280  0.02510  0.91150  1.0000
  C   C32       1.0  0.75720  0.97490  0.41150  1.0000
  C   C33       1.0  0.19310  0.49360  0.43760  1.0000
  C   C34       1.0  0.80690  0.50640  0.93760  1.0000
  C   C35       1.0  0.30690  0.99360  0.93760  1.0000
  C   C36       1.0  0.69310  0.00640  0.43760  1.0000
  H   H17       1.0  0.14760  0.51360  0.44280  1.0000
  H   H18       1.0  0.85240  0.48640  0.94280  1.0000
  H   H19       1.0  0.35240  0.01360  0.94280  1.0000
  H   H20       1.0  0.64760  0.98640  0.44280  1.0000
  C   C37       1.0  0.19870  0.43100  0.45580  1.0000
  C   C38       1.0  0.80130  0.56900  0.95580  1.0000
  C   C39       1.0  0.30130  0.93100  0.95580  1.0000
  C   C40       1.0  0.69870  0.06900  0.45580  1.0000
  H   H21       1.0  0.15620  0.40850  0.47180  1.0000
  H   H22       1.0  0.84380  0.59150  0.97180  1.0000
  H   H23       1.0  0.34380  0.90850  0.97180  1.0000
  H   H24       1.0  0.65620  0.09150  0.47180  1.0000
  C   C41       1.0  0.26640  0.40210  0.45050  1.0000
  C   C42       1.0  0.73360  0.59790  0.95050  1.0000
  C   C43       1.0  0.23360  0.90210  0.95050  1.0000
  C   C44       1.0  0.76640  0.09790  0.45050  1.0000
  C   C45       1.0  0.33070  0.43540  0.42410  1.0000
  C   C46       1.0  0.66930  0.56460  0.92410  1.0000
  C   C47       1.0  0.16930  0.93540  0.92410  1.0000
  C   C48       1.0  0.83070  0.06460  0.42410  1.0000
  H   H25       1.0  0.37650  0.41560  0.41950  1.0000
  H   H26       1.0  0.62350  0.58440  0.91950  1.0000
  H   H27       1.0  0.12350  0.91560  0.91950  1.0000
  H   H28       1.0  0.87650  0.08440  0.41950  1.0000
  C   C49       1.0  0.32580  0.49770  0.40500  1.0000
  C   C50       1.0  0.67420  0.50230  0.90500  1.0000
  C   C51       1.0  0.17420  0.99770  0.90500  1.0000
  C   C52       1.0  0.82580  0.00230  0.40500  1.0000
  H   H29       1.0  0.36800  0.52040  0.38820  1.0000
  H   H30       1.0  0.63200  0.47960  0.88820  1.0000
  H   H31       1.0  0.13200  0.02040  0.88820  1.0000
  H   H32       1.0  0.86800  0.97960  0.38820  1.0000
  C   C53       1.0  0.27250  0.33540  0.47600  1.0000
  C   C54       1.0  0.72750  0.66460  0.97600  1.0000
  C   C55       1.0  0.22750  0.83540  0.97600  1.0000
  C   C56       1.0  0.77250  0.16460  0.47600  1.0000
  C   C57       1.0  0.25000  0.75730  0.22730  1.0000
  C   C58       1.0  0.75000  0.24270  0.72730  1.0000
  C   C59       1.0  0.25000  0.25730  0.72730  1.0000
  C   C60       1.0  0.75000  0.74270  0.22730  1.0000
  C   C61       1.0  0.23850  0.77560  0.34150  1.0000
  C   C62       1.0  0.76150  0.22440  0.84150  1.0000
  C   C63       1.0  0.26150  0.27560  0.84150  1.0000
  C   C64       1.0  0.73850  0.72440  0.34150  1.0000
  C   C65       1.0  0.29900  0.78280  0.40690  1.0000
  C   C66       1.0  0.70100  0.21720  0.90690  1.0000
  C   C67       1.0  0.20100  0.28280  0.90690  1.0000
  C   C68       1.0  0.79900  0.71720  0.40690  1.0000
  H   H33       1.0  0.34690  0.77640  0.38120  1.0000
  H   H34       1.0  0.65310  0.22360  0.88120  1.0000
  H   H35       1.0  0.15310  0.27640  0.88120  1.0000
  H   H36       1.0  0.84690  0.72360  0.38120  1.0000
  C   C69       1.0  0.28800  0.79990  0.51220  1.0000
  C   C70       1.0  0.71200  0.20010  0.01220  1.0000
  C   C71       1.0  0.21200  0.29990  0.01220  1.0000
  C   C72       1.0  0.78800  0.70010  0.51220  1.0000
  H   H37       1.0  0.32840  0.80320  0.55780  1.0000
  H   H38       1.0  0.67160  0.19680  0.05780  1.0000
  H   H39       1.0  0.17160  0.30320  0.05780  1.0000
  H   H40       1.0  0.82840  0.69680  0.55780  1.0000
  C   C73       1.0  0.21860  0.81150  0.54720  1.0000
  C   C74       1.0  0.78140  0.18850  0.04720  1.0000
  C   C75       1.0  0.28140  0.31150  0.04720  1.0000
  C   C76       1.0  0.71860  0.68850  0.54720  1.0000
  C   C77       1.0  0.15680  0.80390  0.48340  1.0000
  C   C78       1.0  0.84320  0.19610  0.98340  1.0000
  C   C79       1.0  0.34320  0.30390  0.98340  1.0000
  C   C80       1.0  0.65680  0.69610  0.48340  1.0000
  H   H41       1.0  0.10910  0.81090  0.50940  1.0000
  H   H42       1.0  0.89090  0.18910  0.00940  1.0000
  H   H43       1.0  0.39090  0.31090  0.00940  1.0000
  H   H44       1.0  0.60910  0.68910  0.50940  1.0000
  C   C81       1.0  0.16740  0.78550  0.37980  1.0000
  C   C82       1.0  0.83260  0.21450  0.87980  1.0000
  C   C83       1.0  0.33260  0.28550  0.87980  1.0000
  C   C84       1.0  0.66740  0.71450  0.37980  1.0000
  H   H45       1.0  0.12660  0.77980  0.33580  1.0000
  H   H46       1.0  0.87340  0.22020  0.83580  1.0000
  H   H47       1.0  0.37340  0.27980  0.83580  1.0000
  H   H48       1.0  0.62660  0.72020  0.33580  1.0000
  C   C85       1.0  0.21510  0.92030  0.65820  1.0000
  C   C86       1.0  0.78490  0.07970  0.15820  1.0000
  C   C87       1.0  0.28490  0.42030  0.15820  1.0000
  C   C88       1.0  0.71510  0.57970  0.65820  1.0000
  C   C89       1.0  0.28380  0.94840  0.66640  1.0000
  C   C90       1.0  0.71620  0.05160  0.16640  1.0000
  C   C91       1.0  0.21620  0.44840  0.16640  1.0000
  C   C92       1.0  0.78380  0.55160  0.66640  1.0000
  H   H49       1.0  0.32540  0.92590  0.68620  1.0000
  H   H50       1.0  0.67460  0.07410  0.18620  1.0000
  H   H51       1.0  0.17460  0.42590  0.18620  1.0000
  H   H52       1.0  0.82540  0.57410  0.68620  1.0000
  C   C93       1.0  0.29010  0.01050  0.64500  1.0000
  C   C94       1.0  0.70990  0.98950  0.14500  1.0000
  C   C95       1.0  0.20990  0.51050  0.14500  1.0000
  C   C96       1.0  0.79010  0.48950  0.64500  1.0000
  H   H53       1.0  0.33630  0.02970  0.64970  1.0000
  H   H54       1.0  0.66370  0.97030  0.14970  1.0000
  H   H55       1.0  0.16370  0.52970  0.14970  1.0000
  H   H56       1.0  0.83630  0.47030  0.64970  1.0000
  C   C97       1.0  0.22770  0.04410  0.61660  1.0000
  C   C98       1.0  0.77230  0.95590  0.11660  1.0000
  C   C99       1.0  0.27230  0.54410  0.11660  1.0000
  C   C100      1.0  0.72770  0.45590  0.61660  1.0000
  C   C101      1.0  0.15940  0.01560  0.61070  1.0000
  C   C102      1.0  0.84060  0.98440  0.11070  1.0000
  C   C103      1.0  0.34060  0.51560  0.11070  1.0000
  C   C104      1.0  0.65940  0.48440  0.61070  1.0000
  H   H57       1.0  0.11740  0.03830  0.59280  1.0000
  H   H58       1.0  0.88260  0.96170  0.09280  1.0000
  H   H59       1.0  0.38260  0.53830  0.09280  1.0000
  H   H60       1.0  0.61740  0.46170  0.59280  1.0000
  C   C105      1.0  0.15250  0.95370  0.63100  1.0000
  C   C106      1.0  0.84750  0.04630  0.13100  1.0000
  C   C107      1.0  0.34750  0.45370  0.13100  1.0000
  C   C108      1.0  0.65250  0.54630  0.63100  1.0000
  H   H61       1.0  0.10630  0.93460  0.62640  1.0000
  H   H62       1.0  0.89370  0.06540  0.12640  1.0000
  H   H63       1.0  0.39370  0.43460  0.12640  1.0000
  H   H64       1.0  0.60630  0.56540  0.62640  1.0000
  C   C109      1.0  0.23450  0.11140  0.58890  1.0000
  C   C110      1.0  0.76550  0.88860  0.08890  1.0000
  C   C111      1.0  0.26550  0.61140  0.08890  1.0000
  C   C112      1.0  0.73450  0.38860  0.58890  1.0000
  C   C113      1.0  0.50580  0.75920  0.99790  1.0000
  C   C114      1.0  0.49420  0.24080  0.49790  1.0000
  C   C115      1.0  0.99420  0.25920  0.49790  1.0000
  C   C116      1.0  0.00580  0.74080  0.99790  1.0000
  C   C117      1.0  0.53060  0.81620  0.13000  1.0000
  C   C118      1.0  0.46940  0.18380  0.63000  1.0000
  C   C119      1.0  0.96940  0.31620  0.63000  1.0000
  C   C120      1.0  0.03060  0.68380  0.13000  1.0000
  H   H65       1.0  0.56200  0.71900  0.88600  1.0000
  H   H66       1.0  0.43800  0.28100  0.38600  1.0000
  H   H67       1.0  0.93800  0.21900  0.38600  1.0000
  H   H68       1.0  0.06200  0.78100  0.88600  1.0000
  H   H69       1.0  0.47400  0.71100  0.89600  1.0000
  H   H70       1.0  0.52600  0.28900  0.39600  1.0000
  H   H71       1.0  0.02600  0.21100  0.39600  1.0000
  H   H72       1.0  0.97400  0.78900  0.89600  1.0000
  H   H73       1.0  0.54900  0.86200  0.26500  1.0000
  H   H74       1.0  0.45100  0.13800  0.76500  1.0000
  H   H75       1.0  0.95100  0.36200  0.76500  1.0000
  H   H76       1.0  0.04900  0.63800  0.26500  1.0000
  H   H77       1.0  0.61160  0.85700  0.19900  1.0000
  H   H78       1.0  0.38840  0.14300  0.69900  1.0000
  H   H79       1.0  0.88840  0.35700  0.69900  1.0000
  H   H80       1.0  0.11160  0.64300  0.19900  1.0000
