data_image0
_chemical_formula_structural       Co8N4O24N4O8N4C16N4C8N4H8C16H12C8H8C8H8C4H8C4H4S8O8C4O8C20H4C8H8C8H8C4H8C4H4C8
_chemical_formula_sum              "Co8 N20 O48 C120 H80 S8"
_cell_length_a       17.9598
_cell_length_b       21.8386
_cell_length_c       12.6661
_cell_angle_alpha    90
_cell_angle_beta     90
_cell_angle_gamma    90

_space_group_name_H-M_alt    "P 1"
_space_group_IT_number       1

loop_
  _space_group_symop_operation_xyz
  'x, y, z'

loop_
  _atom_site_type_symbol
  _atom_site_label
  _atom_site_symmetry_multiplicity
  _atom_site_fract_x
  _atom_site_fract_y
  _atom_site_fract_z
  _atom_site_occupancy
  Co  Co1       1.0  0.33797  0.72853  0.03432  1.0000
  Co  Co2       1.0  0.66203  0.27147  0.53432  1.0000
  Co  Co3       1.0  0.16203  0.22853  0.53432  1.0000
  Co  Co4       1.0  0.83797  0.77147  0.03432  1.0000
  Co  Co5       1.0  0.17465  0.72006  0.02574  1.0000
  Co  Co6       1.0  0.82535  0.27994  0.52574  1.0000
  Co  Co7       1.0  0.32535  0.22006  0.52574  1.0000
  Co  Co8       1.0  0.67465  0.77994  0.02574  1.0000
  N   N1        1.0  0.44380  0.76000  0.05300  1.0000
  N   N2        1.0  0.55620  0.24000  0.55300  1.0000
  N   N3        1.0  0.05620  0.26000  0.55300  1.0000
  N   N4        1.0  0.94380  0.74000  0.05300  1.0000
  O   O1        1.0  0.34550  0.70320  0.87800  1.0000
  O   O2        1.0  0.65450  0.29680  0.37800  1.0000
  O   O3        1.0  0.15450  0.20320  0.37800  1.0000
  O   O4        1.0  0.84550  0.79680  0.87800  1.0000
  O   O5        1.0  0.31640  0.75070  0.19540  1.0000
  O   O6        1.0  0.68360  0.24930  0.69540  1.0000
  O   O7        1.0  0.18360  0.25070  0.69540  1.0000
  O   O8        1.0  0.81640  0.74930  0.19540  1.0000
  O   O9        1.0  0.21340  0.30760  0.50200  1.0000
  O   O10       1.0  0.78660  0.69240  0.00200  1.0000
  O   O11       1.0  0.28660  0.80760  0.00200  1.0000
  O   O12       1.0  0.71340  0.19240  0.50200  1.0000
  O   O13       1.0  0.17470  0.13930  0.57220  1.0000
  O   O14       1.0  0.82530  0.86070  0.07220  1.0000
  O   O15       1.0  0.32530  0.63930  0.07220  1.0000
  O   O16       1.0  0.67470  0.36070  0.57220  1.0000
  O   O17       1.0  0.22210  0.69340  0.89200  1.0000
  O   O18       1.0  0.77790  0.30660  0.39200  1.0000
  O   O19       1.0  0.27790  0.19340  0.39200  1.0000
  O   O20       1.0  0.72210  0.80660  0.89200  1.0000
  O   O21       1.0  0.19180  0.74820  0.17380  1.0000
  O   O22       1.0  0.80820  0.25180  0.67380  1.0000
  O   O23       1.0  0.30820  0.24820  0.67380  1.0000
  O   O24       1.0  0.69180  0.75180  0.17380  1.0000
  N   N5        1.0  0.56180  0.79290  0.04040  1.0000
  N   N6        1.0  0.43820  0.20710  0.54040  1.0000
  N   N7        1.0  0.93820  0.29290  0.54040  1.0000
  N   N8        1.0  0.06180  0.70710  0.04040  1.0000
  O   O25       1.0  0.33530  0.30860  0.47320  1.0000
  O   O26       1.0  0.66470  0.69140  0.97320  1.0000
  O   O27       1.0  0.16470  0.80860  0.97320  1.0000
  O   O28       1.0  0.83530  0.19140  0.47320  1.0000
  O   O29       1.0  0.29860  0.13140  0.58370  1.0000
  O   O30       1.0  0.70140  0.86860  0.08370  1.0000
  O   O31       1.0  0.20140  0.63140  0.08370  1.0000
  O   O32       1.0  0.79860  0.36860  0.58370  1.0000
  N   N9        1.0  0.45970  0.79900  0.13820  1.0000
  N   N10       1.0  0.54030  0.20100  0.63820  1.0000
  N   N11       1.0  0.04030  0.29900  0.63820  1.0000
  N   N12       1.0  0.95970  0.70100  0.13820  1.0000
  C   C1        1.0  0.50560  0.75950  0.99770  1.0000
  C   C2        1.0  0.49440  0.24050  0.49770  1.0000
  C   C3        1.0  0.99440  0.25950  0.49770  1.0000
  C   C4        1.0  0.00560  0.74050  0.99770  1.0000
  C   C5        1.0  0.28140  0.69190  0.84000  1.0000
  C   C6        1.0  0.71860  0.30810  0.34000  1.0000
  C   C7        1.0  0.21860  0.19190  0.34000  1.0000
  C   C8        1.0  0.78140  0.80810  0.84000  1.0000
  C   C9        1.0  0.25120  0.75550  0.22710  1.0000
  C   C10       1.0  0.74880  0.24450  0.72710  1.0000
  C   C11       1.0  0.24880  0.25550  0.72710  1.0000
  C   C12       1.0  0.75120  0.74450  0.22710  1.0000
  C   C13       1.0  0.53070  0.81690  0.13080  1.0000
  C   C14       1.0  0.46930  0.18310  0.63080  1.0000
  C   C15       1.0  0.96930  0.31690  0.63080  1.0000
  C   C16       1.0  0.03070  0.68310  0.13080  1.0000
  N   N13       1.0  0.51290  0.73110  0.90340  1.0000
  N   N14       1.0  0.48710  0.26890  0.40340  1.0000
  N   N15       1.0  0.98710  0.23110  0.40340  1.0000
  N   N16       1.0  0.01290  0.76890  0.90340  1.0000
  C   C17       1.0  0.27560  0.67190  0.72730  1.0000
  C   C18       1.0  0.72440  0.32810  0.22730  1.0000
  C   C19       1.0  0.22440  0.17190  0.22730  1.0000
  C   C20       1.0  0.77560  0.82810  0.72730  1.0000
  C   C21       1.0  0.23850  0.77380  0.34190  1.0000
  C   C22       1.0  0.76150  0.22620  0.84190  1.0000
  C   C23       1.0  0.26150  0.27380  0.84190  1.0000
  C   C24       1.0  0.73850  0.72620  0.34190  1.0000
  N   N17       1.0  0.56520  0.85400  0.19760  1.0000
  N   N18       1.0  0.43480  0.14600  0.69760  1.0000
  N   N19       1.0  0.93480  0.35400  0.69760  1.0000
  N   N20       1.0  0.06520  0.64600  0.19760  1.0000
  H   H1        1.0  0.47570  0.71200  0.87630  1.0000
  H   H2        1.0  0.52430  0.28800  0.37630  1.0000
  H   H3        1.0  0.02430  0.21200  0.37630  1.0000
  H   H4        1.0  0.97570  0.78800  0.87630  1.0000
  H   H5        1.0  0.55480  0.73230  0.87050  1.0000
  H   H6        1.0  0.44520  0.26770  0.37050  1.0000
  H   H7        1.0  0.94520  0.23230  0.37050  1.0000
  H   H8        1.0  0.05480  0.76770  0.87050  1.0000
  C   C25       1.0  0.20550  0.66690  0.68210  1.0000
  C   C26       1.0  0.79450  0.33310  0.18210  1.0000
  C   C27       1.0  0.29450  0.16690  0.18210  1.0000
  C   C28       1.0  0.70550  0.83310  0.68210  1.0000
  C   C29       1.0  0.33860  0.65900  0.66810  1.0000
  C   C30       1.0  0.66140  0.34100  0.16810  1.0000
  C   C31       1.0  0.16140  0.15900  0.16810  1.0000
  C   C32       1.0  0.83860  0.84100  0.66810  1.0000
  C   C33       1.0  0.29860  0.77930  0.40830  1.0000
  C   C34       1.0  0.70140  0.22070  0.90830  1.0000
  C   C35       1.0  0.20140  0.27930  0.90830  1.0000
  C   C36       1.0  0.79860  0.72070  0.40830  1.0000
  C   C37       1.0  0.16710  0.78480  0.37900  1.0000
  C   C38       1.0  0.83290  0.21520  0.87900  1.0000
  C   C39       1.0  0.33290  0.28480  0.87900  1.0000
  C   C40       1.0  0.66710  0.71520  0.37900  1.0000
  H   H9        1.0  0.54160  0.86860  0.25110  1.0000
  H   H10       1.0  0.45840  0.13140  0.75110  1.0000
  H   H11       1.0  0.95840  0.36860  0.75110  1.0000
  H   H12       1.0  0.04160  0.63140  0.25110  1.0000
  H   H13       1.0  0.61110  0.86340  0.18760  1.0000
  H   H14       1.0  0.38890  0.13660  0.68760  1.0000
  H   H15       1.0  0.88890  0.36340  0.68760  1.0000
  H   H16       1.0  0.11110  0.63660  0.18760  1.0000
  H   H17       1.0  0.16350  0.67690  0.72120  1.0000
  H   H18       1.0  0.83650  0.32310  0.22120  1.0000
  H   H19       1.0  0.33650  0.17690  0.22120  1.0000
  H   H20       1.0  0.66350  0.82310  0.72120  1.0000
  C   C41       1.0  0.19810  0.64710  0.57950  1.0000
  C   C42       1.0  0.80190  0.35290  0.07950  1.0000
  C   C43       1.0  0.30190  0.14710  0.07950  1.0000
  C   C44       1.0  0.69810  0.85290  0.57950  1.0000
  C   C45       1.0  0.33260  0.63960  0.56630  1.0000
  C   C46       1.0  0.66740  0.36040  0.06630  1.0000
  C   C47       1.0  0.16740  0.13960  0.06630  1.0000
  C   C48       1.0  0.83260  0.86040  0.56630  1.0000
  H   H21       1.0  0.38550  0.66350  0.69830  1.0000
  H   H22       1.0  0.61450  0.33650  0.19830  1.0000
  H   H23       1.0  0.11450  0.16350  0.19830  1.0000
  H   H24       1.0  0.88550  0.83650  0.69830  1.0000
  H   H25       1.0  0.34630  0.77120  0.38330  1.0000
  H   H26       1.0  0.65370  0.22880  0.88330  1.0000
  H   H27       1.0  0.15370  0.27120  0.88330  1.0000
  H   H28       1.0  0.84630  0.72880  0.38330  1.0000
  C   C49       1.0  0.28840  0.79700  0.51310  1.0000
  C   C50       1.0  0.71160  0.20300  0.01310  1.0000
  C   C51       1.0  0.21160  0.29700  0.01310  1.0000
  C   C52       1.0  0.78840  0.70300  0.51310  1.0000
  C   C53       1.0  0.15660  0.80290  0.48390  1.0000
  C   C54       1.0  0.84340  0.19710  0.98390  1.0000
  C   C55       1.0  0.34340  0.30290  0.98390  1.0000
  C   C56       1.0  0.65660  0.69710  0.48390  1.0000
  H   H29       1.0  0.12630  0.78020  0.33440  1.0000
  H   H30       1.0  0.87370  0.21980  0.83440  1.0000
  H   H31       1.0  0.37370  0.28020  0.83440  1.0000
  H   H32       1.0  0.62630  0.71980  0.33440  1.0000
  H   H33       1.0  0.15120  0.64260  0.54930  1.0000
  H   H34       1.0  0.84880  0.35740  0.04930  1.0000
  H   H35       1.0  0.34880  0.14260  0.04930  1.0000
  H   H36       1.0  0.65120  0.85740  0.54930  1.0000
  C   C57       1.0  0.26110  0.63410  0.52260  1.0000
  C   C58       1.0  0.73890  0.36590  0.02260  1.0000
  C   C59       1.0  0.23890  0.13410  0.02260  1.0000
  C   C60       1.0  0.76110  0.86590  0.52260  1.0000
  H   H37       1.0  0.37470  0.63020  0.52680  1.0000
  H   H38       1.0  0.62530  0.36980  0.02680  1.0000
  H   H39       1.0  0.12530  0.13020  0.02680  1.0000
  H   H40       1.0  0.87470  0.86980  0.52680  1.0000
  H   H41       1.0  0.32890  0.80010  0.55850  1.0000
  H   H42       1.0  0.67110  0.19990  0.05850  1.0000
  H   H43       1.0  0.17110  0.30010  0.05850  1.0000
  H   H44       1.0  0.82890  0.69990  0.55850  1.0000
  C   C61       1.0  0.21810  0.80990  0.54810  1.0000
  C   C62       1.0  0.78190  0.19010  0.04810  1.0000
  C   C63       1.0  0.28190  0.30990  0.04810  1.0000
  C   C64       1.0  0.71810  0.69010  0.54810  1.0000
  H   H45       1.0  0.10890  0.81000  0.50990  1.0000
  H   H46       1.0  0.89110  0.19000  0.00990  1.0000
  H   H47       1.0  0.39110  0.31000  0.00990  1.0000
  H   H48       1.0  0.60890  0.69000  0.50990  1.0000
  S   S1        1.0  0.25130  0.60461  0.39150  1.0000
  S   S2        1.0  0.74870  0.39539  0.89150  1.0000
  S   S3        1.0  0.24870  0.10461  0.89150  1.0000
  S   S4        1.0  0.75130  0.89539  0.39150  1.0000
  S   S5        1.0  0.20597  0.83886  0.67811  1.0000
  S   S6        1.0  0.79403  0.16114  0.17811  1.0000
  S   S7        1.0  0.29403  0.33886  0.17811  1.0000
  S   S8        1.0  0.70597  0.66114  0.67811  1.0000
  O   O33       1.0  0.17780  0.61920  0.35440  1.0000
  O   O34       1.0  0.82220  0.38080  0.85440  1.0000
  O   O35       1.0  0.32220  0.11920  0.85440  1.0000
  O   O36       1.0  0.67780  0.88080  0.35440  1.0000
  O   O37       1.0  0.31440  0.62380  0.32980  1.0000
  O   O38       1.0  0.68560  0.37620  0.82980  1.0000
  O   O39       1.0  0.18560  0.12380  0.82980  1.0000
  O   O40       1.0  0.81440  0.87620  0.32980  1.0000
  C   C65       1.0  0.25730  0.52450  0.41200  1.0000
  C   C66       1.0  0.74270  0.47550  0.91200  1.0000
  C   C67       1.0  0.24270  0.02450  0.91200  1.0000
  C   C68       1.0  0.75730  0.97550  0.41200  1.0000
  O   O41       1.0  0.13060  0.82550  0.71090  1.0000
  O   O42       1.0  0.86940  0.17450  0.21090  1.0000
  O   O43       1.0  0.36940  0.32550  0.21090  1.0000
  O   O44       1.0  0.63060  0.67450  0.71090  1.0000
  O   O45       1.0  0.26790  0.81900  0.74170  1.0000
  O   O46       1.0  0.73210  0.18100  0.24170  1.0000
  O   O47       1.0  0.23210  0.31900  0.24170  1.0000
  O   O48       1.0  0.76790  0.68100  0.74170  1.0000
  C   C69       1.0  0.21440  0.91910  0.65830  1.0000
  C   C70       1.0  0.78560  0.08090  0.15830  1.0000
  C   C71       1.0  0.28560  0.41910  0.15830  1.0000
  C   C72       1.0  0.71440  0.58090  0.65830  1.0000
  C   C73       1.0  0.19330  0.49310  0.43770  1.0000
  C   C74       1.0  0.80670  0.50690  0.93770  1.0000
  C   C75       1.0  0.30670  0.99310  0.93770  1.0000
  C   C76       1.0  0.69330  0.00690  0.43770  1.0000
  C   C77       1.0  0.32590  0.49600  0.40430  1.0000
  C   C78       1.0  0.67410  0.50400  0.90430  1.0000
  C   C79       1.0  0.17410  0.99600  0.90430  1.0000
  C   C80       1.0  0.82590  0.00400  0.40430  1.0000
  C   C81       1.0  0.28330  0.94700  0.66790  1.0000
  C   C82       1.0  0.71670  0.05300  0.16790  1.0000
  C   C83       1.0  0.21670  0.44700  0.16790  1.0000
  C   C84       1.0  0.78330  0.55300  0.66790  1.0000
  C   C85       1.0  0.15220  0.95260  0.62900  1.0000
  C   C86       1.0  0.84780  0.04740  0.12900  1.0000
  C   C87       1.0  0.34780  0.45260  0.12900  1.0000
  C   C88       1.0  0.65220  0.54740  0.62900  1.0000
  H   H49       1.0  0.14760  0.51300  0.44230  1.0000
  H   H50       1.0  0.85240  0.48700  0.94230  1.0000
  H   H51       1.0  0.35240  0.01300  0.94230  1.0000
  H   H52       1.0  0.64760  0.98700  0.44230  1.0000
  C   C89       1.0  0.19920  0.43020  0.45640  1.0000
  C   C90       1.0  0.80080  0.56980  0.95640  1.0000
  C   C91       1.0  0.30080  0.93020  0.95640  1.0000
  C   C92       1.0  0.69920  0.06980  0.45640  1.0000
  C   C93       1.0  0.33070  0.43390  0.42460  1.0000
  C   C94       1.0  0.66930  0.56610  0.92460  1.0000
  C   C95       1.0  0.16930  0.93390  0.92460  1.0000
  C   C96       1.0  0.83070  0.06610  0.42460  1.0000
  H   H53       1.0  0.36810  0.51820  0.38590  1.0000
  H   H54       1.0  0.63190  0.48180  0.88590  1.0000
  H   H55       1.0  0.13190  0.01820  0.88590  1.0000
  H   H56       1.0  0.86810  0.98180  0.38590  1.0000
  H   H57       1.0  0.32490  0.92440  0.68770  1.0000
  H   H58       1.0  0.67510  0.07560  0.18770  1.0000
  H   H59       1.0  0.17510  0.42440  0.18770  1.0000
  H   H60       1.0  0.82490  0.57560  0.68770  1.0000
  C   C97       1.0  0.28930  0.00940  0.64740  1.0000
  C   C98       1.0  0.71070  0.99060  0.14740  1.0000
  C   C99       1.0  0.21070  0.50940  0.14740  1.0000
  C   C100      1.0  0.78930  0.49060  0.64740  1.0000
  C   C101      1.0  0.15880  0.01360  0.60900  1.0000
  C   C102      1.0  0.84120  0.98640  0.10900  1.0000
  C   C103      1.0  0.34120  0.51360  0.10900  1.0000
  C   C104      1.0  0.65880  0.48640  0.60900  1.0000
  H   H61       1.0  0.10610  0.93350  0.62310  1.0000
  H   H62       1.0  0.89390  0.06650  0.12310  1.0000
  H   H63       1.0  0.39390  0.43350  0.12310  1.0000
  H   H64       1.0  0.60610  0.56650  0.62310  1.0000
  H   H65       1.0  0.15680  0.40780  0.47310  1.0000
  H   H66       1.0  0.84320  0.59220  0.97310  1.0000
  H   H67       1.0  0.34320  0.90780  0.97310  1.0000
  H   H68       1.0  0.65680  0.09220  0.47310  1.0000
  C   C105      1.0  0.26720  0.40100  0.45070  1.0000
  C   C106      1.0  0.73280  0.59900  0.95070  1.0000
  C   C107      1.0  0.23280  0.90100  0.95070  1.0000
  C   C108      1.0  0.76720  0.09900  0.45070  1.0000
  H   H69       1.0  0.37650  0.41420  0.42080  1.0000
  H   H70       1.0  0.62350  0.58580  0.92080  1.0000
  H   H71       1.0  0.12350  0.91420  0.92080  1.0000
  H   H72       1.0  0.87650  0.08580  0.42080  1.0000
  H   H73       1.0  0.33520  0.02870  0.65440  1.0000
  H   H74       1.0  0.66480  0.97130  0.15440  1.0000
  H   H75       1.0  0.16480  0.52870  0.15440  1.0000
  H   H76       1.0  0.83520  0.47130  0.65440  1.0000
  C   C109      1.0  0.22700  0.04320  0.61630  1.0000
  C   C110      1.0  0.77300  0.95680  0.11630  1.0000
  C   C111      1.0  0.27300  0.54320  0.11630  1.0000
  C   C112      1.0  0.72700  0.45680  0.61630  1.0000
  H   H77       1.0  0.11680  0.03590  0.59000  1.0000
  H   H78       1.0  0.88320  0.96410  0.09000  1.0000
  H   H79       1.0  0.38320  0.53590  0.09000  1.0000
  H   H80       1.0  0.61680  0.46410  0.59000  1.0000
  C   C113      1.0  0.27190  0.33500  0.47580  1.0000
  C   C114      1.0  0.72810  0.66500  0.97580  1.0000
  C   C115      1.0  0.22810  0.83500  0.97580  1.0000
  C   C116      1.0  0.77190  0.16500  0.47580  1.0000
  C   C117      1.0  0.23410  0.10950  0.58830  1.0000
  C   C118      1.0  0.76590  0.89050  0.08830  1.0000
  C   C119      1.0  0.26590  0.60950  0.08830  1.0000
  C   C120      1.0  0.73410  0.39050  0.58830  1.0000
