data_image0
_chemical_formula_structural       U4O32C24H24C24H36
_chemical_formula_sum              "U4 O32 C48 H60"
_cell_length_a       14.2093
_cell_length_b       14.2093
_cell_length_c       14.2093
_cell_angle_alpha    90
_cell_angle_beta     90
_cell_angle_gamma    90

_space_group_name_H-M_alt    "P 1"
_space_group_IT_number       1

loop_
  _space_group_symop_operation_xyz
  'x, y, z'

loop_
  _atom_site_type_symbol
  _atom_site_label
  _atom_site_symmetry_multiplicity
  _atom_site_fract_x
  _atom_site_fract_y
  _atom_site_fract_z
  _atom_site_occupancy
  U   U1        1.0  0.57006  0.07006  0.42994  1.0000
  U   U2        1.0  0.92994  0.92994  0.92994  1.0000
  U   U3        1.0  0.42994  0.57006  0.07006  1.0000
  U   U4        1.0  0.07006  0.42994  0.57006  1.0000
  O   O1        1.0  0.49778  0.99778  0.50222  1.0000
  O   O2        1.0  0.00222  0.00222  0.00222  1.0000
  O   O3        1.0  0.50222  0.49778  0.99778  1.0000
  O   O4        1.0  0.99778  0.50222  0.49778  1.0000
  O   O5        1.0  0.64243  0.14243  0.35757  1.0000
  O   O6        1.0  0.85757  0.85757  0.85757  1.0000
  O   O7        1.0  0.35757  0.64243  0.14243  1.0000
  O   O8        1.0  0.14243  0.35757  0.64243  1.0000
  O   O9        1.0  0.44485  0.06153  0.31173  1.0000
  O   O10       1.0  0.05515  0.93847  0.81173  1.0000
  O   O11       1.0  0.55515  0.56153  0.18827  1.0000
  O   O12       1.0  0.94485  0.43847  0.68827  1.0000
  O   O13       1.0  0.31173  0.44485  0.06153  1.0000
  O   O14       1.0  0.81173  0.05515  0.93847  1.0000
  O   O15       1.0  0.18827  0.55515  0.56153  1.0000
  O   O16       1.0  0.68827  0.94485  0.43847  1.0000
  O   O17       1.0  0.06153  0.31173  0.44485  1.0000
  O   O18       1.0  0.93847  0.81173  0.05515  1.0000
  O   O19       1.0  0.56153  0.18827  0.55515  1.0000
  O   O20       1.0  0.43847  0.68827  0.94485  1.0000
  O   O21       1.0  0.43988  0.18328  0.40564  1.0000
  O   O22       1.0  0.06012  0.81672  0.90564  1.0000
  O   O23       1.0  0.56012  0.68328  0.09436  1.0000
  O   O24       1.0  0.93988  0.31672  0.59436  1.0000
  O   O25       1.0  0.40564  0.43988  0.18328  1.0000
  O   O26       1.0  0.90564  0.06012  0.81672  1.0000
  O   O27       1.0  0.09436  0.56012  0.68328  1.0000
  O   O28       1.0  0.59436  0.93988  0.31672  1.0000
  O   O29       1.0  0.18328  0.40564  0.43988  1.0000
  O   O30       1.0  0.81672  0.90564  0.06012  1.0000
  O   O31       1.0  0.68328  0.09436  0.56012  1.0000
  O   O32       1.0  0.31672  0.59436  0.93988  1.0000
  C   C1        1.0  0.31601  0.17243  0.28620  1.0000
  C   C2        1.0  0.18399  0.82757  0.78620  1.0000
  C   C3        1.0  0.68399  0.67243  0.21380  1.0000
  C   C4        1.0  0.81601  0.32757  0.71380  1.0000
  C   C5        1.0  0.28620  0.31601  0.17243  1.0000
  C   C6        1.0  0.78620  0.18399  0.82757  1.0000
  C   C7        1.0  0.21380  0.68399  0.67243  1.0000
  C   C8        1.0  0.71380  0.81601  0.32757  1.0000
  C   C9        1.0  0.17243  0.28620  0.31601  1.0000
  C   C10       1.0  0.82757  0.78620  0.18399  1.0000
  C   C11       1.0  0.67243  0.21380  0.68399  1.0000
  C   C12       1.0  0.32757  0.71380  0.81601  1.0000
  C   C13       1.0  0.24809  0.21800  0.35710  1.0000
  C   C14       1.0  0.25191  0.78200  0.85710  1.0000
  C   C15       1.0  0.75191  0.71800  0.14290  1.0000
  C   C16       1.0  0.74809  0.28200  0.64290  1.0000
  C   C17       1.0  0.35710  0.24809  0.21800  1.0000
  C   C18       1.0  0.85710  0.25191  0.78200  1.0000
  C   C19       1.0  0.14290  0.75191  0.71800  1.0000
  C   C20       1.0  0.64290  0.74809  0.28200  1.0000
  C   C21       1.0  0.21800  0.35710  0.24809  1.0000
  C   C22       1.0  0.78200  0.85710  0.25191  1.0000
  C   C23       1.0  0.71800  0.14290  0.75191  1.0000
  C   C24       1.0  0.28200  0.64290  0.74809  1.0000
  H   H1        1.0  0.28593  0.25321  0.40382  1.0000
  H   H2        1.0  0.21407  0.74679  0.90382  1.0000
  H   H3        1.0  0.71407  0.75321  0.09618  1.0000
  H   H4        1.0  0.78593  0.24679  0.59618  1.0000
  H   H5        1.0  0.40382  0.28593  0.25321  1.0000
  H   H6        1.0  0.90382  0.21407  0.74679  1.0000
  H   H7        1.0  0.09618  0.71407  0.75321  1.0000
  H   H8        1.0  0.59618  0.78593  0.24679  1.0000
  H   H9        1.0  0.25321  0.40382  0.28593  1.0000
  H   H10       1.0  0.74679  0.90382  0.21407  1.0000
  H   H11       1.0  0.75321  0.09618  0.71407  1.0000
  H   H12       1.0  0.24679  0.59618  0.78593  1.0000
  H   H13       1.0  0.21508  0.16707  0.39131  1.0000
  H   H14       1.0  0.28492  0.83293  0.89131  1.0000
  H   H15       1.0  0.78492  0.66707  0.10869  1.0000
  H   H16       1.0  0.71508  0.33293  0.60869  1.0000
  H   H17       1.0  0.39131  0.21508  0.16707  1.0000
  H   H18       1.0  0.89131  0.28492  0.83293  1.0000
  H   H19       1.0  0.10869  0.78492  0.66707  1.0000
  H   H20       1.0  0.60869  0.71508  0.33293  1.0000
  H   H21       1.0  0.16707  0.39131  0.21508  1.0000
  H   H22       1.0  0.83293  0.89131  0.28492  1.0000
  H   H23       1.0  0.66707  0.10869  0.78492  1.0000
  H   H24       1.0  0.33293  0.60869  0.71508  1.0000
  C   C25       1.0  0.40431  0.13657  0.33831  1.0000
  C   C26       1.0  0.09569  0.86343  0.83831  1.0000
  C   C27       1.0  0.59569  0.63657  0.16169  1.0000
  C   C28       1.0  0.90431  0.36343  0.66169  1.0000
  C   C29       1.0  0.33831  0.40431  0.13657  1.0000
  C   C30       1.0  0.83831  0.09569  0.86343  1.0000
  C   C31       1.0  0.16169  0.59569  0.63657  1.0000
  C   C32       1.0  0.66169  0.90431  0.36343  1.0000
  C   C33       1.0  0.13657  0.33831  0.40431  1.0000
  C   C34       1.0  0.86343  0.83831  0.09569  1.0000
  C   C35       1.0  0.63657  0.16169  0.59569  1.0000
  C   C36       1.0  0.36343  0.66169  0.90431  1.0000
  C   C37       1.0  0.27153  0.08733  0.23700  1.0000
  C   C38       1.0  0.22847  0.91267  0.73700  1.0000
  C   C39       1.0  0.72847  0.58733  0.26300  1.0000
  C   C40       1.0  0.77153  0.41267  0.76300  1.0000
  C   C41       1.0  0.23700  0.27153  0.08733  1.0000
  C   C42       1.0  0.73700  0.22847  0.91267  1.0000
  C   C43       1.0  0.26300  0.72847  0.58733  1.0000
  C   C44       1.0  0.76300  0.77153  0.41267  1.0000
  C   C45       1.0  0.08733  0.23700  0.27153  1.0000
  C   C46       1.0  0.91267  0.73700  0.22847  1.0000
  C   C47       1.0  0.58733  0.26300  0.72847  1.0000
  C   C48       1.0  0.41267  0.76300  0.77153  1.0000
  H   H25       1.0  0.25696  0.03877  0.28376  1.0000
  H   H26       1.0  0.24304  0.96123  0.78376  1.0000
  H   H27       1.0  0.74304  0.53877  0.21624  1.0000
  H   H28       1.0  0.75696  0.46123  0.71624  1.0000
  H   H29       1.0  0.28376  0.25696  0.03877  1.0000
  H   H30       1.0  0.78376  0.24304  0.96123  1.0000
  H   H31       1.0  0.21624  0.74304  0.53877  1.0000
  H   H32       1.0  0.71624  0.75696  0.46123  1.0000
  H   H33       1.0  0.03877  0.28376  0.25696  1.0000
  H   H34       1.0  0.96123  0.78376  0.24304  1.0000
  H   H35       1.0  0.53877  0.21624  0.74304  1.0000
  H   H36       1.0  0.46123  0.71624  0.75696  1.0000
  H   H37       1.0  0.31572  0.06197  0.19052  1.0000
  H   H38       1.0  0.18428  0.93803  0.69052  1.0000
  H   H39       1.0  0.68428  0.56197  0.30948  1.0000
  H   H40       1.0  0.81572  0.43803  0.80948  1.0000
  H   H41       1.0  0.19052  0.31572  0.06197  1.0000
  H   H42       1.0  0.69052  0.18428  0.93803  1.0000
  H   H43       1.0  0.30948  0.68428  0.56197  1.0000
  H   H44       1.0  0.80948  0.81572  0.43803  1.0000
  H   H45       1.0  0.06197  0.19052  0.31572  1.0000
  H   H46       1.0  0.93803  0.69052  0.18428  1.0000
  H   H47       1.0  0.56197  0.30948  0.68428  1.0000
  H   H48       1.0  0.43803  0.80948  0.81572  1.0000
  H   H49       1.0  0.21349  0.10685  0.20528  1.0000
  H   H50       1.0  0.28651  0.89315  0.70528  1.0000
  H   H51       1.0  0.78651  0.60685  0.29472  1.0000
  H   H52       1.0  0.71349  0.39315  0.79472  1.0000
  H   H53       1.0  0.20528  0.21349  0.10685  1.0000
  H   H54       1.0  0.70528  0.28651  0.89315  1.0000
  H   H55       1.0  0.29472  0.78651  0.60685  1.0000
  H   H56       1.0  0.79472  0.71349  0.39315  1.0000
  H   H57       1.0  0.10685  0.20528  0.21349  1.0000
  H   H58       1.0  0.89315  0.70528  0.28651  1.0000
  H   H59       1.0  0.60685  0.29472  0.78651  1.0000
  H   H60       1.0  0.39315  0.79472  0.71349  1.0000
