data_image0
_chemical_formula_structural       Cd40C16H16C16H16C64H16C16H16C32H16C16H16C48H16C16H16C96N16H32N16H32N16H32N16H32N96O128
_chemical_formula_sum              "Cd40 C320 H256 N160 O128"
_cell_length_a       17.4956
_cell_length_b       29.4158
_cell_length_c       35.2708
_cell_angle_alpha    90
_cell_angle_beta     90
_cell_angle_gamma    90

_space_group_name_H-M_alt    "P 1"
_space_group_IT_number       1

loop_
  _space_group_symop_operation_xyz
  'x, y, z'

loop_
  _atom_site_type_symbol
  _atom_site_label
  _atom_site_symmetry_multiplicity
  _atom_site_fract_x
  _atom_site_fract_y
  _atom_site_fract_z
  _atom_site_occupancy
  Cd  Cd1       1.0  0.70141  0.10061  0.59913  1.0000
  Cd  Cd2       1.0  0.79859  0.89939  0.09913  1.0000
  Cd  Cd3       1.0  0.29859  0.60061  0.90087  1.0000
  Cd  Cd4       1.0  0.20141  0.39939  0.40087  1.0000
  Cd  Cd5       1.0  0.20141  0.60061  0.09913  1.0000
  Cd  Cd6       1.0  0.29859  0.39939  0.59913  1.0000
  Cd  Cd7       1.0  0.79859  0.10061  0.40087  1.0000
  Cd  Cd8       1.0  0.70141  0.89939  0.90087  1.0000
  Cd  Cd9       1.0  0.29859  0.89939  0.40087  1.0000
  Cd  Cd10      1.0  0.20141  0.10061  0.90087  1.0000
  Cd  Cd11      1.0  0.70141  0.39939  0.09913  1.0000
  Cd  Cd12      1.0  0.79859  0.60061  0.59913  1.0000
  Cd  Cd13      1.0  0.79859  0.39939  0.90087  1.0000
  Cd  Cd14      1.0  0.70141  0.60061  0.40087  1.0000
  Cd  Cd15      1.0  0.20141  0.89939  0.59913  1.0000
  Cd  Cd16      1.0  0.29859  0.10061  0.09913  1.0000
  Cd  Cd17      1.0  0.75000  0.06675  0.50000  1.0000
  Cd  Cd18      1.0  0.75000  0.93325  0.00000  1.0000
  Cd  Cd19      1.0  0.25000  0.56675  0.00000  1.0000
  Cd  Cd20      1.0  0.25000  0.43325  0.50000  1.0000
  Cd  Cd21      1.0  0.25000  0.93325  0.50000  1.0000
  Cd  Cd22      1.0  0.25000  0.06675  0.00000  1.0000
  Cd  Cd23      1.0  0.75000  0.43325  0.00000  1.0000
  Cd  Cd24      1.0  0.75000  0.56675  0.50000  1.0000
  Cd  Cd25      1.0  0.07223  0.10432  0.58851  1.0000
  Cd  Cd26      1.0  0.42777  0.89568  0.08851  1.0000
  Cd  Cd27      1.0  0.92777  0.60432  0.91149  1.0000
  Cd  Cd28      1.0  0.57223  0.39568  0.41149  1.0000
  Cd  Cd29      1.0  0.57223  0.60432  0.08851  1.0000
  Cd  Cd30      1.0  0.92777  0.39568  0.58851  1.0000
  Cd  Cd31      1.0  0.42777  0.10432  0.41149  1.0000
  Cd  Cd32      1.0  0.07223  0.89568  0.91149  1.0000
  Cd  Cd33      1.0  0.92777  0.89568  0.41149  1.0000
  Cd  Cd34      1.0  0.57223  0.10432  0.91149  1.0000
  Cd  Cd35      1.0  0.07223  0.39568  0.08851  1.0000
  Cd  Cd36      1.0  0.42777  0.60432  0.58851  1.0000
  Cd  Cd37      1.0  0.42777  0.39568  0.91149  1.0000
  Cd  Cd38      1.0  0.07223  0.60432  0.41149  1.0000
  Cd  Cd39      1.0  0.57223  0.89568  0.58851  1.0000
  Cd  Cd40      1.0  0.92777  0.10432  0.08851  1.0000
  C   C1        1.0  0.14530  0.21440  0.48770  1.0000
  C   C2        1.0  0.35470  0.78560  0.98770  1.0000
  C   C3        1.0  0.85470  0.71440  0.01230  1.0000
  C   C4        1.0  0.64530  0.28560  0.51230  1.0000
  C   C5        1.0  0.64530  0.71440  0.98770  1.0000
  C   C6        1.0  0.85470  0.28560  0.48770  1.0000
  C   C7        1.0  0.35470  0.21440  0.51230  1.0000
  C   C8        1.0  0.14530  0.78560  0.01230  1.0000
  C   C9        1.0  0.85470  0.78560  0.51230  1.0000
  C   C10       1.0  0.64530  0.21440  0.01230  1.0000
  C   C11       1.0  0.14530  0.28560  0.98770  1.0000
  C   C12       1.0  0.35470  0.71440  0.48770  1.0000
  C   C13       1.0  0.35470  0.28560  0.01230  1.0000
  C   C14       1.0  0.14530  0.71440  0.51230  1.0000
  C   C15       1.0  0.64530  0.78560  0.48770  1.0000
  C   C16       1.0  0.85470  0.21440  0.98770  1.0000
  H   H1        1.0  0.15690  0.18510  0.47950  1.0000
  H   H2        1.0  0.34310  0.81490  0.97950  1.0000
  H   H3        1.0  0.84310  0.68510  0.02050  1.0000
  H   H4        1.0  0.65690  0.31490  0.52050  1.0000
  H   H5        1.0  0.65690  0.68510  0.97950  1.0000
  H   H6        1.0  0.84310  0.31490  0.47950  1.0000
  H   H7        1.0  0.34310  0.18510  0.52050  1.0000
  H   H8        1.0  0.15690  0.81490  0.02050  1.0000
  H   H9        1.0  0.84310  0.81490  0.52050  1.0000
  H   H10       1.0  0.65690  0.18510  0.02050  1.0000
  H   H11       1.0  0.15690  0.31490  0.97950  1.0000
  H   H12       1.0  0.34310  0.68510  0.47950  1.0000
  H   H13       1.0  0.34310  0.31490  0.02050  1.0000
  H   H14       1.0  0.15690  0.68510  0.52050  1.0000
  H   H15       1.0  0.65690  0.81490  0.47950  1.0000
  H   H16       1.0  0.84310  0.18510  0.97950  1.0000
  C   C17       1.0  0.15840  0.25040  0.46340  1.0000
  C   C18       1.0  0.34160  0.74960  0.96340  1.0000
  C   C19       1.0  0.84160  0.75040  0.03660  1.0000
  C   C20       1.0  0.65840  0.24960  0.53660  1.0000
  C   C21       1.0  0.65840  0.75040  0.96340  1.0000
  C   C22       1.0  0.84160  0.24960  0.46340  1.0000
  C   C23       1.0  0.34160  0.25040  0.53660  1.0000
  C   C24       1.0  0.15840  0.74960  0.03660  1.0000
  C   C25       1.0  0.84160  0.74960  0.53660  1.0000
  C   C26       1.0  0.65840  0.25040  0.03660  1.0000
  C   C27       1.0  0.15840  0.24960  0.96340  1.0000
  C   C28       1.0  0.34160  0.75040  0.46340  1.0000
  C   C29       1.0  0.34160  0.24960  0.03660  1.0000
  C   C30       1.0  0.15840  0.75040  0.53660  1.0000
  C   C31       1.0  0.65840  0.74960  0.46340  1.0000
  C   C32       1.0  0.84160  0.25040  0.96340  1.0000
  H   H17       1.0  0.17240  0.24550  0.43830  1.0000
  H   H18       1.0  0.32760  0.75450  0.93830  1.0000
  H   H19       1.0  0.82760  0.74550  0.06170  1.0000
  H   H20       1.0  0.67240  0.25450  0.56170  1.0000
  H   H21       1.0  0.67240  0.74550  0.93830  1.0000
  H   H22       1.0  0.82760  0.25450  0.43830  1.0000
  H   H23       1.0  0.32760  0.24550  0.56170  1.0000
  H   H24       1.0  0.17240  0.75450  0.06170  1.0000
  H   H25       1.0  0.82760  0.75450  0.56170  1.0000
  H   H26       1.0  0.67240  0.24550  0.06170  1.0000
  H   H27       1.0  0.17240  0.25450  0.93830  1.0000
  H   H28       1.0  0.32760  0.74550  0.43830  1.0000
  H   H29       1.0  0.32760  0.25450  0.06170  1.0000
  H   H30       1.0  0.17240  0.74550  0.56170  1.0000
  H   H31       1.0  0.67240  0.75450  0.43830  1.0000
  H   H32       1.0  0.82760  0.24550  0.93830  1.0000
  C   C33       1.0  0.14980  0.29410  0.47780  1.0000
  C   C34       1.0  0.35020  0.70590  0.97780  1.0000
  C   C35       1.0  0.85020  0.79410  0.02220  1.0000
  C   C36       1.0  0.64980  0.20590  0.52220  1.0000
  C   C37       1.0  0.64980  0.79410  0.97780  1.0000
  C   C38       1.0  0.85020  0.20590  0.47780  1.0000
  C   C39       1.0  0.35020  0.29410  0.52220  1.0000
  C   C40       1.0  0.14980  0.70590  0.02220  1.0000
  C   C41       1.0  0.85020  0.70590  0.52220  1.0000
  C   C42       1.0  0.64980  0.29410  0.02220  1.0000
  C   C43       1.0  0.14980  0.20590  0.97780  1.0000
  C   C44       1.0  0.35020  0.79410  0.47780  1.0000
  C   C45       1.0  0.35020  0.20590  0.02220  1.0000
  C   C46       1.0  0.14980  0.79410  0.52220  1.0000
  C   C47       1.0  0.64980  0.70590  0.47780  1.0000
  C   C48       1.0  0.85020  0.29410  0.97780  1.0000
  C   C49       1.0  0.16880  0.33470  0.45270  1.0000
  C   C50       1.0  0.33120  0.66530  0.95270  1.0000
  C   C51       1.0  0.83120  0.83470  0.04730  1.0000
  C   C52       1.0  0.66880  0.16530  0.54730  1.0000
  C   C53       1.0  0.66880  0.83470  0.95270  1.0000
  C   C54       1.0  0.83120  0.16530  0.45270  1.0000
  C   C55       1.0  0.33120  0.33470  0.54730  1.0000
  C   C56       1.0  0.16880  0.66530  0.04730  1.0000
  C   C57       1.0  0.83120  0.66530  0.54730  1.0000
  C   C58       1.0  0.66880  0.33470  0.04730  1.0000
  C   C59       1.0  0.16880  0.16530  0.95270  1.0000
  C   C60       1.0  0.33120  0.83470  0.45270  1.0000
  C   C61       1.0  0.33120  0.16530  0.04730  1.0000
  C   C62       1.0  0.16880  0.83470  0.54730  1.0000
  C   C63       1.0  0.66880  0.66530  0.45270  1.0000
  C   C64       1.0  0.83120  0.33470  0.95270  1.0000
  C   C65       1.0  0.09840  0.17860  0.54600  1.0000
  C   C66       1.0  0.40160  0.82140  0.04600  1.0000
  C   C67       1.0  0.90160  0.67860  0.95400  1.0000
  C   C68       1.0  0.59840  0.32140  0.45400  1.0000
  C   C69       1.0  0.59840  0.67860  0.04600  1.0000
  C   C70       1.0  0.90160  0.32140  0.54600  1.0000
  C   C71       1.0  0.40160  0.17860  0.45400  1.0000
  C   C72       1.0  0.09840  0.82140  0.95400  1.0000
  C   C73       1.0  0.90160  0.82140  0.45400  1.0000
  C   C74       1.0  0.59840  0.17860  0.95400  1.0000
  C   C75       1.0  0.09840  0.32140  0.04600  1.0000
  C   C76       1.0  0.40160  0.67860  0.54600  1.0000
  C   C77       1.0  0.40160  0.32140  0.95400  1.0000
  C   C78       1.0  0.09840  0.67860  0.45400  1.0000
  C   C79       1.0  0.59840  0.82140  0.54600  1.0000
  C   C80       1.0  0.90160  0.17860  0.04600  1.0000
  C   C81       1.0  0.12610  0.29910  0.51370  1.0000
  C   C82       1.0  0.37390  0.70090  0.01370  1.0000
  C   C83       1.0  0.87390  0.79910  0.98630  1.0000
  C   C84       1.0  0.62610  0.20090  0.48630  1.0000
  C   C85       1.0  0.62610  0.79910  0.01370  1.0000
  C   C86       1.0  0.87390  0.20090  0.51370  1.0000
  C   C87       1.0  0.37390  0.29910  0.48630  1.0000
  C   C88       1.0  0.12610  0.70090  0.98630  1.0000
  C   C89       1.0  0.87390  0.70090  0.48630  1.0000
  C   C90       1.0  0.62610  0.29910  0.98630  1.0000
  C   C91       1.0  0.12610  0.20090  0.01370  1.0000
  C   C92       1.0  0.37390  0.79910  0.51370  1.0000
  C   C93       1.0  0.37390  0.20090  0.98630  1.0000
  C   C94       1.0  0.12610  0.79910  0.48630  1.0000
  C   C95       1.0  0.62610  0.70090  0.51370  1.0000
  C   C96       1.0  0.87390  0.29910  0.01370  1.0000
  H   H33       1.0  0.12300  0.32820  0.52380  1.0000
  H   H34       1.0  0.37700  0.67180  0.02380  1.0000
  H   H35       1.0  0.87700  0.82820  0.97620  1.0000
  H   H36       1.0  0.62300  0.17180  0.47620  1.0000
  H   H37       1.0  0.62300  0.82820  0.02380  1.0000
  H   H38       1.0  0.87700  0.17180  0.52380  1.0000
  H   H39       1.0  0.37700  0.32820  0.47620  1.0000
  H   H40       1.0  0.12300  0.67180  0.97620  1.0000
  H   H41       1.0  0.87700  0.67180  0.47620  1.0000
  H   H42       1.0  0.62300  0.32820  0.97620  1.0000
  H   H43       1.0  0.12300  0.17180  0.02380  1.0000
  H   H44       1.0  0.37700  0.82820  0.52380  1.0000
  H   H45       1.0  0.37700  0.17180  0.97620  1.0000
  H   H46       1.0  0.12300  0.82820  0.47620  1.0000
  H   H47       1.0  0.62300  0.67180  0.52380  1.0000
  H   H48       1.0  0.87700  0.32820  0.02380  1.0000
  C   C97       1.0  0.58190  0.08800  0.77060  1.0000
  C   C98       1.0  0.91810  0.91200  0.27060  1.0000
  C   C99       1.0  0.41810  0.58800  0.72940  1.0000
  C   C100      1.0  0.08190  0.41200  0.22940  1.0000
  C   C101      1.0  0.08190  0.58800  0.27060  1.0000
  C   C102      1.0  0.41810  0.41200  0.77060  1.0000
  C   C103      1.0  0.91810  0.08800  0.22940  1.0000
  C   C104      1.0  0.58190  0.91200  0.72940  1.0000
  C   C105      1.0  0.41810  0.91200  0.22940  1.0000
  C   C106      1.0  0.08190  0.08800  0.72940  1.0000
  C   C107      1.0  0.58190  0.41200  0.27060  1.0000
  C   C108      1.0  0.91810  0.58800  0.77060  1.0000
  C   C109      1.0  0.91810  0.41200  0.72940  1.0000
  C   C110      1.0  0.58190  0.58800  0.22940  1.0000
  C   C111      1.0  0.08190  0.91200  0.77060  1.0000
  C   C112      1.0  0.41810  0.08800  0.27060  1.0000
  H   H49       1.0  0.53930  0.07270  0.77980  1.0000
  H   H50       1.0  0.96070  0.92730  0.27980  1.0000
  H   H51       1.0  0.46070  0.57270  0.72020  1.0000
  H   H52       1.0  0.03930  0.42730  0.22020  1.0000
  H   H53       1.0  0.03930  0.57270  0.27980  1.0000
  H   H54       1.0  0.46070  0.42730  0.77980  1.0000
  H   H55       1.0  0.96070  0.07270  0.22020  1.0000
  H   H56       1.0  0.53930  0.92730  0.72020  1.0000
  H   H57       1.0  0.46070  0.92730  0.22020  1.0000
  H   H58       1.0  0.03930  0.07270  0.72020  1.0000
  H   H59       1.0  0.53930  0.42730  0.27980  1.0000
  H   H60       1.0  0.96070  0.57270  0.77980  1.0000
  H   H61       1.0  0.96070  0.42730  0.72020  1.0000
  H   H62       1.0  0.53930  0.57270  0.22020  1.0000
  H   H63       1.0  0.03930  0.92730  0.77980  1.0000
  H   H64       1.0  0.46070  0.07270  0.27980  1.0000
  C   C113      1.0  0.11690  0.22000  0.52210  1.0000
  C   C114      1.0  0.38310  0.78000  0.02210  1.0000
  C   C115      1.0  0.88310  0.72000  0.97790  1.0000
  C   C116      1.0  0.61690  0.28000  0.47790  1.0000
  C   C117      1.0  0.61690  0.72000  0.02210  1.0000
  C   C118      1.0  0.88310  0.28000  0.52210  1.0000
  C   C119      1.0  0.38310  0.22000  0.47790  1.0000
  C   C120      1.0  0.11690  0.78000  0.97790  1.0000
  C   C121      1.0  0.88310  0.78000  0.47790  1.0000
  C   C122      1.0  0.61690  0.22000  0.97790  1.0000
  C   C123      1.0  0.11690  0.28000  0.02210  1.0000
  C   C124      1.0  0.38310  0.72000  0.52210  1.0000
  C   C125      1.0  0.38310  0.28000  0.97790  1.0000
  C   C126      1.0  0.11690  0.72000  0.47790  1.0000
  C   C127      1.0  0.61690  0.78000  0.52210  1.0000
  C   C128      1.0  0.88310  0.22000  0.02210  1.0000
  C   C129      1.0  0.10620  0.26310  0.53600  1.0000
  C   C130      1.0  0.39380  0.73690  0.03600  1.0000
  C   C131      1.0  0.89380  0.76310  0.96400  1.0000
  C   C132      1.0  0.60620  0.23690  0.46400  1.0000
  C   C133      1.0  0.60620  0.76310  0.03600  1.0000
  C   C134      1.0  0.89380  0.23690  0.53600  1.0000
  C   C135      1.0  0.39380  0.26310  0.46400  1.0000
  C   C136      1.0  0.10620  0.73690  0.96400  1.0000
  C   C137      1.0  0.89380  0.73690  0.46400  1.0000
  C   C138      1.0  0.60620  0.26310  0.96400  1.0000
  C   C139      1.0  0.10620  0.23690  0.03600  1.0000
  C   C140      1.0  0.39380  0.76310  0.53600  1.0000
  C   C141      1.0  0.39380  0.23690  0.96400  1.0000
  C   C142      1.0  0.10620  0.76310  0.46400  1.0000
  C   C143      1.0  0.60620  0.73690  0.53600  1.0000
  C   C144      1.0  0.89380  0.26310  0.03600  1.0000
  H   H65       1.0  0.08600  0.26760  0.56010  1.0000
  H   H66       1.0  0.41400  0.73240  0.06010  1.0000
  H   H67       1.0  0.91400  0.76760  0.93990  1.0000
  H   H68       1.0  0.58600  0.23240  0.43990  1.0000
  H   H69       1.0  0.58600  0.76760  0.06010  1.0000
  H   H70       1.0  0.91400  0.23240  0.56010  1.0000
  H   H71       1.0  0.41400  0.26760  0.43990  1.0000
  H   H72       1.0  0.08600  0.73240  0.93990  1.0000
  H   H73       1.0  0.91400  0.73240  0.43990  1.0000
  H   H74       1.0  0.58600  0.26760  0.93990  1.0000
  H   H75       1.0  0.08600  0.23240  0.06010  1.0000
  H   H76       1.0  0.41400  0.76760  0.56010  1.0000
  H   H77       1.0  0.41400  0.23240  0.93990  1.0000
  H   H78       1.0  0.08600  0.76760  0.43990  1.0000
  H   H79       1.0  0.58600  0.73240  0.56010  1.0000
  H   H80       1.0  0.91400  0.26760  0.06010  1.0000
  C   C145      1.0  0.69710  0.12680  0.78080  1.0000
  C   C146      1.0  0.80290  0.87320  0.28080  1.0000
  C   C147      1.0  0.30290  0.62680  0.71920  1.0000
  C   C148      1.0  0.19710  0.37320  0.21920  1.0000
  C   C149      1.0  0.19710  0.62680  0.28080  1.0000
  C   C150      1.0  0.30290  0.37320  0.78080  1.0000
  C   C151      1.0  0.80290  0.12680  0.21920  1.0000
  C   C152      1.0  0.69710  0.87320  0.71920  1.0000
  C   C153      1.0  0.30290  0.87320  0.21920  1.0000
  C   C154      1.0  0.19710  0.12680  0.71920  1.0000
  C   C155      1.0  0.69710  0.37320  0.28080  1.0000
  C   C156      1.0  0.80290  0.62680  0.78080  1.0000
  C   C157      1.0  0.80290  0.37320  0.71920  1.0000
  C   C158      1.0  0.69710  0.62680  0.21920  1.0000
  C   C159      1.0  0.19710  0.87320  0.78080  1.0000
  C   C160      1.0  0.30290  0.12680  0.28080  1.0000
  H   H81       1.0  0.73200  0.13910  0.79780  1.0000
  H   H82       1.0  0.76800  0.86090  0.29780  1.0000
  H   H83       1.0  0.26800  0.63910  0.70220  1.0000
  H   H84       1.0  0.23200  0.36090  0.20220  1.0000
  H   H85       1.0  0.23200  0.63910  0.29780  1.0000
  H   H86       1.0  0.26800  0.36090  0.79780  1.0000
  H   H87       1.0  0.76800  0.13910  0.20220  1.0000
  H   H88       1.0  0.73200  0.86090  0.70220  1.0000
  H   H89       1.0  0.26800  0.86090  0.20220  1.0000
  H   H90       1.0  0.23200  0.13910  0.70220  1.0000
  H   H91       1.0  0.73200  0.36090  0.29780  1.0000
  H   H92       1.0  0.76800  0.63910  0.79780  1.0000
  H   H93       1.0  0.76800  0.36090  0.70220  1.0000
  H   H94       1.0  0.73200  0.63910  0.20220  1.0000
  H   H95       1.0  0.23200  0.86090  0.79780  1.0000
  H   H96       1.0  0.26800  0.13910  0.29780  1.0000
  C   C161      1.0  0.62290  0.00070  0.59340  1.0000
  C   C162      1.0  0.87710  0.99930  0.09340  1.0000
  C   C163      1.0  0.37710  0.50070  0.90660  1.0000
  C   C164      1.0  0.12290  0.49930  0.40660  1.0000
  C   C165      1.0  0.12290  0.50070  0.09340  1.0000
  C   C166      1.0  0.37710  0.49930  0.59340  1.0000
  C   C167      1.0  0.87710  0.00070  0.40660  1.0000
  C   C168      1.0  0.62290  0.99930  0.90660  1.0000
  C   C169      1.0  0.37710  0.99930  0.40660  1.0000
  C   C170      1.0  0.12290  0.00070  0.90660  1.0000
  C   C171      1.0  0.62290  0.49930  0.09340  1.0000
  C   C172      1.0  0.87710  0.50070  0.59340  1.0000
  C   C173      1.0  0.87710  0.49930  0.90660  1.0000
  C   C174      1.0  0.62290  0.50070  0.40660  1.0000
  C   C175      1.0  0.12290  0.99930  0.59340  1.0000
  C   C176      1.0  0.37710  0.00070  0.09340  1.0000
  C   C177      1.0  0.65450  0.97730  0.53900  1.0000
  C   C178      1.0  0.84550  0.02270  0.03900  1.0000
  C   C179      1.0  0.34550  0.47730  0.96100  1.0000
  C   C180      1.0  0.15450  0.52270  0.46100  1.0000
  C   C181      1.0  0.15450  0.47730  0.03900  1.0000
  C   C182      1.0  0.34550  0.52270  0.53900  1.0000
  C   C183      1.0  0.84550  0.97730  0.46100  1.0000
  C   C184      1.0  0.65450  0.02270  0.96100  1.0000
  C   C185      1.0  0.34550  0.02270  0.46100  1.0000
  C   C186      1.0  0.15450  0.97730  0.96100  1.0000
  C   C187      1.0  0.65450  0.52270  0.03900  1.0000
  C   C188      1.0  0.84550  0.47730  0.53900  1.0000
  C   C189      1.0  0.84550  0.52270  0.96100  1.0000
  C   C190      1.0  0.65450  0.47730  0.46100  1.0000
  C   C191      1.0  0.15450  0.02270  0.53900  1.0000
  C   C192      1.0  0.34550  0.97730  0.03900  1.0000
  C   C193      1.0  0.71260  0.12770  0.74210  1.0000
  C   C194      1.0  0.78740  0.87230  0.24210  1.0000
  C   C195      1.0  0.28740  0.62770  0.75790  1.0000
  C   C196      1.0  0.21260  0.37230  0.25790  1.0000
  C   C197      1.0  0.21260  0.62770  0.24210  1.0000
  C   C198      1.0  0.28740  0.37230  0.74210  1.0000
  C   C199      1.0  0.78740  0.12770  0.25790  1.0000
  C   C200      1.0  0.71260  0.87230  0.75790  1.0000
  C   C201      1.0  0.28740  0.87230  0.25790  1.0000
  C   C202      1.0  0.21260  0.12770  0.75790  1.0000
  C   C203      1.0  0.71260  0.37230  0.24210  1.0000
  C   C204      1.0  0.78740  0.62770  0.74210  1.0000
  C   C205      1.0  0.78740  0.37230  0.75790  1.0000
  C   C206      1.0  0.71260  0.62770  0.25790  1.0000
  C   C207      1.0  0.21260  0.87230  0.74210  1.0000
  C   C208      1.0  0.28740  0.12770  0.24210  1.0000
  H   H97       1.0  0.75750  0.14100  0.73340  1.0000
  H   H98       1.0  0.74250  0.85900  0.23340  1.0000
  H   H99       1.0  0.24250  0.64100  0.76660  1.0000
  H   H100      1.0  0.25750  0.35900  0.26660  1.0000
  H   H101      1.0  0.25750  0.64100  0.23340  1.0000
  H   H102      1.0  0.24250  0.35900  0.73340  1.0000
  H   H103      1.0  0.74250  0.14100  0.26660  1.0000
  H   H104      1.0  0.75750  0.85900  0.76660  1.0000
  H   H105      1.0  0.24250  0.85900  0.26660  1.0000
  H   H106      1.0  0.25750  0.14100  0.76660  1.0000
  H   H107      1.0  0.75750  0.35900  0.23340  1.0000
  H   H108      1.0  0.74250  0.64100  0.73340  1.0000
  H   H109      1.0  0.74250  0.35900  0.76660  1.0000
  H   H110      1.0  0.75750  0.64100  0.26660  1.0000
  H   H111      1.0  0.25750  0.85900  0.73340  1.0000
  H   H112      1.0  0.24250  0.14100  0.23340  1.0000
  C   C209      1.0  0.59590  0.09070  0.73110  1.0000
  C   C210      1.0  0.90410  0.90930  0.23110  1.0000
  C   C211      1.0  0.40410  0.59070  0.76890  1.0000
  C   C212      1.0  0.09590  0.40930  0.26890  1.0000
  C   C213      1.0  0.09590  0.59070  0.23110  1.0000
  C   C214      1.0  0.40410  0.40930  0.73110  1.0000
  C   C215      1.0  0.90410  0.09070  0.26890  1.0000
  C   C216      1.0  0.59590  0.90930  0.76890  1.0000
  C   C217      1.0  0.40410  0.90930  0.26890  1.0000
  C   C218      1.0  0.09590  0.09070  0.76890  1.0000
  C   C219      1.0  0.59590  0.40930  0.23110  1.0000
  C   C220      1.0  0.90410  0.59070  0.73110  1.0000
  C   C221      1.0  0.90410  0.40930  0.76890  1.0000
  C   C222      1.0  0.59590  0.59070  0.26890  1.0000
  C   C223      1.0  0.09590  0.90930  0.73110  1.0000
  C   C224      1.0  0.40410  0.09070  0.23110  1.0000
  H   H113      1.0  0.55950  0.07970  0.71420  1.0000
  H   H114      1.0  0.94050  0.92030  0.21420  1.0000
  H   H115      1.0  0.44050  0.57970  0.78580  1.0000
  H   H116      1.0  0.05950  0.42030  0.28580  1.0000
  H   H117      1.0  0.05950  0.57970  0.21420  1.0000
  H   H118      1.0  0.44050  0.42030  0.71420  1.0000
  H   H119      1.0  0.94050  0.07970  0.28580  1.0000
  H   H120      1.0  0.55950  0.92030  0.78580  1.0000
  H   H121      1.0  0.44050  0.92030  0.28580  1.0000
  H   H122      1.0  0.05950  0.07970  0.78580  1.0000
  H   H123      1.0  0.55950  0.42030  0.21420  1.0000
  H   H124      1.0  0.94050  0.57970  0.71420  1.0000
  H   H125      1.0  0.94050  0.42030  0.78580  1.0000
  H   H126      1.0  0.55950  0.57970  0.28580  1.0000
  H   H127      1.0  0.05950  0.92030  0.71420  1.0000
  H   H128      1.0  0.44050  0.07970  0.21420  1.0000
  C   C225      1.0  0.68050  0.10920  0.67560  1.0000
  C   C226      1.0  0.81950  0.89080  0.17560  1.0000
  C   C227      1.0  0.31950  0.60920  0.82440  1.0000
  C   C228      1.0  0.18050  0.39080  0.32440  1.0000
  C   C229      1.0  0.18050  0.60920  0.17560  1.0000
  C   C230      1.0  0.31950  0.39080  0.67560  1.0000
  C   C231      1.0  0.81950  0.10920  0.32440  1.0000
  C   C232      1.0  0.68050  0.89080  0.82440  1.0000
  C   C233      1.0  0.31950  0.89080  0.32440  1.0000
  C   C234      1.0  0.18050  0.10920  0.82440  1.0000
  C   C235      1.0  0.68050  0.39080  0.17560  1.0000
  C   C236      1.0  0.81950  0.60920  0.67560  1.0000
  C   C237      1.0  0.81950  0.39080  0.82440  1.0000
  C   C238      1.0  0.68050  0.60920  0.32440  1.0000
  C   C239      1.0  0.18050  0.89080  0.67560  1.0000
  C   C240      1.0  0.31950  0.10920  0.17560  1.0000
  C   C241      1.0  0.61240  0.10710  0.83710  1.0000
  C   C242      1.0  0.88760  0.89290  0.33710  1.0000
  C   C243      1.0  0.38760  0.60710  0.66290  1.0000
  C   C244      1.0  0.11240  0.39290  0.16290  1.0000
  C   C245      1.0  0.11240  0.60710  0.33710  1.0000
  C   C246      1.0  0.38760  0.39290  0.83710  1.0000
  C   C247      1.0  0.88760  0.10710  0.16290  1.0000
  C   C248      1.0  0.61240  0.89290  0.66290  1.0000
  C   C249      1.0  0.38760  0.89290  0.16290  1.0000
  C   C250      1.0  0.11240  0.10710  0.66290  1.0000
  C   C251      1.0  0.61240  0.39290  0.33710  1.0000
  C   C252      1.0  0.88760  0.60710  0.83710  1.0000
  C   C253      1.0  0.88760  0.39290  0.66290  1.0000
  C   C254      1.0  0.61240  0.60710  0.16290  1.0000
  C   C255      1.0  0.11240  0.89290  0.83710  1.0000
  C   C256      1.0  0.38760  0.10710  0.33710  1.0000
  C   C257      1.0  0.91440  0.08010  0.54310  1.0000
  C   C258      1.0  0.58560  0.91990  0.04310  1.0000
  C   C259      1.0  0.08560  0.58010  0.95690  1.0000
  C   C260      1.0  0.41440  0.41990  0.45690  1.0000
  C   C261      1.0  0.41440  0.58010  0.04310  1.0000
  C   C262      1.0  0.08560  0.41990  0.54310  1.0000
  C   C263      1.0  0.58560  0.08010  0.45690  1.0000
  C   C264      1.0  0.91440  0.91990  0.95690  1.0000
  C   C265      1.0  0.08560  0.91990  0.45690  1.0000
  C   C266      1.0  0.41440  0.08010  0.95690  1.0000
  C   C267      1.0  0.91440  0.41990  0.04310  1.0000
  C   C268      1.0  0.58560  0.58010  0.54310  1.0000
  C   C269      1.0  0.58560  0.41990  0.95690  1.0000
  C   C270      1.0  0.91440  0.58010  0.45690  1.0000
  C   C271      1.0  0.41440  0.91990  0.54310  1.0000
  C   C272      1.0  0.08560  0.08010  0.04310  1.0000
  C   C273      1.0  0.63080  0.10790  0.79400  1.0000
  C   C274      1.0  0.86920  0.89210  0.29400  1.0000
  C   C275      1.0  0.36920  0.60790  0.70600  1.0000
  C   C276      1.0  0.13080  0.39210  0.20600  1.0000
  C   C277      1.0  0.13080  0.60790  0.29400  1.0000
  C   C278      1.0  0.36920  0.39210  0.79400  1.0000
  C   C279      1.0  0.86920  0.10790  0.20600  1.0000
  C   C280      1.0  0.63080  0.89210  0.70600  1.0000
  C   C281      1.0  0.36920  0.89210  0.20600  1.0000
  C   C282      1.0  0.13080  0.10790  0.70600  1.0000
  C   C283      1.0  0.63080  0.39210  0.29400  1.0000
  C   C284      1.0  0.86920  0.60790  0.79400  1.0000
  C   C285      1.0  0.86920  0.39210  0.70600  1.0000
  C   C286      1.0  0.63080  0.60790  0.20600  1.0000
  C   C287      1.0  0.13080  0.89210  0.79400  1.0000
  C   C288      1.0  0.36920  0.10790  0.29400  1.0000
  C   C289      1.0  0.88690  0.10190  0.59750  1.0000
  C   C290      1.0  0.61310  0.89810  0.09750  1.0000
  C   C291      1.0  0.11310  0.60190  0.90250  1.0000
  C   C292      1.0  0.38690  0.39810  0.40250  1.0000
  C   C293      1.0  0.38690  0.60190  0.09750  1.0000
  C   C294      1.0  0.11310  0.39810  0.59750  1.0000
  C   C295      1.0  0.61310  0.10190  0.40250  1.0000
  C   C296      1.0  0.88690  0.89810  0.90250  1.0000
  C   C297      1.0  0.11310  0.89810  0.40250  1.0000
  C   C298      1.0  0.38690  0.10190  0.90250  1.0000
  C   C299      1.0  0.88690  0.39810  0.09750  1.0000
  C   C300      1.0  0.61310  0.60190  0.59750  1.0000
  C   C301      1.0  0.61310  0.39810  0.90250  1.0000
  C   C302      1.0  0.88690  0.60190  0.40250  1.0000
  C   C303      1.0  0.38690  0.89810  0.59750  1.0000
  C   C304      1.0  0.11310  0.10190  0.09750  1.0000
  C   C305      1.0  0.66300  0.10950  0.71710  1.0000
  C   C306      1.0  0.83700  0.89050  0.21710  1.0000
  C   C307      1.0  0.33700  0.60950  0.78290  1.0000
  C   C308      1.0  0.16300  0.39050  0.28290  1.0000
  C   C309      1.0  0.16300  0.60950  0.21710  1.0000
  C   C310      1.0  0.33700  0.39050  0.71710  1.0000
  C   C311      1.0  0.83700  0.10950  0.28290  1.0000
  C   C312      1.0  0.66300  0.89050  0.78290  1.0000
  C   C313      1.0  0.33700  0.89050  0.28290  1.0000
  C   C314      1.0  0.16300  0.10950  0.78290  1.0000
  C   C315      1.0  0.66300  0.39050  0.21710  1.0000
  C   C316      1.0  0.83700  0.60950  0.71710  1.0000
  C   C317      1.0  0.83700  0.39050  0.78290  1.0000
  C   C318      1.0  0.66300  0.60950  0.28290  1.0000
  C   C319      1.0  0.16300  0.89050  0.71710  1.0000
  C   C320      1.0  0.33700  0.10950  0.21710  1.0000
  N   N1        1.0  0.59730  0.00270  0.62920  1.0000
  N   N2        1.0  0.90270  0.99730  0.12920  1.0000
  N   N3        1.0  0.40270  0.50270  0.87080  1.0000
  N   N4        1.0  0.09730  0.49730  0.37080  1.0000
  N   N5        1.0  0.09730  0.50270  0.12920  1.0000
  N   N6        1.0  0.40270  0.49730  0.62920  1.0000
  N   N7        1.0  0.90270  0.00270  0.37080  1.0000
  N   N8        1.0  0.59730  0.99730  0.87080  1.0000
  N   N9        1.0  0.40270  0.99730  0.37080  1.0000
  N   N10       1.0  0.09730  0.00270  0.87080  1.0000
  N   N11       1.0  0.59730  0.49730  0.12920  1.0000
  N   N12       1.0  0.90270  0.50270  0.62920  1.0000
  N   N13       1.0  0.90270  0.49730  0.87080  1.0000
  N   N14       1.0  0.59730  0.50270  0.37080  1.0000
  N   N15       1.0  0.09730  0.99730  0.62920  1.0000
  N   N16       1.0  0.40270  0.00270  0.12920  1.0000
  H   H129      1.0  0.60290  0.02730  0.64220  1.0000
  H   H130      1.0  0.89710  0.97270  0.14220  1.0000
  H   H131      1.0  0.39710  0.52730  0.85780  1.0000
  H   H132      1.0  0.10290  0.47270  0.35780  1.0000
  H   H133      1.0  0.10290  0.52730  0.14220  1.0000
  H   H134      1.0  0.39710  0.47270  0.64220  1.0000
  H   H135      1.0  0.89710  0.02730  0.35780  1.0000
  H   H136      1.0  0.60290  0.97270  0.85780  1.0000
  H   H137      1.0  0.39710  0.97270  0.35780  1.0000
  H   H138      1.0  0.10290  0.02730  0.85780  1.0000
  H   H139      1.0  0.60290  0.47270  0.14220  1.0000
  H   H140      1.0  0.89710  0.52730  0.64220  1.0000
  H   H141      1.0  0.89710  0.47270  0.85780  1.0000
  H   H142      1.0  0.60290  0.52730  0.35780  1.0000
  H   H143      1.0  0.10290  0.97270  0.64220  1.0000
  H   H144      1.0  0.39710  0.02730  0.14220  1.0000
  H   H145      1.0  0.57520  0.97950  0.63920  1.0000
  H   H146      1.0  0.92480  0.02050  0.13920  1.0000
  H   H147      1.0  0.42480  0.47950  0.86080  1.0000
  H   H148      1.0  0.07520  0.52050  0.36080  1.0000
  H   H149      1.0  0.07520  0.47950  0.13920  1.0000
  H   H150      1.0  0.42480  0.52050  0.63920  1.0000
  H   H151      1.0  0.92480  0.97950  0.36080  1.0000
  H   H152      1.0  0.57520  0.02050  0.86080  1.0000
  H   H153      1.0  0.42480  0.02050  0.36080  1.0000
  H   H154      1.0  0.07520  0.97950  0.86080  1.0000
  H   H155      1.0  0.57520  0.52050  0.13920  1.0000
  H   H156      1.0  0.92480  0.47950  0.63920  1.0000
  H   H157      1.0  0.92480  0.52050  0.86080  1.0000
  H   H158      1.0  0.57520  0.47950  0.36080  1.0000
  H   H159      1.0  0.07520  0.02050  0.63920  1.0000
  H   H160      1.0  0.42480  0.97950  0.13920  1.0000
  N   N17       1.0  0.66090  0.95020  0.50730  1.0000
  N   N18       1.0  0.83910  0.04980  0.00730  1.0000
  N   N19       1.0  0.33910  0.45020  0.99270  1.0000
  N   N20       1.0  0.16090  0.54980  0.49270  1.0000
  N   N21       1.0  0.16090  0.45020  0.00730  1.0000
  N   N22       1.0  0.33910  0.54980  0.50730  1.0000
  N   N23       1.0  0.83910  0.95020  0.49270  1.0000
  N   N24       1.0  0.66090  0.04980  0.99270  1.0000
  N   N25       1.0  0.33910  0.04980  0.49270  1.0000
  N   N26       1.0  0.16090  0.95020  0.99270  1.0000
  N   N27       1.0  0.66090  0.54980  0.00730  1.0000
  N   N28       1.0  0.83910  0.45020  0.50730  1.0000
  N   N29       1.0  0.83910  0.54980  0.99270  1.0000
  N   N30       1.0  0.66090  0.45020  0.49270  1.0000
  N   N31       1.0  0.16090  0.04980  0.50730  1.0000
  N   N32       1.0  0.33910  0.95020  0.00730  1.0000
  H   H161      1.0  0.68050  0.96090  0.48680  1.0000
  H   H162      1.0  0.81950  0.03910  0.98680  1.0000
  H   H163      1.0  0.31950  0.46090  0.01320  1.0000
  H   H164      1.0  0.18050  0.53910  0.51320  1.0000
  H   H165      1.0  0.18050  0.46090  0.98680  1.0000
  H   H166      1.0  0.31950  0.53910  0.48680  1.0000
  H   H167      1.0  0.81950  0.96090  0.51320  1.0000
  H   H168      1.0  0.68050  0.03910  0.01320  1.0000
  H   H169      1.0  0.31950  0.03910  0.51320  1.0000
  H   H170      1.0  0.18050  0.96090  0.01320  1.0000
  H   H171      1.0  0.68050  0.53910  0.98680  1.0000
  H   H172      1.0  0.81950  0.46090  0.48680  1.0000
  H   H173      1.0  0.81950  0.53910  0.01320  1.0000
  H   H174      1.0  0.68050  0.46090  0.51320  1.0000
  H   H175      1.0  0.18050  0.03910  0.48680  1.0000
  H   H176      1.0  0.31950  0.96090  0.98680  1.0000
  H   H177      1.0  0.64530  0.92250  0.50800  1.0000
  H   H178      1.0  0.85470  0.07750  0.00800  1.0000
  H   H179      1.0  0.35470  0.42250  0.99200  1.0000
  H   H180      1.0  0.14530  0.57750  0.49200  1.0000
  H   H181      1.0  0.14530  0.42250  0.00800  1.0000
  H   H182      1.0  0.35470  0.57750  0.50800  1.0000
  H   H183      1.0  0.85470  0.92250  0.49200  1.0000
  H   H184      1.0  0.64530  0.07750  0.99200  1.0000
  H   H185      1.0  0.35470  0.07750  0.49200  1.0000
  H   H186      1.0  0.14530  0.92250  0.99200  1.0000
  H   H187      1.0  0.64530  0.57750  0.00800  1.0000
  H   H188      1.0  0.85470  0.42250  0.50800  1.0000
  H   H189      1.0  0.85470  0.57750  0.99200  1.0000
  H   H190      1.0  0.64530  0.42250  0.49200  1.0000
  H   H191      1.0  0.14530  0.07750  0.50800  1.0000
  H   H192      1.0  0.35470  0.92250  0.00800  1.0000
  N   N33       1.0  0.89490  0.11760  0.63500  1.0000
  N   N34       1.0  0.60510  0.88240  0.13500  1.0000
  N   N35       1.0  0.10510  0.61760  0.86500  1.0000
  N   N36       1.0  0.39490  0.38240  0.36500  1.0000
  N   N37       1.0  0.39490  0.61760  0.13500  1.0000
  N   N38       1.0  0.10510  0.38240  0.63500  1.0000
  N   N39       1.0  0.60510  0.11760  0.36500  1.0000
  N   N40       1.0  0.89490  0.88240  0.86500  1.0000
  N   N41       1.0  0.10510  0.88240  0.36500  1.0000
  N   N42       1.0  0.39490  0.11760  0.86500  1.0000
  N   N43       1.0  0.89490  0.38240  0.13500  1.0000
  N   N44       1.0  0.60510  0.61760  0.63500  1.0000
  N   N45       1.0  0.60510  0.38240  0.86500  1.0000
  N   N46       1.0  0.89490  0.61760  0.36500  1.0000
  N   N47       1.0  0.39490  0.88240  0.63500  1.0000
  N   N48       1.0  0.10510  0.11760  0.13500  1.0000
  H   H193      1.0  0.85500  0.12220  0.64880  1.0000
  H   H194      1.0  0.64500  0.87780  0.14880  1.0000
  H   H195      1.0  0.14500  0.62220  0.85120  1.0000
  H   H196      1.0  0.35500  0.37780  0.35120  1.0000
  H   H197      1.0  0.35500  0.62220  0.14880  1.0000
  H   H198      1.0  0.14500  0.37780  0.64880  1.0000
  H   H199      1.0  0.64500  0.12220  0.35120  1.0000
  H   H200      1.0  0.85500  0.87780  0.85120  1.0000
  H   H201      1.0  0.14500  0.87780  0.35120  1.0000
  H   H202      1.0  0.35500  0.12220  0.85120  1.0000
  H   H203      1.0  0.85500  0.37780  0.14880  1.0000
  H   H204      1.0  0.64500  0.62220  0.64880  1.0000
  H   H205      1.0  0.64500  0.37780  0.85120  1.0000
  H   H206      1.0  0.85500  0.62220  0.35120  1.0000
  H   H207      1.0  0.35500  0.87780  0.64880  1.0000
  H   H208      1.0  0.14500  0.12220  0.14880  1.0000
  H   H209      1.0  0.93970  0.12270  0.64420  1.0000
  H   H210      1.0  0.56030  0.87730  0.14420  1.0000
  H   H211      1.0  0.06030  0.62270  0.85580  1.0000
  H   H212      1.0  0.43970  0.37730  0.35580  1.0000
  H   H213      1.0  0.43970  0.62270  0.14420  1.0000
  H   H214      1.0  0.06030  0.37730  0.64420  1.0000
  H   H215      1.0  0.56030  0.12270  0.35580  1.0000
  H   H216      1.0  0.93970  0.87730  0.85580  1.0000
  H   H217      1.0  0.06030  0.87730  0.35580  1.0000
  H   H218      1.0  0.43970  0.12270  0.85580  1.0000
  H   H219      1.0  0.93970  0.37730  0.14420  1.0000
  H   H220      1.0  0.56030  0.62270  0.64420  1.0000
  H   H221      1.0  0.56030  0.37730  0.85580  1.0000
  H   H222      1.0  0.93970  0.62270  0.35580  1.0000
  H   H223      1.0  0.43970  0.87730  0.64420  1.0000
  H   H224      1.0  0.06030  0.12270  0.14420  1.0000
  N   N49       1.0  0.95690  0.06700  0.51140  1.0000
  N   N50       1.0  0.54310  0.93300  0.01140  1.0000
  N   N51       1.0  0.04310  0.56700  0.98860  1.0000
  N   N52       1.0  0.45690  0.43300  0.48860  1.0000
  N   N53       1.0  0.45690  0.56700  0.01140  1.0000
  N   N54       1.0  0.04310  0.43300  0.51140  1.0000
  N   N55       1.0  0.54310  0.06700  0.48860  1.0000
  N   N56       1.0  0.95690  0.93300  0.98860  1.0000
  N   N57       1.0  0.04310  0.93300  0.48860  1.0000
  N   N58       1.0  0.45690  0.06700  0.98860  1.0000
  N   N59       1.0  0.95690  0.43300  0.01140  1.0000
  N   N60       1.0  0.54310  0.56700  0.51140  1.0000
  N   N61       1.0  0.54310  0.43300  0.98860  1.0000
  N   N62       1.0  0.95690  0.56700  0.48860  1.0000
  N   N63       1.0  0.45690  0.93300  0.51140  1.0000
  N   N64       1.0  0.04310  0.06700  0.01140  1.0000
  H   H225      1.0  0.93400  0.05680  0.49150  1.0000
  H   H226      1.0  0.56600  0.94320  0.99150  1.0000
  H   H227      1.0  0.06600  0.55680  0.00850  1.0000
  H   H228      1.0  0.43400  0.44320  0.50850  1.0000
  H   H229      1.0  0.43400  0.55680  0.99150  1.0000
  H   H230      1.0  0.06600  0.44320  0.49150  1.0000
  H   H231      1.0  0.56600  0.05680  0.50850  1.0000
  H   H232      1.0  0.93400  0.94320  0.00850  1.0000
  H   H233      1.0  0.06600  0.94320  0.50850  1.0000
  H   H234      1.0  0.43400  0.05680  0.00850  1.0000
  H   H235      1.0  0.93400  0.44320  0.99150  1.0000
  H   H236      1.0  0.56600  0.55680  0.49150  1.0000
  H   H237      1.0  0.56600  0.44320  0.00850  1.0000
  H   H238      1.0  0.93400  0.55680  0.50850  1.0000
  H   H239      1.0  0.43400  0.94320  0.49150  1.0000
  H   H240      1.0  0.06600  0.05680  0.99150  1.0000
  H   H241      1.0  0.00590  0.06910  0.51170  1.0000
  H   H242      1.0  0.49410  0.93090  0.01170  1.0000
  H   H243      1.0  0.99410  0.56910  0.98830  1.0000
  H   H244      1.0  0.50590  0.43090  0.48830  1.0000
  H   H245      1.0  0.50590  0.56910  0.01170  1.0000
  H   H246      1.0  0.99410  0.43090  0.51170  1.0000
  H   H247      1.0  0.49410  0.06910  0.48830  1.0000
  H   H248      1.0  0.00590  0.93090  0.98830  1.0000
  H   H249      1.0  0.99410  0.93090  0.48830  1.0000
  H   H250      1.0  0.50590  0.06910  0.98830  1.0000
  H   H251      1.0  0.00590  0.43090  0.01170  1.0000
  H   H252      1.0  0.49410  0.56910  0.51170  1.0000
  H   H253      1.0  0.49410  0.43090  0.98830  1.0000
  H   H254      1.0  0.00590  0.56910  0.48830  1.0000
  H   H255      1.0  0.50590  0.93090  0.51170  1.0000
  H   H256      1.0  0.99410  0.06910  0.01170  1.0000
  N   N65       1.0  0.84030  0.07830  0.54549  1.0000
  N   N66       1.0  0.65970  0.92170  0.04549  1.0000
  N   N67       1.0  0.15970  0.57830  0.95451  1.0000
  N   N68       1.0  0.34030  0.42170  0.45451  1.0000
  N   N69       1.0  0.34030  0.57830  0.04549  1.0000
  N   N70       1.0  0.15970  0.42170  0.54549  1.0000
  N   N71       1.0  0.65970  0.07830  0.45451  1.0000
  N   N72       1.0  0.84030  0.92170  0.95451  1.0000
  N   N73       1.0  0.15970  0.92170  0.45451  1.0000
  N   N74       1.0  0.34030  0.07830  0.95451  1.0000
  N   N75       1.0  0.84030  0.42170  0.04549  1.0000
  N   N76       1.0  0.65970  0.57830  0.54549  1.0000
  N   N77       1.0  0.65970  0.42170  0.95451  1.0000
  N   N78       1.0  0.84030  0.57830  0.45451  1.0000
  N   N79       1.0  0.34030  0.92170  0.54549  1.0000
  N   N80       1.0  0.15970  0.07830  0.04549  1.0000
  N   N81       1.0  0.94810  0.09350  0.57540  1.0000
  N   N82       1.0  0.55190  0.90650  0.07540  1.0000
  N   N83       1.0  0.05190  0.59350  0.92460  1.0000
  N   N84       1.0  0.44810  0.40650  0.42460  1.0000
  N   N85       1.0  0.44810  0.59350  0.07540  1.0000
  N   N86       1.0  0.05190  0.40650  0.57540  1.0000
  N   N87       1.0  0.55190  0.09350  0.42460  1.0000
  N   N88       1.0  0.94810  0.90650  0.92460  1.0000
  N   N89       1.0  0.05190  0.90650  0.42460  1.0000
  N   N90       1.0  0.44810  0.09350  0.92460  1.0000
  N   N91       1.0  0.94810  0.40650  0.07540  1.0000
  N   N92       1.0  0.55190  0.59350  0.57540  1.0000
  N   N93       1.0  0.55190  0.40650  0.92460  1.0000
  N   N94       1.0  0.94810  0.59350  0.42460  1.0000
  N   N95       1.0  0.44810  0.90650  0.57540  1.0000
  N   N96       1.0  0.05190  0.09350  0.07540  1.0000
  N   N97       1.0  0.82310  0.09360  0.58190  1.0000
  N   N98       1.0  0.67690  0.90640  0.08190  1.0000
  N   N99       1.0  0.17690  0.59360  0.91810  1.0000
  N   N100      1.0  0.32310  0.40640  0.41810  1.0000
  N   N101      1.0  0.32310  0.59360  0.08190  1.0000
  N   N102      1.0  0.17690  0.40640  0.58190  1.0000
  N   N103      1.0  0.67690  0.09360  0.41810  1.0000
  N   N104      1.0  0.82310  0.90640  0.91810  1.0000
  N   N105      1.0  0.17690  0.90640  0.41810  1.0000
  N   N106      1.0  0.32310  0.09360  0.91810  1.0000
  N   N107      1.0  0.82310  0.40640  0.08190  1.0000
  N   N108      1.0  0.67690  0.59360  0.58190  1.0000
  N   N109      1.0  0.67690  0.40640  0.91810  1.0000
  N   N110      1.0  0.82310  0.59360  0.41810  1.0000
  N   N111      1.0  0.32310  0.90640  0.58190  1.0000
  N   N112      1.0  0.17690  0.09360  0.08190  1.0000
  N   N113      1.0  0.62020  0.96230  0.57040  1.0000
  N   N114      1.0  0.87980  0.03770  0.07040  1.0000
  N   N115      1.0  0.37980  0.46230  0.92960  1.0000
  N   N116      1.0  0.12020  0.53770  0.42960  1.0000
  N   N117      1.0  0.12020  0.46230  0.07040  1.0000
  N   N118      1.0  0.37980  0.53770  0.57040  1.0000
  N   N119      1.0  0.87980  0.96230  0.42960  1.0000
  N   N120      1.0  0.62020  0.03770  0.92960  1.0000
  N   N121      1.0  0.37980  0.03770  0.42960  1.0000
  N   N122      1.0  0.12020  0.96230  0.92960  1.0000
  N   N123      1.0  0.62020  0.53770  0.07040  1.0000
  N   N124      1.0  0.87980  0.46230  0.57040  1.0000
  N   N125      1.0  0.87980  0.53770  0.92960  1.0000
  N   N126      1.0  0.62020  0.46230  0.42960  1.0000
  N   N127      1.0  0.12020  0.03770  0.57040  1.0000
  N   N128      1.0  0.37980  0.96230  0.07040  1.0000
  N   N129      1.0  0.65800  0.03600  0.57620  1.0000
  N   N130      1.0  0.84200  0.96400  0.07620  1.0000
  N   N131      1.0  0.34200  0.53600  0.92380  1.0000
  N   N132      1.0  0.15800  0.46400  0.42380  1.0000
  N   N133      1.0  0.15800  0.53600  0.07620  1.0000
  N   N134      1.0  0.34200  0.46400  0.57620  1.0000
  N   N135      1.0  0.84200  0.03600  0.42380  1.0000
  N   N136      1.0  0.65800  0.96400  0.92380  1.0000
  N   N137      1.0  0.34200  0.96400  0.42380  1.0000
  N   N138      1.0  0.15800  0.03600  0.92380  1.0000
  N   N139      1.0  0.65800  0.46400  0.07620  1.0000
  N   N140      1.0  0.84200  0.53600  0.57620  1.0000
  N   N141      1.0  0.84200  0.46400  0.92380  1.0000
  N   N142      1.0  0.65800  0.53600  0.42380  1.0000
  N   N143      1.0  0.15800  0.96400  0.57620  1.0000
  N   N144      1.0  0.34200  0.03600  0.07620  1.0000
  N   N145      1.0  0.67740  0.01980  0.53943  1.0000
  N   N146      1.0  0.82260  0.98020  0.03943  1.0000
  N   N147      1.0  0.32260  0.51980  0.96057  1.0000
  N   N148      1.0  0.17740  0.48020  0.46057  1.0000
  N   N149      1.0  0.17740  0.51980  0.03943  1.0000
  N   N150      1.0  0.32260  0.48020  0.53943  1.0000
  N   N151      1.0  0.82260  0.01980  0.46057  1.0000
  N   N152      1.0  0.67740  0.98020  0.96057  1.0000
  N   N153      1.0  0.32260  0.98020  0.46057  1.0000
  N   N154      1.0  0.17740  0.01980  0.96057  1.0000
  N   N155      1.0  0.67740  0.48020  0.03943  1.0000
  N   N156      1.0  0.82260  0.51980  0.53943  1.0000
  N   N157      1.0  0.82260  0.48020  0.96057  1.0000
  N   N158      1.0  0.67740  0.51980  0.46057  1.0000
  N   N159      1.0  0.17740  0.98020  0.53943  1.0000
  N   N160      1.0  0.32260  0.01980  0.03943  1.0000
  O   O1        1.0  0.17100  0.32790  0.41670  1.0000
  O   O2        1.0  0.32900  0.67210  0.91670  1.0000
  O   O3        1.0  0.82900  0.82790  0.08330  1.0000
  O   O4        1.0  0.67100  0.17210  0.58330  1.0000
  O   O5        1.0  0.67100  0.82790  0.91670  1.0000
  O   O6        1.0  0.82900  0.17210  0.41670  1.0000
  O   O7        1.0  0.32900  0.32790  0.58330  1.0000
  O   O8        1.0  0.17100  0.67210  0.08330  1.0000
  O   O9        1.0  0.82900  0.67210  0.58330  1.0000
  O   O10       1.0  0.67100  0.32790  0.08330  1.0000
  O   O11       1.0  0.17100  0.17210  0.91670  1.0000
  O   O12       1.0  0.32900  0.82790  0.41670  1.0000
  O   O13       1.0  0.32900  0.17210  0.08330  1.0000
  O   O14       1.0  0.17100  0.82790  0.58330  1.0000
  O   O15       1.0  0.67100  0.67210  0.41670  1.0000
  O   O16       1.0  0.82900  0.32790  0.91670  1.0000
  O   O17       1.0  0.11220  0.14060  0.53460  1.0000
  O   O18       1.0  0.38780  0.85940  0.03460  1.0000
  O   O19       1.0  0.88780  0.64060  0.96540  1.0000
  O   O20       1.0  0.61220  0.35940  0.46540  1.0000
  O   O21       1.0  0.61220  0.64060  0.03460  1.0000
  O   O22       1.0  0.88780  0.35940  0.53460  1.0000
  O   O23       1.0  0.38780  0.14060  0.46540  1.0000
  O   O24       1.0  0.11220  0.85940  0.96540  1.0000
  O   O25       1.0  0.88780  0.85940  0.46540  1.0000
  O   O26       1.0  0.61220  0.14060  0.96540  1.0000
  O   O27       1.0  0.11220  0.35940  0.03460  1.0000
  O   O28       1.0  0.38780  0.64060  0.53460  1.0000
  O   O29       1.0  0.38780  0.35940  0.96540  1.0000
  O   O30       1.0  0.11220  0.64060  0.46540  1.0000
  O   O31       1.0  0.61220  0.85940  0.53460  1.0000
  O   O32       1.0  0.88780  0.14060  0.03460  1.0000
  O   O33       1.0  0.66030  0.12200  0.86010  1.0000
  O   O34       1.0  0.83970  0.87800  0.36010  1.0000
  O   O35       1.0  0.33970  0.62200  0.63990  1.0000
  O   O36       1.0  0.16030  0.37800  0.13990  1.0000
  O   O37       1.0  0.16030  0.62200  0.36010  1.0000
  O   O38       1.0  0.33970  0.37800  0.86010  1.0000
  O   O39       1.0  0.83970  0.12200  0.13990  1.0000
  O   O40       1.0  0.66030  0.87800  0.63990  1.0000
  O   O41       1.0  0.33970  0.87800  0.13990  1.0000
  O   O42       1.0  0.16030  0.12200  0.63990  1.0000
  O   O43       1.0  0.66030  0.37800  0.36010  1.0000
  O   O44       1.0  0.83970  0.62200  0.86010  1.0000
  O   O45       1.0  0.83970  0.37800  0.63990  1.0000
  O   O46       1.0  0.66030  0.62200  0.13990  1.0000
  O   O47       1.0  0.16030  0.87800  0.86010  1.0000
  O   O48       1.0  0.33970  0.12200  0.36010  1.0000
  O   O49       1.0  0.07130  0.18480  0.57960  1.0000
  O   O50       1.0  0.42870  0.81520  0.07960  1.0000
  O   O51       1.0  0.92870  0.68480  0.92040  1.0000
  O   O52       1.0  0.57130  0.31520  0.42040  1.0000
  O   O53       1.0  0.57130  0.68480  0.07960  1.0000
  O   O54       1.0  0.92870  0.31520  0.57960  1.0000
  O   O55       1.0  0.42870  0.18480  0.42040  1.0000
  O   O56       1.0  0.07130  0.81520  0.92040  1.0000
  O   O57       1.0  0.92870  0.81520  0.42040  1.0000
  O   O58       1.0  0.57130  0.18480  0.92040  1.0000
  O   O59       1.0  0.07130  0.31520  0.07960  1.0000
  O   O60       1.0  0.42870  0.68480  0.57960  1.0000
  O   O61       1.0  0.42870  0.31520  0.92040  1.0000
  O   O62       1.0  0.07130  0.68480  0.42040  1.0000
  O   O63       1.0  0.57130  0.81520  0.57960  1.0000
  O   O64       1.0  0.92870  0.18480  0.07960  1.0000
  O   O65       1.0  0.62820  0.09320  0.65320  1.0000
  O   O66       1.0  0.87180  0.90680  0.15320  1.0000
  O   O67       1.0  0.37180  0.59320  0.84680  1.0000
  O   O68       1.0  0.12820  0.40680  0.34680  1.0000
  O   O69       1.0  0.12820  0.59320  0.15320  1.0000
  O   O70       1.0  0.37180  0.40680  0.65320  1.0000
  O   O71       1.0  0.87180  0.09320  0.34680  1.0000
  O   O72       1.0  0.62820  0.90680  0.84680  1.0000
  O   O73       1.0  0.37180  0.90680  0.34680  1.0000
  O   O74       1.0  0.12820  0.09320  0.84680  1.0000
  O   O75       1.0  0.62820  0.40680  0.15320  1.0000
  O   O76       1.0  0.87180  0.59320  0.65320  1.0000
  O   O77       1.0  0.87180  0.40680  0.84680  1.0000
  O   O78       1.0  0.62820  0.59320  0.34680  1.0000
  O   O79       1.0  0.12820  0.90680  0.65320  1.0000
  O   O80       1.0  0.37180  0.09320  0.15320  1.0000
  O   O81       1.0  0.55030  0.08990  0.84740  1.0000
  O   O82       1.0  0.94970  0.91010  0.34740  1.0000
  O   O83       1.0  0.44970  0.58990  0.65260  1.0000
  O   O84       1.0  0.05030  0.41010  0.15260  1.0000
  O   O85       1.0  0.05030  0.58990  0.34740  1.0000
  O   O86       1.0  0.44970  0.41010  0.84740  1.0000
  O   O87       1.0  0.94970  0.08990  0.15260  1.0000
  O   O88       1.0  0.55030  0.91010  0.65260  1.0000
  O   O89       1.0  0.44970  0.91010  0.15260  1.0000
  O   O90       1.0  0.05030  0.08990  0.65260  1.0000
  O   O91       1.0  0.55030  0.41010  0.34740  1.0000
  O   O92       1.0  0.94970  0.58990  0.84740  1.0000
  O   O93       1.0  0.94970  0.41010  0.65260  1.0000
  O   O94       1.0  0.55030  0.58990  0.15260  1.0000
  O   O95       1.0  0.05030  0.91010  0.84740  1.0000
  O   O96       1.0  0.44970  0.08990  0.34740  1.0000
  O   O97       1.0  0.74050  0.12380  0.66410  1.0000
  O   O98       1.0  0.75950  0.87620  0.16410  1.0000
  O   O99       1.0  0.25950  0.62380  0.83590  1.0000
  O   O100      1.0  0.24050  0.37620  0.33590  1.0000
  O   O101      1.0  0.24050  0.62380  0.16410  1.0000
  O   O102      1.0  0.25950  0.37620  0.66410  1.0000
  O   O103      1.0  0.75950  0.12380  0.33590  1.0000
  O   O104      1.0  0.74050  0.87620  0.83590  1.0000
  O   O105      1.0  0.25950  0.87620  0.33590  1.0000
  O   O106      1.0  0.24050  0.12380  0.83590  1.0000
  O   O107      1.0  0.74050  0.37620  0.16410  1.0000
  O   O108      1.0  0.75950  0.62380  0.66410  1.0000
  O   O109      1.0  0.75950  0.37620  0.83590  1.0000
  O   O110      1.0  0.74050  0.62380  0.33590  1.0000
  O   O111      1.0  0.24050  0.87620  0.66410  1.0000
  O   O112      1.0  0.25950  0.12380  0.16410  1.0000
  O   O113      1.0  0.17680  0.37230  0.46682  1.0000
  O   O114      1.0  0.32320  0.62770  0.96682  1.0000
  O   O115      1.0  0.82320  0.87230  0.03318  1.0000
  O   O116      1.0  0.67680  0.12770  0.53318  1.0000
  O   O117      1.0  0.67680  0.87230  0.96682  1.0000
  O   O118      1.0  0.82320  0.12770  0.46682  1.0000
  O   O119      1.0  0.32320  0.37230  0.53318  1.0000
  O   O120      1.0  0.17680  0.62770  0.03318  1.0000
  O   O121      1.0  0.82320  0.62770  0.53318  1.0000
  O   O122      1.0  0.67680  0.37230  0.03318  1.0000
  O   O123      1.0  0.17680  0.12770  0.96682  1.0000
  O   O124      1.0  0.32320  0.87230  0.46682  1.0000
  O   O125      1.0  0.32320  0.12770  0.03318  1.0000
  O   O126      1.0  0.17680  0.87230  0.53318  1.0000
  O   O127      1.0  0.67680  0.62770  0.46682  1.0000
  O   O128      1.0  0.82320  0.37230  0.96682  1.0000
