data_image0
_chemical_formula_structural       Ba2Ti2O48C18H12C12H12C6H15
_chemical_formula_sum              "Ba2 Ti2 O48 C36 H39"
_cell_length_a       14.7993
_cell_length_b       14.7993
_cell_length_c       9.4457
_cell_angle_alpha    90
_cell_angle_beta     90
_cell_angle_gamma    120

_space_group_name_H-M_alt    "P 1"
_space_group_IT_number       1

loop_
  _space_group_symop_operation_xyz
  'x, y, z'

loop_
  _atom_site_type_symbol
  _atom_site_label
  _atom_site_symmetry_multiplicity
  _atom_site_fract_x
  _atom_site_fract_y
  _atom_site_fract_z
  _atom_site_occupancy
  Ba  Ba1       1.0  0.66670  0.33330  0.68441  1.0000
  Ba  Ba2       1.0  0.33330  0.66670  0.31559  1.0000
  Ti  Ti1       1.0  0.66670  0.33330  0.30585  1.0000
  Ti  Ti2       1.0  0.33330  0.66670  0.69415  1.0000
  O   O1        1.0  0.55643  0.23276  0.41440  1.0000
  O   O2        1.0  0.76724  0.32367  0.41440  1.0000
  O   O3        1.0  0.67633  0.44357  0.41440  1.0000
  O   O4        1.0  0.44357  0.76724  0.58560  1.0000
  O   O5        1.0  0.23276  0.67633  0.58560  1.0000
  O   O6        1.0  0.32367  0.55643  0.58560  1.0000
  O   O7        1.0  0.54514  0.29291  0.17240  1.0000
  O   O8        1.0  0.70709  0.25223  0.17240  1.0000
  O   O9        1.0  0.74777  0.45486  0.17240  1.0000
  O   O10       1.0  0.45486  0.70709  0.82760  1.0000
  O   O11       1.0  0.29291  0.74777  0.82760  1.0000
  O   O12       1.0  0.25223  0.54514  0.82760  1.0000
  O   O13       1.0  0.37270  0.20370  0.15240  1.0000
  O   O14       1.0  0.79630  0.16900  0.15240  1.0000
  O   O15       1.0  0.83100  0.62730  0.15240  1.0000
  O   O16       1.0  0.62730  0.79630  0.84760  1.0000
  O   O17       1.0  0.20370  0.83100  0.84760  1.0000
  O   O18       1.0  0.16900  0.37270  0.84760  1.0000
  O   O19       1.0  0.50000  0.99140  0.36950  1.0000
  O   O20       1.0  0.00860  0.50860  0.36950  1.0000
  O   O21       1.0  0.49140  0.50000  0.36950  1.0000
  O   O22       1.0  0.50000  0.00860  0.63050  1.0000
  O   O23       1.0  0.99140  0.49140  0.63050  1.0000
  O   O24       1.0  0.50860  0.50000  0.63050  1.0000
  O   O25       1.0  0.45820  0.03380  0.16960  1.0000
  O   O26       1.0  0.96620  0.42440  0.16960  1.0000
  O   O27       1.0  0.57560  0.54180  0.16960  1.0000
  O   O28       1.0  0.54180  0.96620  0.83040  1.0000
  O   O29       1.0  0.03380  0.57560  0.83040  1.0000
  O   O30       1.0  0.42440  0.45820  0.83040  1.0000
  O   O31       1.0  0.28560  0.13210  0.65050  1.0000
  O   O32       1.0  0.86790  0.15350  0.65050  1.0000
  O   O33       1.0  0.84650  0.71440  0.65050  1.0000
  O   O34       1.0  0.71440  0.86790  0.34950  1.0000
  O   O35       1.0  0.13210  0.84650  0.34950  1.0000
  O   O36       1.0  0.15350  0.28560  0.34950  1.0000
  O   O37       1.0  0.45250  0.22100  0.69530  1.0000
  O   O38       1.0  0.77900  0.23150  0.69530  1.0000
  O   O39       1.0  0.76850  0.54750  0.69530  1.0000
  O   O40       1.0  0.54750  0.77900  0.30470  1.0000
  O   O41       1.0  0.22100  0.76850  0.30470  1.0000
  O   O42       1.0  0.23150  0.45250  0.30470  1.0000
  O   O43       1.0  0.61420  0.18880  0.90410  1.0000
  O   O44       1.0  0.81120  0.42540  0.90410  1.0000
  O   O45       1.0  0.57460  0.38580  0.90410  1.0000
  O   O46       1.0  0.38580  0.81120  0.09590  1.0000
  O   O47       1.0  0.18880  0.57460  0.09590  1.0000
  O   O48       1.0  0.42540  0.61420  0.09590  1.0000
  C   C1        1.0  0.45150  0.19220  0.37180  1.0000
  C   C2        1.0  0.80780  0.25930  0.37180  1.0000
  C   C3        1.0  0.74070  0.54850  0.37180  1.0000
  C   C4        1.0  0.54850  0.80780  0.62820  1.0000
  C   C5        1.0  0.19220  0.74070  0.62820  1.0000
  C   C6        1.0  0.25930  0.45150  0.62820  1.0000
  C   C7        1.0  0.45330  0.22960  0.21900  1.0000
  C   C8        1.0  0.77040  0.22370  0.21900  1.0000
  C   C9        1.0  0.77630  0.54670  0.21900  1.0000
  C   C10       1.0  0.54670  0.77040  0.78100  1.0000
  C   C11       1.0  0.22960  0.77630  0.78100  1.0000
  C   C12       1.0  0.22370  0.45330  0.78100  1.0000
  C   C13       1.0  0.39540  0.07290  0.37930  1.0000
  C   C14       1.0  0.92710  0.32250  0.37930  1.0000
  C   C15       1.0  0.67750  0.60460  0.37930  1.0000
  C   C16       1.0  0.60460  0.92710  0.62070  1.0000
  C   C17       1.0  0.07290  0.67750  0.62070  1.0000
  C   C18       1.0  0.32250  0.39540  0.62070  1.0000
  H   H1        1.0  0.38850  0.05130  0.47760  1.0000
  H   H2        1.0  0.94870  0.33720  0.47760  1.0000
  H   H3        1.0  0.66280  0.61150  0.47760  1.0000
  H   H4        1.0  0.61150  0.94870  0.52240  1.0000
  H   H5        1.0  0.05130  0.66280  0.52240  1.0000
  H   H6        1.0  0.33720  0.38850  0.52240  1.0000
  H   H7        1.0  0.32590  0.04420  0.33990  1.0000
  H   H8        1.0  0.95580  0.28170  0.33990  1.0000
  H   H9        1.0  0.71830  0.67410  0.33990  1.0000
  H   H10       1.0  0.67410  0.95580  0.66010  1.0000
  H   H11       1.0  0.04420  0.71830  0.66010  1.0000
  H   H12       1.0  0.28170  0.32590  0.66010  1.0000
  C   C19       1.0  0.45410  0.03030  0.29920  1.0000
  C   C20       1.0  0.96970  0.42380  0.29920  1.0000
  C   C21       1.0  0.57620  0.54590  0.29920  1.0000
  C   C22       1.0  0.54590  0.96970  0.70080  1.0000
  C   C23       1.0  0.03030  0.57620  0.70080  1.0000
  C   C24       1.0  0.42380  0.45410  0.70080  1.0000
  C   C25       1.0  0.39660  0.23540  0.46380  1.0000
  C   C26       1.0  0.76460  0.16120  0.46380  1.0000
  C   C27       1.0  0.83880  0.60340  0.46380  1.0000
  C   C28       1.0  0.60340  0.76460  0.53620  1.0000
  C   C29       1.0  0.23540  0.83880  0.53620  1.0000
  C   C30       1.0  0.16120  0.39660  0.53620  1.0000
  H   H13       1.0  0.43900  0.31090  0.46670  1.0000
  H   H14       1.0  0.68910  0.12810  0.46670  1.0000
  H   H15       1.0  0.87190  0.56100  0.46670  1.0000
  H   H16       1.0  0.56100  0.68910  0.53330  1.0000
  H   H17       1.0  0.31090  0.87190  0.53330  1.0000
  H   H18       1.0  0.12810  0.43900  0.53330  1.0000
  H   H19       1.0  0.33040  0.21790  0.42050  1.0000
  H   H20       1.0  0.78210  0.11250  0.42050  1.0000
  H   H21       1.0  0.88750  0.66960  0.42050  1.0000
  H   H22       1.0  0.66960  0.78210  0.57950  1.0000
  H   H23       1.0  0.21790  0.88750  0.57950  1.0000
  H   H24       1.0  0.11250  0.33040  0.57950  1.0000
  C   C31       1.0  0.37700  0.19340  0.61500  1.0000
  C   C32       1.0  0.80660  0.18360  0.61500  1.0000
  C   C33       1.0  0.81640  0.62300  0.61500  1.0000
  C   C34       1.0  0.62300  0.80660  0.38500  1.0000
  C   C35       1.0  0.19340  0.81640  0.38500  1.0000
  C   C36       1.0  0.18360  0.37700  0.38500  1.0000
  H   H25       1.0  0.50000  0.00000  0.50000  1.0000
  H   H26       1.0  0.00000  0.50000  0.50000  1.0000
  H   H27       1.0  0.50000  0.50000  0.50000  1.0000
  H   H28       1.0  0.63600  0.15000  0.86900  1.0000
  H   H29       1.0  0.85000  0.48600  0.86900  1.0000
  H   H30       1.0  0.51400  0.36400  0.86900  1.0000
  H   H31       1.0  0.36400  0.85000  0.13100  1.0000
  H   H32       1.0  0.15000  0.51400  0.13100  1.0000
  H   H33       1.0  0.48600  0.63600  0.13100  1.0000
  H   H34       1.0  0.63400  0.20200  0.99010  1.0000
  H   H35       1.0  0.79800  0.43200  0.99010  1.0000
  H   H36       1.0  0.56800  0.36600  0.99010  1.0000
  H   H37       1.0  0.36600  0.79800  0.00990  1.0000
  H   H38       1.0  0.20200  0.56800  0.00990  1.0000
  H   H39       1.0  0.43200  0.63400  0.00990  1.0000
