data_image0
_chemical_formula_structural       Mg15O72C54H18C18H18C36H18C18H18C18H18
_chemical_formula_sum              "Mg15 O72 C144 H90"
_cell_length_a       11.3427
_cell_length_b       11.3427
_cell_length_c       41.5662
_cell_angle_alpha    90
_cell_angle_beta     90
_cell_angle_gamma    120

_space_group_name_H-M_alt    "P 1"
_space_group_IT_number       1

loop_
  _space_group_symop_operation_xyz
  'x, y, z'

loop_
  _atom_site_type_symbol
  _atom_site_label
  _atom_site_symmetry_multiplicity
  _atom_site_fract_x
  _atom_site_fract_y
  _atom_site_fract_z
  _atom_site_occupancy
  Mg  Mg1       1.0  0.00000  0.00000  0.12817  1.0000
  Mg  Mg2       1.0  0.66667  0.33333  0.46150  1.0000
  Mg  Mg3       1.0  0.33333  0.66667  0.79484  1.0000
  Mg  Mg4       1.0  0.00000  0.00000  0.87183  1.0000
  Mg  Mg5       1.0  0.33333  0.66667  0.53850  1.0000
  Mg  Mg6       1.0  0.66667  0.33333  0.20516  1.0000
  Mg  Mg7       1.0  0.33330  0.16670  0.16670  1.0000
  Mg  Mg8       1.0  0.83330  0.16660  0.16670  1.0000
  Mg  Mg9       1.0  0.83340  0.66670  0.16670  1.0000
  Mg  Mg10      1.0  0.99997  0.50003  0.50003  1.0000
  Mg  Mg11      1.0  0.49997  0.49993  0.50003  1.0000
  Mg  Mg12      1.0  0.50007  0.00003  0.50003  1.0000
  Mg  Mg13      1.0  0.66663  0.83337  0.83337  1.0000
  Mg  Mg14      1.0  0.16663  0.83327  0.83337  1.0000
  Mg  Mg15      1.0  0.16673  0.33337  0.83337  1.0000
  O   O1        1.0  0.14996  0.14172  0.09903  1.0000
  O   O2        1.0  0.85828  0.00824  0.09903  1.0000
  O   O3        1.0  0.99176  0.85004  0.09903  1.0000
  O   O4        1.0  0.81663  0.47505  0.43236  1.0000
  O   O5        1.0  0.52495  0.34157  0.43236  1.0000
  O   O6        1.0  0.65843  0.18337  0.43236  1.0000
  O   O7        1.0  0.48329  0.80839  0.76570  1.0000
  O   O8        1.0  0.19161  0.67491  0.76570  1.0000
  O   O9        1.0  0.32509  0.51671  0.76570  1.0000
  O   O10       1.0  0.85004  0.85828  0.90097  1.0000
  O   O11       1.0  0.14172  0.99176  0.90097  1.0000
  O   O12       1.0  0.00824  0.14996  0.90097  1.0000
  O   O13       1.0  0.18337  0.52495  0.56764  1.0000
  O   O14       1.0  0.47505  0.65843  0.56764  1.0000
  O   O15       1.0  0.34157  0.81663  0.56764  1.0000
  O   O16       1.0  0.51671  0.19161  0.23430  1.0000
  O   O17       1.0  0.80839  0.32509  0.23430  1.0000
  O   O18       1.0  0.67491  0.48329  0.23430  1.0000
  O   O19       1.0  0.35563  0.20351  0.11866  1.0000
  O   O20       1.0  0.79649  0.15212  0.11866  1.0000
  O   O21       1.0  0.84788  0.64437  0.11866  1.0000
  O   O22       1.0  0.02230  0.53684  0.45199  1.0000
  O   O23       1.0  0.46316  0.48545  0.45199  1.0000
  O   O24       1.0  0.51455  0.97770  0.45199  1.0000
  O   O25       1.0  0.68896  0.87018  0.78533  1.0000
  O   O26       1.0  0.12982  0.81879  0.78533  1.0000
  O   O27       1.0  0.18121  0.31104  0.78533  1.0000
  O   O28       1.0  0.64437  0.79649  0.88134  1.0000
  O   O29       1.0  0.20351  0.84788  0.88134  1.0000
  O   O30       1.0  0.15212  0.35563  0.88134  1.0000
  O   O31       1.0  0.97770  0.46316  0.54801  1.0000
  O   O32       1.0  0.53684  0.51455  0.54801  1.0000
  O   O33       1.0  0.48545  0.02230  0.54801  1.0000
  O   O34       1.0  0.31104  0.12982  0.21467  1.0000
  O   O35       1.0  0.87018  0.18121  0.21467  1.0000
  O   O36       1.0  0.81879  0.68896  0.21467  1.0000
  O   O37       1.0  0.14374  0.98533  0.15907  1.0000
  O   O38       1.0  0.01467  0.15841  0.15907  1.0000
  O   O39       1.0  0.84159  0.85626  0.15907  1.0000
  O   O40       1.0  0.81041  0.31866  0.49240  1.0000
  O   O41       1.0  0.68134  0.49174  0.49240  1.0000
  O   O42       1.0  0.50826  0.18959  0.49240  1.0000
  O   O43       1.0  0.47707  0.65200  0.82574  1.0000
  O   O44       1.0  0.34800  0.82508  0.82574  1.0000
  O   O45       1.0  0.17492  0.52293  0.82574  1.0000
  O   O46       1.0  0.85626  0.01467  0.84093  1.0000
  O   O47       1.0  0.98533  0.84159  0.84093  1.0000
  O   O48       1.0  0.15841  0.14374  0.84093  1.0000
  O   O49       1.0  0.18959  0.68134  0.50760  1.0000
  O   O50       1.0  0.31866  0.50826  0.50760  1.0000
  O   O51       1.0  0.49174  0.81041  0.50760  1.0000
  O   O52       1.0  0.52293  0.34800  0.17426  1.0000
  O   O53       1.0  0.65200  0.17492  0.17426  1.0000
  O   O54       1.0  0.82508  0.47707  0.17426  1.0000
  O   O55       1.0  0.03971  0.76530  0.17228  1.0000
  O   O56       1.0  0.23470  0.27441  0.17228  1.0000
  O   O57       1.0  0.72559  0.96029  0.17228  1.0000
  O   O58       1.0  0.70638  0.09863  0.50561  1.0000
  O   O59       1.0  0.90137  0.60774  0.50561  1.0000
  O   O60       1.0  0.39226  0.29362  0.50561  1.0000
  O   O61       1.0  0.37304  0.43197  0.83895  1.0000
  O   O62       1.0  0.56803  0.94108  0.83895  1.0000
  O   O63       1.0  0.05892  0.62696  0.83895  1.0000
  O   O64       1.0  0.96029  0.23470  0.82772  1.0000
  O   O65       1.0  0.76530  0.72559  0.82772  1.0000
  O   O66       1.0  0.27441  0.03971  0.82772  1.0000
  O   O67       1.0  0.29362  0.90137  0.49439  1.0000
  O   O68       1.0  0.09863  0.39226  0.49439  1.0000
  O   O69       1.0  0.60774  0.70638  0.49439  1.0000
  O   O70       1.0  0.62696  0.56803  0.16105  1.0000
  O   O71       1.0  0.43197  0.05892  0.16105  1.0000
  O   O72       1.0  0.94108  0.37304  0.16105  1.0000
  C   C1        1.0  0.27659  0.20268  0.09757  1.0000
  C   C2        1.0  0.79732  0.07391  0.09757  1.0000
  C   C3        1.0  0.92609  0.72341  0.09757  1.0000
  C   C4        1.0  0.94326  0.53601  0.43090  1.0000
  C   C5        1.0  0.46399  0.40724  0.43090  1.0000
  C   C6        1.0  0.59276  0.05674  0.43090  1.0000
  C   C7        1.0  0.60992  0.86935  0.76424  1.0000
  C   C8        1.0  0.13065  0.74058  0.76424  1.0000
  C   C9        1.0  0.25942  0.39008  0.76424  1.0000
  C   C10       1.0  0.72341  0.79732  0.90243  1.0000
  C   C11       1.0  0.20268  0.92609  0.90243  1.0000
  C   C12       1.0  0.07391  0.27659  0.90243  1.0000
  C   C13       1.0  0.05674  0.46399  0.56910  1.0000
  C   C14       1.0  0.53601  0.59276  0.56910  1.0000
  C   C15       1.0  0.40724  0.94326  0.56910  1.0000
  C   C16       1.0  0.39008  0.13065  0.23576  1.0000
  C   C17       1.0  0.86935  0.25942  0.23576  1.0000
  C   C18       1.0  0.74058  0.60992  0.23576  1.0000
  C   C19       1.0  0.34240  0.28640  0.06769  1.0000
  C   C20       1.0  0.71360  0.05600  0.06769  1.0000
  C   C21       1.0  0.94400  0.65760  0.06769  1.0000
  C   C22       1.0  0.00907  0.61973  0.40102  1.0000
  C   C23       1.0  0.38027  0.38933  0.40102  1.0000
  C   C24       1.0  0.61067  0.99093  0.40102  1.0000
  C   C25       1.0  0.67573  0.95307  0.73436  1.0000
  C   C26       1.0  0.04693  0.72267  0.73436  1.0000
  C   C27       1.0  0.27733  0.32427  0.73436  1.0000
  C   C28       1.0  0.65760  0.71360  0.93231  1.0000
  C   C29       1.0  0.28640  0.94400  0.93231  1.0000
  C   C30       1.0  0.05600  0.34240  0.93231  1.0000
  C   C31       1.0  0.99093  0.38027  0.59898  1.0000
  C   C32       1.0  0.61973  0.61067  0.59898  1.0000
  C   C33       1.0  0.38933  0.00907  0.59898  1.0000
  C   C34       1.0  0.32427  0.04693  0.26564  1.0000
  C   C35       1.0  0.95307  0.27733  0.26564  1.0000
  C   C36       1.0  0.72267  0.67573  0.26564  1.0000
  C   C37       1.0  0.26660  0.28260  0.04158  1.0000
  C   C38       1.0  0.71740  0.98400  0.04158  1.0000
  C   C39       1.0  0.01600  0.73340  0.04158  1.0000
  C   C40       1.0  0.93327  0.61593  0.37491  1.0000
  C   C41       1.0  0.38407  0.31733  0.37491  1.0000
  C   C42       1.0  0.68267  0.06673  0.37491  1.0000
  C   C43       1.0  0.59993  0.94927  0.70825  1.0000
  C   C44       1.0  0.05073  0.65067  0.70825  1.0000
  C   C45       1.0  0.34933  0.40007  0.70825  1.0000
  C   C46       1.0  0.73340  0.71740  0.95842  1.0000
  C   C47       1.0  0.28260  0.01600  0.95842  1.0000
  C   C48       1.0  0.98400  0.26660  0.95842  1.0000
  C   C49       1.0  0.06673  0.38407  0.62509  1.0000
  C   C50       1.0  0.61593  0.68267  0.62509  1.0000
  C   C51       1.0  0.31733  0.93327  0.62509  1.0000
  C   C52       1.0  0.40007  0.05073  0.29175  1.0000
  C   C53       1.0  0.94927  0.34933  0.29175  1.0000
  C   C54       1.0  0.65067  0.59993  0.29175  1.0000
  H   H1        1.0  0.17290  0.22420  0.04160  1.0000
  H   H2        1.0  0.77580  0.94870  0.04160  1.0000
  H   H3        1.0  0.05130  0.82710  0.04160  1.0000
  H   H4        1.0  0.83957  0.55753  0.37493  1.0000
  H   H5        1.0  0.44247  0.28203  0.37493  1.0000
  H   H6        1.0  0.71797  0.16043  0.37493  1.0000
  H   H7        1.0  0.50623  0.89087  0.70827  1.0000
  H   H8        1.0  0.10913  0.61537  0.70827  1.0000
  H   H9        1.0  0.38463  0.49377  0.70827  1.0000
  H   H10       1.0  0.82710  0.77580  0.95840  1.0000
  H   H11       1.0  0.22420  0.05130  0.95840  1.0000
  H   H12       1.0  0.94870  0.17290  0.95840  1.0000
  H   H13       1.0  0.16043  0.44247  0.62507  1.0000
  H   H14       1.0  0.55753  0.71797  0.62507  1.0000
  H   H15       1.0  0.28203  0.83957  0.62507  1.0000
  H   H16       1.0  0.49377  0.10913  0.29173  1.0000
  H   H17       1.0  0.89087  0.38463  0.29173  1.0000
  H   H18       1.0  0.61537  0.50623  0.29173  1.0000
  C   C55       1.0  0.32860  0.36500  0.01507  1.0000
  C   C56       1.0  0.63500  0.96360  0.01507  1.0000
  C   C57       1.0  0.03640  0.67140  0.01507  1.0000
  C   C58       1.0  0.99527  0.69833  0.34840  1.0000
  C   C59       1.0  0.30167  0.29693  0.34840  1.0000
  C   C60       1.0  0.70307  0.00473  0.34840  1.0000
  C   C61       1.0  0.66193  0.03167  0.68174  1.0000
  C   C62       1.0  0.96833  0.63027  0.68174  1.0000
  C   C63       1.0  0.36973  0.33807  0.68174  1.0000
  C   C64       1.0  0.67140  0.63500  0.98493  1.0000
  C   C65       1.0  0.36500  0.03640  0.98493  1.0000
  C   C66       1.0  0.96360  0.32860  0.98493  1.0000
  C   C67       1.0  0.00473  0.30167  0.65160  1.0000
  C   C68       1.0  0.69833  0.70307  0.65160  1.0000
  C   C69       1.0  0.29693  0.99527  0.65160  1.0000
  C   C70       1.0  0.33807  0.96833  0.31826  1.0000
  C   C71       1.0  0.03167  0.36973  0.31826  1.0000
  C   C72       1.0  0.63027  0.66193  0.31826  1.0000
  H   H19       1.0  0.27540  0.36040  0.99760  1.0000
  H   H20       1.0  0.63960  0.91500  0.99760  1.0000
  H   H21       1.0  0.08500  0.72460  0.99760  1.0000
  H   H22       1.0  0.94207  0.69373  0.33093  1.0000
  H   H23       1.0  0.30627  0.24833  0.33093  1.0000
  H   H24       1.0  0.75167  0.05793  0.33093  1.0000
  H   H25       1.0  0.60873  0.02707  0.66427  1.0000
  H   H26       1.0  0.97293  0.58167  0.66427  1.0000
  H   H27       1.0  0.41833  0.39127  0.66427  1.0000
  H   H28       1.0  0.72460  0.63960  0.00240  1.0000
  H   H29       1.0  0.36040  0.08500  0.00240  1.0000
  H   H30       1.0  0.91500  0.27540  0.00240  1.0000
  H   H31       1.0  0.05793  0.30627  0.66907  1.0000
  H   H32       1.0  0.69373  0.75167  0.66907  1.0000
  H   H33       1.0  0.24833  0.94207  0.66907  1.0000
  H   H34       1.0  0.39127  0.97293  0.33573  1.0000
  H   H35       1.0  0.02707  0.41833  0.33573  1.0000
  H   H36       1.0  0.58167  0.60873  0.33573  1.0000
  C   C73       1.0  0.46690  0.45360  0.01406  1.0000
  C   C74       1.0  0.54640  0.01330  0.01406  1.0000
  C   C75       1.0  0.98670  0.53310  0.01406  1.0000
  C   C76       1.0  0.13357  0.78693  0.34739  1.0000
  C   C77       1.0  0.21307  0.34663  0.34739  1.0000
  C   C78       1.0  0.65337  0.86643  0.34739  1.0000
  C   C79       1.0  0.80023  0.12027  0.68073  1.0000
  C   C80       1.0  0.87973  0.67997  0.68073  1.0000
  C   C81       1.0  0.32003  0.19977  0.68073  1.0000
  C   C82       1.0  0.53310  0.54640  0.98594  1.0000
  C   C83       1.0  0.45360  0.98670  0.98594  1.0000
  C   C84       1.0  0.01330  0.46690  0.98594  1.0000
  C   C85       1.0  0.86643  0.21307  0.65261  1.0000
  C   C86       1.0  0.78693  0.65337  0.65261  1.0000
  C   C87       1.0  0.34663  0.13357  0.65261  1.0000
  C   C88       1.0  0.19977  0.87973  0.31927  1.0000
  C   C89       1.0  0.12027  0.32003  0.31927  1.0000
  C   C90       1.0  0.67997  0.80023  0.31927  1.0000
  C   C91       1.0  0.54270  0.45490  0.04021  1.0000
  C   C92       1.0  0.54510  0.08780  0.04021  1.0000
  C   C93       1.0  0.91220  0.45730  0.04021  1.0000
  C   C94       1.0  0.20937  0.78823  0.37354  1.0000
  C   C95       1.0  0.21177  0.42113  0.37354  1.0000
  C   C96       1.0  0.57887  0.79063  0.37354  1.0000
  C   C97       1.0  0.87603  0.12157  0.70688  1.0000
  C   C98       1.0  0.87843  0.75447  0.70688  1.0000
  C   C99       1.0  0.24553  0.12397  0.70688  1.0000
  C   C100      1.0  0.45730  0.54510  0.95979  1.0000
  C   C101      1.0  0.45490  0.91220  0.95979  1.0000
  C   C102      1.0  0.08780  0.54270  0.95979  1.0000
  C   C103      1.0  0.79063  0.21177  0.62646  1.0000
  C   C104      1.0  0.78823  0.57887  0.62646  1.0000
  C   C105      1.0  0.42113  0.20937  0.62646  1.0000
  C   C106      1.0  0.12397  0.87843  0.29312  1.0000
  C   C107      1.0  0.12157  0.24553  0.29312  1.0000
  C   C108      1.0  0.75447  0.87603  0.29312  1.0000
  H   H37       1.0  0.63650  0.51280  0.04010  1.0000
  H   H38       1.0  0.48720  0.12370  0.04010  1.0000
  H   H39       1.0  0.87630  0.36350  0.04010  1.0000
  H   H40       1.0  0.30317  0.84613  0.37343  1.0000
  H   H41       1.0  0.15387  0.45703  0.37343  1.0000
  H   H42       1.0  0.54297  0.69683  0.37343  1.0000
  H   H43       1.0  0.96983  0.17947  0.70677  1.0000
  H   H44       1.0  0.82053  0.79037  0.70677  1.0000
  H   H45       1.0  0.20963  0.03017  0.70677  1.0000
  H   H46       1.0  0.36350  0.48720  0.95990  1.0000
  H   H47       1.0  0.51280  0.87630  0.95990  1.0000
  H   H48       1.0  0.12370  0.63650  0.95990  1.0000
  H   H49       1.0  0.69683  0.15387  0.62657  1.0000
  H   H50       1.0  0.84613  0.54297  0.62657  1.0000
  H   H51       1.0  0.45703  0.30317  0.62657  1.0000
  H   H52       1.0  0.03017  0.82053  0.29323  1.0000
  H   H53       1.0  0.17947  0.20963  0.29323  1.0000
  H   H54       1.0  0.79037  0.96983  0.29323  1.0000
  C   C109      1.0  0.48160  0.37150  0.06662  1.0000
  C   C110      1.0  0.62850  0.11010  0.06662  1.0000
  C   C111      1.0  0.88990  0.51840  0.06662  1.0000
  C   C112      1.0  0.14827  0.70483  0.39995  1.0000
  C   C113      1.0  0.29517  0.44343  0.39995  1.0000
  C   C114      1.0  0.55657  0.85173  0.39995  1.0000
  C   C115      1.0  0.81493  0.03817  0.73329  1.0000
  C   C116      1.0  0.96183  0.77677  0.73329  1.0000
  C   C117      1.0  0.22323  0.18507  0.73329  1.0000
  C   C118      1.0  0.51840  0.62850  0.93338  1.0000
  C   C119      1.0  0.37150  0.88990  0.93338  1.0000
  C   C120      1.0  0.11010  0.48160  0.93338  1.0000
  C   C121      1.0  0.85173  0.29517  0.60005  1.0000
  C   C122      1.0  0.70483  0.55657  0.60005  1.0000
  C   C123      1.0  0.44343  0.14827  0.60005  1.0000
  C   C124      1.0  0.18507  0.96183  0.26671  1.0000
  C   C125      1.0  0.03817  0.22323  0.26671  1.0000
  C   C126      1.0  0.77677  0.81493  0.26671  1.0000
  H   H55       1.0  0.53500  0.37300  0.08380  1.0000
  H   H56       1.0  0.62700  0.16200  0.08380  1.0000
  H   H57       1.0  0.83800  0.46500  0.08380  1.0000
  H   H58       1.0  0.20167  0.70633  0.41713  1.0000
  H   H59       1.0  0.29367  0.49533  0.41713  1.0000
  H   H60       1.0  0.50467  0.79833  0.41713  1.0000
  H   H61       1.0  0.86833  0.03967  0.75047  1.0000
  H   H62       1.0  0.96033  0.82867  0.75047  1.0000
  H   H63       1.0  0.17133  0.13167  0.75047  1.0000
  H   H64       1.0  0.46500  0.62700  0.91620  1.0000
  H   H65       1.0  0.37300  0.83800  0.91620  1.0000
  H   H66       1.0  0.16200  0.53500  0.91620  1.0000
  H   H67       1.0  0.79833  0.29367  0.58287  1.0000
  H   H68       1.0  0.70633  0.50467  0.58287  1.0000
  H   H69       1.0  0.49533  0.20167  0.58287  1.0000
  H   H70       1.0  0.13167  0.96033  0.24953  1.0000
  H   H71       1.0  0.03967  0.17133  0.24953  1.0000
  H   H72       1.0  0.82867  0.86833  0.24953  1.0000
  C   C127      1.0  0.13496  0.88261  0.17270  1.0000
  C   C128      1.0  0.11739  0.25235  0.17270  1.0000
  C   C129      1.0  0.74765  0.86504  0.17270  1.0000
  C   C130      1.0  0.80163  0.21594  0.50603  1.0000
  C   C131      1.0  0.78406  0.58568  0.50603  1.0000
  C   C132      1.0  0.41432  0.19837  0.50603  1.0000
  C   C133      1.0  0.46829  0.54928  0.83937  1.0000
  C   C134      1.0  0.45072  0.91902  0.83937  1.0000
  C   C135      1.0  0.08098  0.53171  0.83937  1.0000
  C   C136      1.0  0.86504  0.11739  0.82730  1.0000
  C   C137      1.0  0.88261  0.74765  0.82730  1.0000
  C   C138      1.0  0.25235  0.13496  0.82730  1.0000
  C   C139      1.0  0.19837  0.78406  0.49397  1.0000
  C   C140      1.0  0.21594  0.41432  0.49397  1.0000
  C   C141      1.0  0.58568  0.80163  0.49397  1.0000
  C   C142      1.0  0.53171  0.45072  0.16063  1.0000
  C   C143      1.0  0.54928  0.08098  0.16063  1.0000
  C   C144      1.0  0.91902  0.46829  0.16063  1.0000
  H   H73       1.0  0.21050  0.89740  0.18470  1.0000
  H   H74       1.0  0.10260  0.31310  0.18470  1.0000
  H   H75       1.0  0.68690  0.78950  0.18470  1.0000
  H   H76       1.0  0.87717  0.23073  0.51803  1.0000
  H   H77       1.0  0.76927  0.64643  0.51803  1.0000
  H   H78       1.0  0.35357  0.12283  0.51803  1.0000
  H   H79       1.0  0.54383  0.56407  0.85137  1.0000
  H   H80       1.0  0.43593  0.97977  0.85137  1.0000
  H   H81       1.0  0.02023  0.45617  0.85137  1.0000
  H   H82       1.0  0.78950  0.10260  0.81530  1.0000
  H   H83       1.0  0.89740  0.68690  0.81530  1.0000
  H   H84       1.0  0.31310  0.21050  0.81530  1.0000
  H   H85       1.0  0.12283  0.76927  0.48197  1.0000
  H   H86       1.0  0.23073  0.35357  0.48197  1.0000
  H   H87       1.0  0.64643  0.87717  0.48197  1.0000
  H   H88       1.0  0.45617  0.43593  0.14863  1.0000
  H   H89       1.0  0.56407  0.02023  0.14863  1.0000
  H   H90       1.0  0.97977  0.54383  0.14863  1.0000
