data_image0
_chemical_formula_structural       Cd2N4O16C4H4C4H4C4H4C16
_chemical_formula_sum              "Cd2 N4 O16 C28 H12"
_cell_length_a       7.1083
_cell_length_b       11.8447
_cell_length_c       11.1323
_cell_angle_alpha    90
_cell_angle_beta     101.828
_cell_angle_gamma    90

_space_group_name_H-M_alt    "P 1"
_space_group_IT_number       1

loop_
  _space_group_symop_operation_xyz
  'x, y, z'

loop_
  _atom_site_type_symbol
  _atom_site_label
  _atom_site_symmetry_multiplicity
  _atom_site_fract_x
  _atom_site_fract_y
  _atom_site_fract_z
  _atom_site_occupancy
  Cd  Cd1       1.0  0.00000  0.00000  0.50000  1.0000
  Cd  Cd2       1.0  0.50000  0.50000  0.00000  1.0000
  N   N1        1.0  0.26195  0.10081  0.59085  1.0000
  N   N2        1.0  0.23805  0.60081  0.90915  1.0000
  N   N3        1.0  0.73805  0.89919  0.40915  1.0000
  N   N4        1.0  0.76195  0.39919  0.09085  1.0000
  O   O1        1.0  0.10019  0.10919  0.87081  1.0000
  O   O2        1.0  0.39981  0.60919  0.62919  1.0000
  O   O3        1.0  0.89981  0.89081  0.12919  1.0000
  O   O4        1.0  0.60019  0.39081  0.37081  1.0000
  O   O5        1.0  0.95976  0.03864  0.69108  1.0000
  O   O6        1.0  0.54024  0.53864  0.80892  1.0000
  O   O7        1.0  0.04024  0.96136  0.30892  1.0000
  O   O8        1.0  0.45976  0.46136  0.19108  1.0000
  O   O9        1.0  0.33151  0.33794  0.90996  1.0000
  O   O10       1.0  0.16849  0.83794  0.59004  1.0000
  O   O11       1.0  0.66849  0.66206  0.09004  1.0000
  O   O12       1.0  0.83151  0.16206  0.40996  1.0000
  O   O13       1.0  0.50898  0.18960  0.98553  1.0000
  O   O14       1.0  0.99102  0.68960  0.51447  1.0000
  O   O15       1.0  0.49102  0.81040  0.01447  1.0000
  O   O16       1.0  0.00898  0.31040  0.48553  1.0000
  C   C1        1.0  0.40280  0.13553  0.53720  1.0000
  C   C2        1.0  0.09720  0.63553  0.96280  1.0000
  C   C3        1.0  0.59720  0.86447  0.46280  1.0000
  C   C4        1.0  0.90280  0.36447  0.03720  1.0000
  H   H1        1.0  0.40260  0.11210  0.45740  1.0000
  H   H2        1.0  0.09740  0.61210  0.04260  1.0000
  H   H3        1.0  0.59740  0.88790  0.54260  1.0000
  H   H4        1.0  0.90260  0.38790  0.95740  1.0000
  C   C5        1.0  0.54900  0.20492  0.59561  1.0000
  C   C6        1.0  0.95100  0.70492  0.90439  1.0000
  C   C7        1.0  0.45100  0.79508  0.40439  1.0000
  C   C8        1.0  0.04900  0.29508  0.09561  1.0000
  H   H5        1.0  0.64600  0.22790  0.55640  1.0000
  H   H6        1.0  0.85400  0.72790  0.94360  1.0000
  H   H7        1.0  0.35400  0.77210  0.44360  1.0000
  H   H8        1.0  0.14600  0.27210  0.05640  1.0000
  C   C9        1.0  0.54740  0.23923  0.71361  1.0000
  C   C10       1.0  0.95260  0.73923  0.78639  1.0000
  C   C11       1.0  0.45260  0.76077  0.28639  1.0000
  C   C12       1.0  0.04740  0.26077  0.21361  1.0000
  H   H9        1.0  0.64350  0.28670  0.75480  1.0000
  H   H10       1.0  0.85650  0.78670  0.74520  1.0000
  H   H11       1.0  0.35650  0.71330  0.24520  1.0000
  H   H12       1.0  0.14350  0.21330  0.25480  1.0000
  C   C13       1.0  0.40180  0.20280  0.77114  1.0000
  C   C14       1.0  0.09820  0.70280  0.72886  1.0000
  C   C15       1.0  0.59820  0.79720  0.22886  1.0000
  C   C16       1.0  0.90180  0.29720  0.27114  1.0000
  C   C17       1.0  0.26014  0.13297  0.70638  1.0000
  C   C18       1.0  0.23986  0.63297  0.79362  1.0000
  C   C19       1.0  0.73986  0.86703  0.29362  1.0000
  C   C20       1.0  0.76014  0.36703  0.20638  1.0000
  C   C21       1.0  0.09340  0.08981  0.75997  1.0000
  C   C22       1.0  0.40660  0.58981  0.74003  1.0000
  C   C23       1.0  0.90660  0.91019  0.24003  1.0000
  C   C24       1.0  0.59340  0.41019  0.25997  1.0000
  C   C25       1.0  0.41110  0.24505  0.90044  1.0000
  C   C26       1.0  0.08890  0.74505  0.59956  1.0000
  C   C27       1.0  0.58890  0.75495  0.09956  1.0000
  C   C28       1.0  0.91110  0.25495  0.40044  1.0000
