data_image0
_chemical_formula_structural       Co2O4C12O4Co4O4C12O4Co2O12C4O8C8O12C4O8C8O16H72
_chemical_formula_sum              "Co8 O72 C48 H72"
_cell_length_a       15.2597
_cell_length_b       23.4134
_cell_length_c       16.9043
_cell_angle_alpha    90
_cell_angle_beta     101.739
_cell_angle_gamma    90

_space_group_name_H-M_alt    "P 1"
_space_group_IT_number       1

loop_
  _space_group_symop_operation_xyz
  'x, y, z'

loop_
  _atom_site_type_symbol
  _atom_site_label
  _atom_site_symmetry_multiplicity
  _atom_site_fract_x
  _atom_site_fract_y
  _atom_site_fract_z
  _atom_site_occupancy
  Co  Co1       1.0  0.50000  0.00000  0.50000  1.0000
  Co  Co2       1.0  0.00000  0.50000  0.00000  1.0000
  O   O1        1.0  0.63156  0.97493  0.52597  1.0000
  O   O2        1.0  0.86844  0.47493  0.97403  1.0000
  O   O3        1.0  0.36844  0.02507  0.47403  1.0000
  O   O4        1.0  0.13156  0.52507  0.02597  1.0000
  C   C1        1.0  0.68430  0.96579  0.47710  1.0000
  C   C2        1.0  0.81570  0.46579  0.02290  1.0000
  C   C3        1.0  0.31570  0.03421  0.52290  1.0000
  C   C4        1.0  0.18430  0.53421  0.97710  1.0000
  C   C5        1.0  0.78390  0.95920  0.51520  1.0000
  C   C6        1.0  0.71610  0.45920  0.98480  1.0000
  C   C7        1.0  0.21610  0.04080  0.48480  1.0000
  C   C8        1.0  0.28390  0.54080  0.01520  1.0000
  C   C9        1.0  0.80660  0.97569  0.60510  1.0000
  C   C10       1.0  0.69340  0.47569  0.89490  1.0000
  C   C11       1.0  0.19340  0.02431  0.39490  1.0000
  C   C12       1.0  0.30660  0.52431  0.10510  1.0000
  O   O5        1.0  0.75279  0.94125  0.64808  1.0000
  O   O6        1.0  0.74721  0.44125  0.85192  1.0000
  O   O7        1.0  0.24721  0.05875  0.35192  1.0000
  O   O8        1.0  0.25279  0.55875  0.14808  1.0000
  Co  Co3       1.0  0.74558  0.99025  0.75209  1.0000
  Co  Co4       1.0  0.75442  0.49025  0.74791  1.0000
  Co  Co5       1.0  0.25442  0.00975  0.24791  1.0000
  Co  Co6       1.0  0.24558  0.50975  0.25209  1.0000
  O   O9        1.0  0.76054  0.92446  0.83972  1.0000
  O   O10       1.0  0.73946  0.42446  0.66028  1.0000
  O   O11       1.0  0.23946  0.07554  0.16028  1.0000
  O   O12       1.0  0.26054  0.57554  0.33972  1.0000
  C   C13       1.0  0.70370  0.94117  0.89540  1.0000
  C   C14       1.0  0.79630  0.44117  0.60460  1.0000
  C   C15       1.0  0.29630  0.05883  0.10460  1.0000
  C   C16       1.0  0.20370  0.55883  0.39540  1.0000
  C   C17       1.0  0.73980  0.91278  0.97750  1.0000
  C   C18       1.0  0.76020  0.41278  0.52250  1.0000
  C   C19       1.0  0.26020  0.08722  0.02250  1.0000
  C   C20       1.0  0.23980  0.58722  0.47750  1.0000
  C   C21       1.0  0.83700  0.92790  0.01380  1.0000
  C   C22       1.0  0.66300  0.42790  0.48620  1.0000
  C   C23       1.0  0.16300  0.07210  0.98620  1.0000
  C   C24       1.0  0.33700  0.57210  0.51380  1.0000
  O   O13       1.0  0.87973  0.95455  0.96715  1.0000
  O   O14       1.0  0.62027  0.45455  0.53285  1.0000
  O   O15       1.0  0.12027  0.04545  0.03285  1.0000
  O   O16       1.0  0.37973  0.54545  0.46715  1.0000
  Co  Co7       1.0  1.00000  0.00000  0.00000  1.0000
  Co  Co8       1.0  0.50000  0.50000  0.50000  1.0000
  O   O17       1.0  0.95614  0.05711  0.90064  1.0000
  O   O18       1.0  0.54386  0.55711  0.59936  1.0000
  O   O19       1.0  0.04386  0.94289  0.09936  1.0000
  O   O20       1.0  0.45614  0.44289  0.40064  1.0000
  O   O21       1.0  0.05880  0.95142  0.92383  1.0000
  O   O22       1.0  0.44120  0.45142  0.57617  1.0000
  O   O23       1.0  0.94120  0.04858  0.07617  1.0000
  O   O24       1.0  0.55880  0.54858  0.42383  1.0000
  O   O25       1.0  0.86955  0.91230  0.08365  1.0000
  O   O26       1.0  0.63045  0.41230  0.41635  1.0000
  O   O27       1.0  0.13045  0.08770  0.91635  1.0000
  O   O28       1.0  0.36955  0.58770  0.58365  1.0000
  C   C25       1.0  0.70540  0.00682  0.90560  1.0000
  C   C26       1.0  0.79460  0.50682  0.59440  1.0000
  C   C27       1.0  0.29460  0.99318  0.09440  1.0000
  C   C28       1.0  0.20540  0.49318  0.40560  1.0000
  O   O29       1.0  0.73230  0.03613  0.85072  1.0000
  O   O30       1.0  0.76770  0.53613  0.64928  1.0000
  O   O31       1.0  0.26770  0.96387  0.14928  1.0000
  O   O32       1.0  0.23230  0.46387  0.35072  1.0000
  O   O33       1.0  0.68149  0.02713  0.96525  1.0000
  O   O34       1.0  0.81851  0.52713  0.53475  1.0000
  O   O35       1.0  0.31851  0.97287  0.03475  1.0000
  O   O36       1.0  0.18149  0.47287  0.46525  1.0000
  C   C29       1.0  0.60940  0.91958  0.85650  1.0000
  C   C30       1.0  0.89060  0.41958  0.64350  1.0000
  C   C31       1.0  0.39060  0.08042  0.14350  1.0000
  C   C32       1.0  0.10940  0.58042  0.35650  1.0000
  C   C33       1.0  0.57340  0.93021  0.76600  1.0000
  C   C34       1.0  0.92660  0.43021  0.73400  1.0000
  C   C35       1.0  0.42660  0.06979  0.23400  1.0000
  C   C36       1.0  0.07340  0.56979  0.26600  1.0000
  O   O37       1.0  0.61188  0.96864  0.73032  1.0000
  O   O38       1.0  0.88812  0.46864  0.76968  1.0000
  O   O39       1.0  0.38812  0.03136  0.26968  1.0000
  O   O40       1.0  0.11188  0.53136  0.23032  1.0000
  O   O41       1.0  0.50790  0.90287  0.73216  1.0000
  O   O42       1.0  0.99210  0.40287  0.76784  1.0000
  O   O43       1.0  0.49210  0.09713  0.26784  1.0000
  O   O44       1.0  0.00790  0.59713  0.23216  1.0000
  O   O45       1.0  0.74511  0.05344  0.66954  1.0000
  O   O46       1.0  0.75489  0.55344  0.83046  1.0000
  O   O47       1.0  0.25489  0.94656  0.33046  1.0000
  O   O48       1.0  0.24511  0.44656  0.16954  1.0000
  C   C37       1.0  0.78780  0.03989  0.61490  1.0000
  C   C38       1.0  0.71220  0.53989  0.88510  1.0000
  C   C39       1.0  0.21220  0.96011  0.38510  1.0000
  C   C40       1.0  0.28780  0.46011  0.11490  1.0000
  O   O49       1.0  0.81380  0.07382  0.56873  1.0000
  O   O50       1.0  0.68620  0.57382  0.93127  1.0000
  O   O51       1.0  0.18620  0.92618  0.43127  1.0000
  O   O52       1.0  0.31380  0.42618  0.06873  1.0000
  O   O53       1.0  0.88425  0.98910  0.77323  1.0000
  O   O54       1.0  0.61575  0.48910  0.72677  1.0000
  O   O55       1.0  0.11575  0.01090  0.22677  1.0000
  O   O56       1.0  0.38425  0.51090  0.27323  1.0000
  C   C41       1.0  0.93120  0.96057  0.73250  1.0000
  C   C42       1.0  0.56880  0.46057  0.76750  1.0000
  C   C43       1.0  0.06880  0.03943  0.26750  1.0000
  C   C44       1.0  0.43120  0.53943  0.23250  1.0000
  C   C45       1.0  0.90350  0.96000  0.64060  1.0000
  C   C46       1.0  0.59650  0.46000  0.85940  1.0000
  C   C47       1.0  0.09650  0.04000  0.35940  1.0000
  C   C48       1.0  0.40350  0.54000  0.14060  1.0000
  O   O57       1.0  0.99983  0.93393  0.76339  1.0000
  O   O58       1.0  0.50017  0.43393  0.73661  1.0000
  O   O59       1.0  0.00017  0.06607  0.23661  1.0000
  O   O60       1.0  0.49983  0.56607  0.26339  1.0000
  O   O61       1.0  0.66066  0.96035  0.40228  1.0000
  O   O62       1.0  0.83934  0.46035  0.09772  1.0000
  O   O63       1.0  0.33934  0.03965  0.59772  1.0000
  O   O64       1.0  0.16066  0.53965  0.90228  1.0000
  O   O65       1.0  0.51717  0.04098  0.61547  1.0000
  O   O66       1.0  0.98283  0.54098  0.88453  1.0000
  O   O67       1.0  0.48283  0.95902  0.38453  1.0000
  O   O68       1.0  0.01717  0.45902  0.11547  1.0000
  O   O69       1.0  0.46850  0.92606  0.55957  1.0000
  O   O70       1.0  0.03150  0.42606  0.94043  1.0000
  O   O71       1.0  0.53150  0.07394  0.44043  1.0000
  O   O72       1.0  0.96850  0.57394  0.05957  1.0000
  H   H1        1.0  0.80170  0.91850  0.50950  1.0000
  H   H2        1.0  0.69830  0.41850  0.99050  1.0000
  H   H3        1.0  0.19830  0.08150  0.49050  1.0000
  H   H4        1.0  0.30170  0.58150  0.00950  1.0000
  H   H5        1.0  0.81890  0.98450  0.48540  1.0000
  H   H6        1.0  0.68110  0.48450  0.01460  1.0000
  H   H7        1.0  0.18110  0.01550  0.51460  1.0000
  H   H8        1.0  0.31890  0.51550  0.98540  1.0000
  H   H9        1.0  0.70170  0.92520  0.01610  1.0000
  H   H10       1.0  0.79830  0.42520  0.48390  1.0000
  H   H11       1.0  0.29830  0.07480  0.98390  1.0000
  H   H12       1.0  0.20170  0.57480  0.51610  1.0000
  H   H13       1.0  0.73550  0.87040  0.97040  1.0000
  H   H14       1.0  0.76450  0.37040  0.52960  1.0000
  H   H15       1.0  0.26450  0.12960  0.02960  1.0000
  H   H16       1.0  0.23550  0.62960  0.47040  1.0000
  H   H17       1.0  0.60870  0.87740  0.86520  1.0000
  H   H18       1.0  0.89130  0.37740  0.63480  1.0000
  H   H19       1.0  0.39130  0.12260  0.13480  1.0000
  H   H20       1.0  0.10870  0.62260  0.36520  1.0000
  H   H21       1.0  0.56680  0.93840  0.88610  1.0000
  H   H22       1.0  0.93320  0.43840  0.61390  1.0000
  H   H23       1.0  0.43320  0.06160  0.11390  1.0000
  H   H24       1.0  0.06680  0.56160  0.38610  1.0000
  H   H25       1.0  0.94230  0.98810  0.61940  1.0000
  H   H26       1.0  0.55770  0.48810  0.88060  1.0000
  H   H27       1.0  0.05770  0.01190  0.38060  1.0000
  H   H28       1.0  0.44230  0.51190  0.11940  1.0000
  H   H29       1.0  0.91480  0.92080  0.62140  1.0000
  H   H30       1.0  0.58520  0.42080  0.87860  1.0000
  H   H31       1.0  0.08520  0.07920  0.37860  1.0000
  H   H32       1.0  0.41480  0.57920  0.12140  1.0000
  H   H33       1.0  0.48500  0.93100  0.61020  1.0000
  H   H34       1.0  0.01500  0.43100  0.88980  1.0000
  H   H35       1.0  0.51500  0.06900  0.38980  1.0000
  H   H36       1.0  0.98500  0.56900  0.11020  1.0000
  H   H37       1.0  0.54800  0.02280  0.65500  1.0000
  H   H38       1.0  0.95200  0.52280  0.84500  1.0000
  H   H39       1.0  0.45200  0.97720  0.34500  1.0000
  H   H40       1.0  0.04800  0.47720  0.15500  1.0000
  H   H41       1.0  0.41690  0.91600  0.53400  1.0000
  H   H42       1.0  0.08310  0.41600  0.96600  1.0000
  H   H43       1.0  0.58310  0.08400  0.46600  1.0000
  H   H44       1.0  0.91690  0.58400  0.03400  1.0000
  H   H45       1.0  0.46250  0.04000  0.61900  1.0000
  H   H46       1.0  0.03750  0.54000  0.88100  1.0000
  H   H47       1.0  0.53750  0.96000  0.38100  1.0000
  H   H48       1.0  0.96250  0.46000  0.11900  1.0000
  H   H49       1.0  0.03300  0.94700  0.87480  1.0000
  H   H50       1.0  0.46700  0.44700  0.62520  1.0000
  H   H51       1.0  0.96700  0.05300  0.12520  1.0000
  H   H52       1.0  0.53300  0.55300  0.37480  1.0000
  H   H53       1.0  0.93600  0.03900  0.85710  1.0000
  H   H54       1.0  0.56400  0.53900  0.64290  1.0000
  H   H55       1.0  0.06400  0.96100  0.14290  1.0000
  H   H56       1.0  0.43600  0.46100  0.35710  1.0000
  H   H57       1.0  0.09500  0.92760  0.95100  1.0000
  H   H58       1.0  0.40500  0.42760  0.54900  1.0000
  H   H59       1.0  0.90500  0.07240  0.04900  1.0000
  H   H60       1.0  0.59500  0.57240  0.45100  1.0000
  H   H61       1.0  0.00870  0.07000  0.90300  1.0000
  H   H62       1.0  0.49130  0.57000  0.59700  1.0000
  H   H63       1.0  0.99130  0.93000  0.09700  1.0000
  H   H64       1.0  0.50870  0.43000  0.40300  1.0000
  H   H65       1.0  0.69730  0.94300  0.62700  1.0000
  H   H66       1.0  0.80270  0.44300  0.87300  1.0000
  H   H67       1.0  0.30270  0.05700  0.37300  1.0000
  H   H68       1.0  0.19730  0.55700  0.12700  1.0000
  H   H69       1.0  0.81170  0.93700  0.86200  1.0000
  H   H70       1.0  0.68830  0.43700  0.63800  1.0000
  H   H71       1.0  0.18830  0.06300  0.13800  1.0000
  H   H72       1.0  0.31170  0.56300  0.36200  1.0000
