data_image0
_chemical_formula_structural       Ni2O10C4NiC2O2C2O2C12H4C2H2C4H2O2C4H2C2H6
_chemical_formula_sum              "Ni3 O16 C32 H16"
_cell_length_a       9.6061
_cell_length_b       10.1802
_cell_length_c       11.8289
_cell_angle_alpha    101.373
_cell_angle_beta     112.499
_cell_angle_gamma    93.458

_space_group_name_H-M_alt    "P 1"
_space_group_IT_number       1

loop_
  _space_group_symop_operation_xyz
  'x, y, z'

loop_
  _atom_site_type_symbol
  _atom_site_label
  _atom_site_symmetry_multiplicity
  _atom_site_fract_x
  _atom_site_fract_y
  _atom_site_fract_z
  _atom_site_occupancy
  Ni  Ni1       1.0  0.31550  0.73442  0.25132  1.0000
  Ni  Ni2       1.0  0.68450  0.26558  0.74868  1.0000
  O   O1        1.0  0.22370  0.56020  0.10930  1.0000
  O   O2        1.0  0.77630  0.43980  0.89070  1.0000
  O   O3        1.0  0.15350  0.76340  0.31770  1.0000
  O   O4        1.0  0.84650  0.23660  0.68230  1.0000
  O   O5        1.0  0.31520  0.51310  0.29300  1.0000
  O   O6        1.0  0.68480  0.48690  0.70700  1.0000
  O   O7        1.0  0.52540  0.80100  0.38720  1.0000
  O   O8        1.0  0.47460  0.19900  0.61280  1.0000
  O   O9        1.0  0.27770  0.87320  0.14980  1.0000
  O   O10       1.0  0.72230  0.12680  0.85020  1.0000
  C   C1        1.0  0.25270  0.47730  0.17530  1.0000
  C   C2        1.0  0.74730  0.52270  0.82470  1.0000
  C   C3        1.0  0.18310  0.83170  0.42740  1.0000
  C   C4        1.0  0.81690  0.16830  0.57260  1.0000
  Ni  Ni3       1.0  0.50000  0.00000  0.50000  1.0000
  C   C5        1.0  0.21540  0.32820  0.11290  1.0000
  C   C6        1.0  0.78460  0.67180  0.88710  1.0000
  O   O11       1.0  0.30880  0.90060  0.50270  1.0000
  O   O12       1.0  0.69120  0.09940  0.49730  1.0000
  C   C7        1.0  0.05600  0.82980  0.47170  1.0000
  C   C8        1.0  0.94400  0.17020  0.52830  1.0000
  O   O13       1.0  0.38300  0.04410  0.32270  1.0000
  O   O14       1.0  0.61700  0.95590  0.67730  1.0000
  C   C9        1.0  0.27240  0.23510  0.18400  1.0000
  C   C10       1.0  0.72760  0.76490  0.81600  1.0000
  C   C11       1.0  0.12900  0.28330  0.98440  1.0000
  C   C12       1.0  0.87100  0.71670  0.01560  1.0000
  C   C13       1.0  0.09340  0.86380  0.60080  1.0000
  C   C14       1.0  0.90660  0.13620  0.39920  1.0000
  C   C15       1.0  0.90490  0.79400  0.38850  1.0000
  C   C16       1.0  0.09510  0.20600  0.61150  1.0000
  C   C17       1.0  0.37500  0.23950  0.65680  1.0000
  C   C18       1.0  0.62500  0.76050  0.34320  1.0000
  C   C19       1.0  0.24510  0.09770  0.12800  1.0000
  C   C20       1.0  0.75490  0.90230  0.87200  1.0000
  H   H1        1.0  0.32970  0.26530  0.27030  1.0000
  H   H2        1.0  0.67030  0.73470  0.72970  1.0000
  H   H3        1.0  0.09050  0.34510  0.93620  1.0000
  H   H4        1.0  0.90950  0.65490  0.06380  1.0000
  C   C21       1.0  0.10020  0.14590  0.92800  1.0000
  C   C22       1.0  0.89980  0.85410  0.07200  1.0000
  H   H5        1.0  0.19460  0.89140  0.65700  1.0000
  H   H6        1.0  0.80540  0.10860  0.34300  1.0000
  C   C23       1.0  0.97970  0.85650  0.64570  1.0000
  C   C24       1.0  0.02030  0.14350  0.35430  1.0000
  C   C25       1.0  0.78900  0.79360  0.43270  1.0000
  C   C26       1.0  0.21100  0.20640  0.56730  1.0000
  H   H7        1.0  0.88000  0.77010  0.30220  1.0000
  H   H8        1.0  0.12000  0.22990  0.69780  1.0000
  O   O15       1.0  0.41290  0.30550  0.76510  1.0000
  O   O16       1.0  0.58710  0.69450  0.23490  1.0000
  C   C27       1.0  0.30730  0.99770  0.20700  1.0000
  C   C28       1.0  0.69270  0.00230  0.79300  1.0000
  C   C29       1.0  0.15950  0.05420  0.99980  1.0000
  C   C30       1.0  0.84050  0.94580  0.00020  1.0000
  H   H9        1.0  0.04120  0.11520  0.84210  1.0000
  H   H10       1.0  0.95880  0.88480  0.15790  1.0000
  C   C31       1.0  0.82870  0.82250  0.56150  1.0000
  C   C32       1.0  0.17130  0.17750  0.43850  1.0000
  H   H11       1.0  0.00490  0.87430  0.73200  1.0000
  H   H12       1.0  0.99510  0.12570  0.26800  1.0000
  H   H13       1.0  0.14140  0.96230  0.96120  1.0000
  H   H14       1.0  0.85860  0.03770  0.03880  1.0000
  H   H15       1.0  0.75280  0.81910  0.59180  1.0000
  H   H16       1.0  0.24720  0.18090  0.40820  1.0000
