data_image0
_chemical_formula_structural       Zn4O16N4O4C8H4C8H4O4C8H4C16N4H4C8H4C4H4C4H4C4H4C4H4
_chemical_formula_sum              "Zn4 O24 N8 C64 H36"
_cell_length_a       15.6345
_cell_length_b       11.2144
_cell_length_c       12.7553
_cell_angle_alpha    90
_cell_angle_beta     90
_cell_angle_gamma    90

_space_group_name_H-M_alt    "P 1"
_space_group_IT_number       1

loop_
  _space_group_symop_operation_xyz
  'x, y, z'

loop_
  _atom_site_type_symbol
  _atom_site_label
  _atom_site_symmetry_multiplicity
  _atom_site_fract_x
  _atom_site_fract_y
  _atom_site_fract_z
  _atom_site_occupancy
  Zn  Zn1       1.0  0.39596  0.33968  0.46948  1.0000
  Zn  Zn2       1.0  0.60404  0.66032  0.96948  1.0000
  Zn  Zn3       1.0  0.89596  0.16032  0.46948  1.0000
  Zn  Zn4       1.0  0.10404  0.83968  0.96948  1.0000
  O   O1        1.0  0.47774  0.27503  0.57023  1.0000
  O   O2        1.0  0.52226  0.72497  0.07023  1.0000
  O   O3        1.0  0.97774  0.22497  0.57023  1.0000
  O   O4        1.0  0.02226  0.77503  0.07023  1.0000
  O   O5        1.0  0.62977  0.77400  0.85410  1.0000
  O   O6        1.0  0.37023  0.22600  0.35410  1.0000
  O   O7        1.0  0.12977  0.72600  0.85410  1.0000
  O   O8        1.0  0.87023  0.27400  0.35410  1.0000
  O   O9        1.0  0.83117  0.03230  0.64260  1.0000
  O   O10       1.0  0.16883  0.96770  0.14260  1.0000
  O   O11       1.0  0.33117  0.46770  0.64260  1.0000
  O   O12       1.0  0.66883  0.53230  0.14260  1.0000
  O   O13       1.0  0.77578  0.12410  0.50641  1.0000
  O   O14       1.0  0.22422  0.87590  0.00641  1.0000
  O   O15       1.0  0.27578  0.37590  0.50641  1.0000
  O   O16       1.0  0.72422  0.62410  0.00641  1.0000
  N   N1        1.0  0.46301  0.47710  0.40670  1.0000
  N   N2        1.0  0.53699  0.52290  0.90670  1.0000
  N   N3        1.0  0.96301  0.02290  0.40670  1.0000
  N   N4        1.0  0.03699  0.97710  0.90670  1.0000
  O   O17       1.0  0.38494  0.13520  0.61000  1.0000
  O   O18       1.0  0.61506  0.86480  0.11000  1.0000
  O   O19       1.0  0.88494  0.36480  0.61000  1.0000
  O   O20       1.0  0.11506  0.63520  0.11000  1.0000
  C   C1        1.0  0.68070  0.04570  0.63350  1.0000
  C   C2        1.0  0.31930  0.95430  0.13350  1.0000
  C   C3        1.0  0.18070  0.45430  0.63350  1.0000
  C   C4        1.0  0.81930  0.54570  0.13350  1.0000
  C   C5        1.0  0.66680  0.95530  0.70710  1.0000
  C   C6        1.0  0.33320  0.04470  0.20710  1.0000
  C   C7        1.0  0.16680  0.54470  0.70710  1.0000
  C   C8        1.0  0.83320  0.45530  0.20710  1.0000
  H   H1        1.0  0.71250  0.90910  0.73010  1.0000
  H   H2        1.0  0.28750  0.09090  0.23010  1.0000
  H   H3        1.0  0.21250  0.59090  0.73010  1.0000
  H   H4        1.0  0.78750  0.40910  0.23010  1.0000
  C   C9        1.0  0.45790  0.17360  0.60550  1.0000
  C   C10       1.0  0.54210  0.82640  0.10550  1.0000
  C   C11       1.0  0.95790  0.32640  0.60550  1.0000
  C   C12       1.0  0.04210  0.67360  0.10550  1.0000
  C   C13       1.0  0.61280  0.11670  0.60150  1.0000
  C   C14       1.0  0.38720  0.88330  0.10150  1.0000
  C   C15       1.0  0.11280  0.38330  0.60150  1.0000
  C   C16       1.0  0.88720  0.61670  0.10150  1.0000
  H   H5        1.0  0.62200  0.17710  0.55290  1.0000
  H   H6        1.0  0.37800  0.82290  0.05290  1.0000
  H   H7        1.0  0.12200  0.32290  0.55290  1.0000
  H   H8        1.0  0.87800  0.67710  0.05290  1.0000
  O   O21       1.0  0.49200  0.81360  0.84480  1.0000
  O   O22       1.0  0.50800  0.18640  0.34480  1.0000
  O   O23       1.0  0.99200  0.68640  0.84480  1.0000
  O   O24       1.0  0.00800  0.31360  0.34480  1.0000
  C   C17       1.0  0.58560  0.93440  0.74560  1.0000
  C   C18       1.0  0.41440  0.06560  0.24560  1.0000
  C   C19       1.0  0.08560  0.56560  0.74560  1.0000
  C   C20       1.0  0.91440  0.43440  0.24560  1.0000
  C   C21       1.0  0.51840  0.00700  0.71350  1.0000
  C   C22       1.0  0.48160  0.99300  0.21350  1.0000
  C   C23       1.0  0.01840  0.49300  0.71350  1.0000
  C   C24       1.0  0.98160  0.50700  0.21350  1.0000
  H   H9        1.0  0.46390  0.99440  0.74040  1.0000
  H   H10       1.0  0.53610  0.00560  0.24040  1.0000
  H   H11       1.0  0.96390  0.50560  0.74040  1.0000
  H   H12       1.0  0.03610  0.49440  0.24040  1.0000
  C   C25       1.0  0.56670  0.83430  0.82050  1.0000
  C   C26       1.0  0.43330  0.16570  0.32050  1.0000
  C   C27       1.0  0.06670  0.66570  0.82050  1.0000
  C   C28       1.0  0.93330  0.33430  0.32050  1.0000
  C   C29       1.0  0.53200  0.09840  0.64130  1.0000
  C   C30       1.0  0.46800  0.90160  0.14130  1.0000
  C   C31       1.0  0.03200  0.40160  0.64130  1.0000
  C   C32       1.0  0.96800  0.59840  0.14130  1.0000
  C   C33       1.0  0.47830  0.59360  0.43980  1.0000
  C   C34       1.0  0.52170  0.40640  0.93980  1.0000
  C   C35       1.0  0.97830  0.90640  0.43980  1.0000
  C   C36       1.0  0.02170  0.09360  0.93980  1.0000
  C   C37       1.0  0.76940  0.06820  0.59260  1.0000
  C   C38       1.0  0.23060  0.93180  0.09260  1.0000
  C   C39       1.0  0.26940  0.43180  0.59260  1.0000
  C   C40       1.0  0.73060  0.56820  0.09260  1.0000
  N   N5        1.0  0.54990  0.56290  0.29450  1.0000
  N   N6        1.0  0.45010  0.43710  0.79450  1.0000
  N   N7        1.0  0.04990  0.93710  0.29450  1.0000
  N   N8        1.0  0.95010  0.06290  0.79450  1.0000
  H   H13       1.0  0.58200  0.57150  0.24020  1.0000
  H   H14       1.0  0.41800  0.42850  0.74020  1.0000
  H   H15       1.0  0.08200  0.92850  0.24020  1.0000
  H   H16       1.0  0.91800  0.07150  0.74020  1.0000
  C   C41       1.0  0.53300  0.64870  0.36900  1.0000
  C   C42       1.0  0.46700  0.35130  0.86900  1.0000
  C   C43       1.0  0.03300  0.85130  0.36900  1.0000
  C   C44       1.0  0.96700  0.14870  0.86900  1.0000
  C   C45       1.0  0.56010  0.76490  0.38080  1.0000
  C   C46       1.0  0.43990  0.23510  0.88080  1.0000
  C   C47       1.0  0.06010  0.73510  0.38080  1.0000
  C   C48       1.0  0.93990  0.26490  0.88080  1.0000
  H   H17       1.0  0.59600  0.80100  0.33220  1.0000
  H   H18       1.0  0.40400  0.19900  0.83220  1.0000
  H   H19       1.0  0.09600  0.69900  0.33220  1.0000
  H   H20       1.0  0.90400  0.30100  0.83220  1.0000
  C   C49       1.0  0.44930  0.65560  0.52680  1.0000
  C   C50       1.0  0.55070  0.34440  0.02680  1.0000
  C   C51       1.0  0.94930  0.84440  0.52680  1.0000
  C   C52       1.0  0.05070  0.15560  0.02680  1.0000
  H   H21       1.0  0.41320  0.62020  0.57570  1.0000
  H   H22       1.0  0.58680  0.37980  0.07570  1.0000
  H   H23       1.0  0.91320  0.87980  0.57570  1.0000
  H   H24       1.0  0.08680  0.12020  0.07570  1.0000
  C   C53       1.0  0.53140  0.82440  0.46730  1.0000
  C   C54       1.0  0.46860  0.17560  0.96730  1.0000
  C   C55       1.0  0.03140  0.67560  0.46730  1.0000
  C   C56       1.0  0.96860  0.32440  0.96730  1.0000
  H   H25       1.0  0.54970  0.90210  0.47920  1.0000
  H   H26       1.0  0.45030  0.09790  0.97920  1.0000
  H   H27       1.0  0.04970  0.59790  0.47920  1.0000
  H   H28       1.0  0.95030  0.40210  0.97920  1.0000
  C   C57       1.0  0.50800  0.46530  0.32130  1.0000
  C   C58       1.0  0.49200  0.53470  0.82130  1.0000
  C   C59       1.0  0.00800  0.03470  0.32130  1.0000
  C   C60       1.0  0.99200  0.96530  0.82130  1.0000
  H   H29       1.0  0.51030  0.39490  0.28290  1.0000
  H   H30       1.0  0.48970  0.60510  0.78290  1.0000
  H   H31       1.0  0.01030  0.10510  0.28290  1.0000
  H   H32       1.0  0.98970  0.89490  0.78290  1.0000
  C   C61       1.0  0.47590  0.77150  0.53780  1.0000
  C   C62       1.0  0.52410  0.22850  0.03780  1.0000
  C   C63       1.0  0.97590  0.72850  0.53780  1.0000
  C   C64       1.0  0.02410  0.27150  0.03780  1.0000
  H   H33       1.0  0.45600  0.81590  0.59440  1.0000
  H   H34       1.0  0.54400  0.18410  0.09440  1.0000
  H   H35       1.0  0.95600  0.68410  0.59440  1.0000
  H   H36       1.0  0.04400  0.31590  0.09440  1.0000
