data_image0
_chemical_formula_structural       In8S32In24S48Cd16In8Cd8In16S80Cd8In72S72N8S24N16C32H8C8N8H16C8H8N8H8In8H8In8S24In24S48Cd16In8Cd8In16S80Cd8In64S96N16C28H8C8H28
_chemical_formula_sum              "In256 S504 Cd64 N56 C84 H84"
_cell_length_a       30.481
_cell_length_b       41.069
_cell_length_c       53.108
_cell_angle_alpha    90
_cell_angle_beta     90
_cell_angle_gamma    90

_space_group_name_H-M_alt    "P 1"
_space_group_IT_number       1

loop_
  _space_group_symop_operation_xyz
  'x, y, z'

loop_
  _atom_site_type_symbol
  _atom_site_label
  _atom_site_symmetry_multiplicity
  _atom_site_fract_x
  _atom_site_fract_y
  _atom_site_fract_z
  _atom_site_occupancy
  In  In1       1.0  0.09841  0.50345  0.65468  1.0000
  In  In2       1.0  0.40159  0.99655  0.65468  1.0000
  In  In3       1.0  0.40159  0.50345  0.84532  1.0000
  In  In4       1.0  0.09841  0.99655  0.84532  1.0000
  In  In5       1.0  0.90159  0.49655  0.34532  1.0000
  In  In6       1.0  0.59841  0.00345  0.34532  1.0000
  In  In7       1.0  0.59841  0.49655  0.15468  1.0000
  In  In8       1.0  0.90159  0.00345  0.15468  1.0000
  S   S1        1.0  0.12190  0.45570  0.68200  1.0000
  S   S2        1.0  0.37810  0.04430  0.68200  1.0000
  S   S3        1.0  0.37810  0.45570  0.81800  1.0000
  S   S4        1.0  0.12190  0.04430  0.81800  1.0000
  S   S5        1.0  0.87810  0.54430  0.31800  1.0000
  S   S6        1.0  0.62190  0.95570  0.31800  1.0000
  S   S7        1.0  0.62190  0.54430  0.18200  1.0000
  S   S8        1.0  0.87810  0.95570  0.18200  1.0000
  S   S9        1.0  0.11660  0.54960  0.68150  1.0000
  S   S10       1.0  0.38340  0.95040  0.68150  1.0000
  S   S11       1.0  0.38340  0.54960  0.81850  1.0000
  S   S12       1.0  0.11660  0.95040  0.81850  1.0000
  S   S13       1.0  0.88340  0.45040  0.31850  1.0000
  S   S14       1.0  0.61660  0.04960  0.31850  1.0000
  S   S15       1.0  0.61660  0.45040  0.18150  1.0000
  S   S16       1.0  0.88340  0.04960  0.18150  1.0000
  S   S17       1.0  0.14210  0.49720  0.61650  1.0000
  S   S18       1.0  0.35790  0.00280  0.61650  1.0000
  S   S19       1.0  0.35790  0.49720  0.88350  1.0000
  S   S20       1.0  0.14210  0.00280  0.88350  1.0000
  S   S21       1.0  0.85790  0.50280  0.38350  1.0000
  S   S22       1.0  0.64210  0.99720  0.38350  1.0000
  S   S23       1.0  0.64210  0.50280  0.11650  1.0000
  S   S24       1.0  0.85790  0.99720  0.11650  1.0000
  S   S25       1.0  0.02030  0.49200  0.65060  1.0000
  S   S26       1.0  0.47970  0.00800  0.65060  1.0000
  S   S27       1.0  0.47970  0.49200  0.84940  1.0000
  S   S28       1.0  0.02030  0.00800  0.84940  1.0000
  S   S29       1.0  0.97970  0.50800  0.34940  1.0000
  S   S30       1.0  0.52030  0.99200  0.34940  1.0000
  S   S31       1.0  0.52030  0.50800  0.15060  1.0000
  S   S32       1.0  0.97970  0.99200  0.15060  1.0000
  In  In9       1.0  0.09240  0.59516  0.65599  1.0000
  In  In10      1.0  0.40760  0.90484  0.65599  1.0000
  In  In11      1.0  0.40760  0.59516  0.84401  1.0000
  In  In12      1.0  0.09240  0.90484  0.84401  1.0000
  In  In13      1.0  0.90760  0.40484  0.34401  1.0000
  In  In14      1.0  0.59240  0.09516  0.34401  1.0000
  In  In15      1.0  0.59240  0.40484  0.15599  1.0000
  In  In16      1.0  0.90760  0.09516  0.15599  1.0000
  In  In17      1.0  0.11745  0.54363  0.59216  1.0000
  In  In18      1.0  0.38255  0.95637  0.59216  1.0000
  In  In19      1.0  0.38255  0.54363  0.90784  1.0000
  In  In20      1.0  0.11745  0.95637  0.90784  1.0000
  In  In21      1.0  0.88255  0.45637  0.40784  1.0000
  In  In22      1.0  0.61745  0.04363  0.40784  1.0000
  In  In23      1.0  0.61745  0.45637  0.09216  1.0000
  In  In24      1.0  0.88255  0.04363  0.09216  1.0000
  In  In25      1.0  0.99695  0.53816  0.62493  1.0000
  In  In26      1.0  0.50305  0.96184  0.62493  1.0000
  In  In27      1.0  0.50305  0.53816  0.87507  1.0000
  In  In28      1.0  0.99695  0.96184  0.87507  1.0000
  In  In29      1.0  0.00305  0.46184  0.37507  1.0000
  In  In30      1.0  0.49695  0.03816  0.37507  1.0000
  In  In31      1.0  0.49695  0.46184  0.12493  1.0000
  In  In32      1.0  0.00305  0.03816  0.12493  1.0000
  S   S33       1.0  0.13430  0.59450  0.61563  1.0000
  S   S34       1.0  0.36570  0.90550  0.61563  1.0000
  S   S35       1.0  0.36570  0.59450  0.88437  1.0000
  S   S36       1.0  0.13430  0.90550  0.88437  1.0000
  S   S37       1.0  0.86570  0.40550  0.38437  1.0000
  S   S38       1.0  0.63430  0.09450  0.38437  1.0000
  S   S39       1.0  0.63430  0.40550  0.11563  1.0000
  S   S40       1.0  0.86570  0.09450  0.11563  1.0000
  S   S41       1.0  0.01140  0.58920  0.64969  1.0000
  S   S42       1.0  0.48860  0.91080  0.64969  1.0000
  S   S43       1.0  0.48860  0.58920  0.85031  1.0000
  S   S44       1.0  0.01140  0.91080  0.85031  1.0000
  S   S45       1.0  0.98860  0.41080  0.35031  1.0000
  S   S46       1.0  0.51140  0.08920  0.35031  1.0000
  S   S47       1.0  0.51140  0.41080  0.14969  1.0000
  S   S48       1.0  0.98860  0.08920  0.14969  1.0000
  S   S49       1.0  0.10720  0.64490  0.67850  1.0000
  S   S50       1.0  0.39280  0.85510  0.67850  1.0000
  S   S51       1.0  0.39280  0.64490  0.82150  1.0000
  S   S52       1.0  0.10720  0.85510  0.82150  1.0000
  S   S53       1.0  0.89280  0.35510  0.32150  1.0000
  S   S54       1.0  0.60720  0.14490  0.32150  1.0000
  S   S55       1.0  0.60720  0.35510  0.17850  1.0000
  S   S56       1.0  0.89280  0.14490  0.17850  1.0000
  S   S57       1.0  0.03740  0.53700  0.58429  1.0000
  S   S58       1.0  0.46260  0.96300  0.58429  1.0000
  S   S59       1.0  0.46260  0.53700  0.91571  1.0000
  S   S60       1.0  0.03740  0.96300  0.91571  1.0000
  S   S61       1.0  0.96260  0.46300  0.41571  1.0000
  S   S62       1.0  0.53740  0.03700  0.41571  1.0000
  S   S63       1.0  0.53740  0.46300  0.08429  1.0000
  S   S64       1.0  0.96260  0.03700  0.08429  1.0000
  S   S65       1.0  0.15720  0.54490  0.55250  1.0000
  S   S66       1.0  0.34280  0.95510  0.55250  1.0000
  S   S67       1.0  0.34280  0.54490  0.94750  1.0000
  S   S68       1.0  0.15720  0.95510  0.94750  1.0000
  S   S69       1.0  0.84280  0.45510  0.44750  1.0000
  S   S70       1.0  0.65720  0.04490  0.44750  1.0000
  S   S71       1.0  0.65720  0.45510  0.05250  1.0000
  S   S72       1.0  0.84280  0.04490  0.05250  1.0000
  S   S73       1.0  0.91840  0.53310  0.61720  1.0000
  S   S74       1.0  0.58160  0.96690  0.61720  1.0000
  S   S75       1.0  0.58160  0.53310  0.88280  1.0000
  S   S76       1.0  0.91840  0.96690  0.88280  1.0000
  S   S77       1.0  0.08160  0.46690  0.38280  1.0000
  S   S78       1.0  0.41840  0.03310  0.38280  1.0000
  S   S79       1.0  0.41840  0.46690  0.11720  1.0000
  S   S80       1.0  0.08160  0.03310  0.11720  1.0000
  Cd  Cd1       1.0  0.10900  0.64153  0.59031  1.0000
  Cd  Cd2       1.0  0.39100  0.85847  0.59031  1.0000
  Cd  Cd3       1.0  0.39100  0.64153  0.90969  1.0000
  Cd  Cd4       1.0  0.10900  0.85847  0.90969  1.0000
  Cd  Cd5       1.0  0.89100  0.35847  0.40969  1.0000
  Cd  Cd6       1.0  0.60900  0.14153  0.40969  1.0000
  Cd  Cd7       1.0  0.60900  0.35847  0.09031  1.0000
  Cd  Cd8       1.0  0.89100  0.14153  0.09031  1.0000
  Cd  Cd9       1.0  0.98768  0.63563  0.62320  1.0000
  Cd  Cd10      1.0  0.51232  0.86437  0.62320  1.0000
  Cd  Cd11      1.0  0.51232  0.63563  0.87680  1.0000
  Cd  Cd12      1.0  0.98768  0.86437  0.87680  1.0000
  Cd  Cd13      1.0  0.01232  0.36437  0.37680  1.0000
  Cd  Cd14      1.0  0.48768  0.13563  0.37680  1.0000
  Cd  Cd15      1.0  0.48768  0.36437  0.12320  1.0000
  Cd  Cd16      1.0  0.01232  0.13563  0.12320  1.0000
  In  In33      1.0  0.08285  0.69104  0.65341  1.0000
  In  In34      1.0  0.41715  0.80896  0.65341  1.0000
  In  In35      1.0  0.41715  0.69104  0.84659  1.0000
  In  In36      1.0  0.08285  0.80896  0.84659  1.0000
  In  In37      1.0  0.91715  0.30896  0.34659  1.0000
  In  In38      1.0  0.58285  0.19104  0.34659  1.0000
  In  In39      1.0  0.58285  0.30896  0.15341  1.0000
  In  In40      1.0  0.91715  0.19104  0.15341  1.0000
  Cd  Cd17      1.0  0.01254  0.58398  0.55870  1.0000
  Cd  Cd18      1.0  0.48746  0.91602  0.55870  1.0000
  Cd  Cd19      1.0  0.48746  0.58398  0.94130  1.0000
  Cd  Cd20      1.0  0.01254  0.91602  0.94130  1.0000
  Cd  Cd21      1.0  0.98746  0.41602  0.44130  1.0000
  Cd  Cd22      1.0  0.51254  0.08398  0.44130  1.0000
  Cd  Cd23      1.0  0.51254  0.41602  0.05870  1.0000
  Cd  Cd24      1.0  0.98746  0.08398  0.05870  1.0000
  In  In41      1.0  0.13187  0.59009  0.52728  1.0000
  In  In42      1.0  0.36813  0.90991  0.52728  1.0000
  In  In43      1.0  0.36813  0.59009  0.97272  1.0000
  In  In44      1.0  0.13187  0.90991  0.97272  1.0000
  In  In45      1.0  0.86813  0.40991  0.47272  1.0000
  In  In46      1.0  0.63187  0.09009  0.47272  1.0000
  In  In47      1.0  0.63187  0.40991  0.02728  1.0000
  In  In48      1.0  0.86813  0.09009  0.02728  1.0000
  In  In49      1.0  0.89481  0.57869  0.59208  1.0000
  In  In50      1.0  0.60519  0.92131  0.59208  1.0000
  In  In51      1.0  0.60519  0.57869  0.90792  1.0000
  In  In52      1.0  0.89481  0.92131  0.90792  1.0000
  In  In53      1.0  0.10519  0.42131  0.40792  1.0000
  In  In54      1.0  0.39481  0.07869  0.40792  1.0000
  In  In55      1.0  0.39481  0.42131  0.09208  1.0000
  In  In56      1.0  0.10519  0.07869  0.09208  1.0000
  S   S81       1.0  0.02710  0.63632  0.58228  1.0000
  S   S82       1.0  0.47290  0.86368  0.58228  1.0000
  S   S83       1.0  0.47290  0.63632  0.91772  1.0000
  S   S84       1.0  0.02710  0.86368  0.91772  1.0000
  S   S85       1.0  0.97290  0.36368  0.41772  1.0000
  S   S86       1.0  0.52710  0.13632  0.41772  1.0000
  S   S87       1.0  0.52710  0.36368  0.08228  1.0000
  S   S88       1.0  0.97290  0.13632  0.08228  1.0000
  S   S89       1.0  0.12320  0.69400  0.61289  1.0000
  S   S90       1.0  0.37680  0.80600  0.61289  1.0000
  S   S91       1.0  0.37680  0.69400  0.88711  1.0000
  S   S92       1.0  0.12320  0.80600  0.88711  1.0000
  S   S93       1.0  0.87680  0.30600  0.38711  1.0000
  S   S94       1.0  0.62320  0.19400  0.38711  1.0000
  S   S95       1.0  0.62320  0.30600  0.11289  1.0000
  S   S96       1.0  0.87680  0.19400  0.11289  1.0000
  S   S97       1.0  0.14870  0.64220  0.54938  1.0000
  S   S98       1.0  0.35130  0.85780  0.54938  1.0000
  S   S99       1.0  0.35130  0.64220  0.95062  1.0000
  S   S100      1.0  0.14870  0.85780  0.95062  1.0000
  S   S101      1.0  0.85130  0.35780  0.45062  1.0000
  S   S102      1.0  0.64870  0.14220  0.45062  1.0000
  S   S103      1.0  0.64870  0.35780  0.04938  1.0000
  S   S104      1.0  0.85130  0.14220  0.04938  1.0000
  S   S105      1.0  0.90750  0.63030  0.61617  1.0000
  S   S106      1.0  0.59250  0.86970  0.61617  1.0000
  S   S107      1.0  0.59250  0.63030  0.88383  1.0000
  S   S108      1.0  0.90750  0.86970  0.88383  1.0000
  S   S109      1.0  0.09250  0.36970  0.38383  1.0000
  S   S110      1.0  0.40750  0.13030  0.38383  1.0000
  S   S111      1.0  0.40750  0.36970  0.11617  1.0000
  S   S112      1.0  0.09250  0.13030  0.11617  1.0000
  S   S113      1.0  0.00170  0.68680  0.64643  1.0000
  S   S114      1.0  0.49830  0.81320  0.64643  1.0000
  S   S115      1.0  0.49830  0.68680  0.85357  1.0000
  S   S116      1.0  0.00170  0.81320  0.85357  1.0000
  S   S117      1.0  0.99830  0.31320  0.35357  1.0000
  S   S118      1.0  0.50170  0.18680  0.35357  1.0000
  S   S119      1.0  0.50170  0.31320  0.14643  1.0000
  S   S120      1.0  0.99830  0.18680  0.14643  1.0000
  S   S121      1.0  0.09740  0.74170  0.67633  1.0000
  S   S122      1.0  0.40260  0.75830  0.67633  1.0000
  S   S123      1.0  0.40260  0.74170  0.82367  1.0000
  S   S124      1.0  0.09740  0.75830  0.82367  1.0000
  S   S125      1.0  0.90260  0.25830  0.32367  1.0000
  S   S126      1.0  0.59740  0.24170  0.32367  1.0000
  S   S127      1.0  0.59740  0.25830  0.17633  1.0000
  S   S128      1.0  0.90260  0.24170  0.17633  1.0000
  S   S129      1.0  0.05180  0.58430  0.51733  1.0000
  S   S130      1.0  0.44820  0.91570  0.51733  1.0000
  S   S131      1.0  0.44820  0.58430  0.98267  1.0000
  S   S132      1.0  0.05180  0.91570  0.98267  1.0000
  S   S133      1.0  0.94820  0.41570  0.48267  1.0000
  S   S134      1.0  0.55180  0.08430  0.48267  1.0000
  S   S135      1.0  0.55180  0.41570  0.01733  1.0000
  S   S136      1.0  0.94820  0.08430  0.01733  1.0000
  S   S137      1.0  0.93250  0.57880  0.55049  1.0000
  S   S138      1.0  0.56750  0.92120  0.55049  1.0000
  S   S139      1.0  0.56750  0.57880  0.94951  1.0000
  S   S140      1.0  0.93250  0.92120  0.94951  1.0000
  S   S141      1.0  0.06750  0.42120  0.44951  1.0000
  S   S142      1.0  0.43250  0.07880  0.44951  1.0000
  S   S143      1.0  0.43250  0.42120  0.05049  1.0000
  S   S144      1.0  0.06750  0.07880  0.05049  1.0000
  S   S145      1.0  0.17210  0.59080  0.48760  1.0000
  S   S146      1.0  0.32790  0.90920  0.48760  1.0000
  S   S147      1.0  0.32790  0.59080  0.01240  1.0000
  S   S148      1.0  0.17210  0.90920  0.01240  1.0000
  S   S149      1.0  0.82790  0.40920  0.51240  1.0000
  S   S150      1.0  0.67210  0.09080  0.51240  1.0000
  S   S151      1.0  0.67210  0.40920  0.98760  1.0000
  S   S152      1.0  0.82790  0.09080  0.98760  1.0000
  S   S153      1.0  0.81630  0.57390  0.58500  1.0000
  S   S154      1.0  0.68370  0.92610  0.58500  1.0000
  S   S155      1.0  0.68370  0.57390  0.91500  1.0000
  S   S156      1.0  0.81630  0.92610  0.91500  1.0000
  S   S157      1.0  0.18370  0.42610  0.41500  1.0000
  S   S158      1.0  0.31630  0.07390  0.41500  1.0000
  S   S159      1.0  0.31630  0.42610  0.08500  1.0000
  S   S160      1.0  0.18370  0.07390  0.08500  1.0000
  Cd  Cd25      1.0  0.00212  0.68321  0.55584  1.0000
  Cd  Cd26      1.0  0.49788  0.81679  0.55584  1.0000
  Cd  Cd27      1.0  0.49788  0.68321  0.94416  1.0000
  Cd  Cd28      1.0  0.00212  0.81679  0.94416  1.0000
  Cd  Cd29      1.0  0.99788  0.31679  0.44416  1.0000
  Cd  Cd30      1.0  0.50212  0.18321  0.44416  1.0000
  Cd  Cd31      1.0  0.50212  0.31679  0.05584  1.0000
  Cd  Cd32      1.0  0.99788  0.18321  0.05584  1.0000
  In  In57      1.0  0.09646  0.73899  0.58606  1.0000
  In  In58      1.0  0.40354  0.76101  0.58606  1.0000
  In  In59      1.0  0.40354  0.73899  0.91394  1.0000
  In  In60      1.0  0.09646  0.76101  0.91394  1.0000
  In  In61      1.0  0.90354  0.26101  0.41394  1.0000
  In  In62      1.0  0.59646  0.23899  0.41394  1.0000
  In  In63      1.0  0.59646  0.26101  0.08606  1.0000
  In  In64      1.0  0.90354  0.23899  0.08606  1.0000
  In  In65      1.0  0.12119  0.68906  0.52440  1.0000
  In  In66      1.0  0.37881  0.81094  0.52440  1.0000
  In  In67      1.0  0.37881  0.68906  0.97560  1.0000
  In  In68      1.0  0.12119  0.81094  0.97560  1.0000
  In  In69      1.0  0.87881  0.31094  0.47560  1.0000
  In  In70      1.0  0.62119  0.18906  0.47560  1.0000
  In  In71      1.0  0.62119  0.31094  0.02440  1.0000
  In  In72      1.0  0.87881  0.18906  0.02440  1.0000
  In  In73      1.0  0.88470  0.67783  0.59009  1.0000
  In  In74      1.0  0.61530  0.82217  0.59009  1.0000
  In  In75      1.0  0.61530  0.67783  0.90991  1.0000
  In  In76      1.0  0.88470  0.82217  0.90991  1.0000
  In  In77      1.0  0.11530  0.32217  0.40991  1.0000
  In  In78      1.0  0.38470  0.17783  0.40991  1.0000
  In  In79      1.0  0.38470  0.32217  0.09009  1.0000
  In  In80      1.0  0.11530  0.17783  0.09009  1.0000
  In  In81      1.0  0.97675  0.73264  0.61935  1.0000
  In  In82      1.0  0.52325  0.76736  0.61935  1.0000
  In  In83      1.0  0.52325  0.73264  0.88065  1.0000
  In  In84      1.0  0.97675  0.76736  0.88065  1.0000
  In  In85      1.0  0.02325  0.26736  0.38065  1.0000
  In  In86      1.0  0.47675  0.23264  0.38065  1.0000
  In  In87      1.0  0.47675  0.26736  0.11935  1.0000
  In  In88      1.0  0.02325  0.23264  0.11935  1.0000
  In  In89      1.0  0.06901  0.78041  0.64684  1.0000
  In  In90      1.0  0.43099  0.71959  0.64684  1.0000
  In  In91      1.0  0.43099  0.78041  0.85316  1.0000
  In  In92      1.0  0.06901  0.71959  0.85316  1.0000
  In  In93      1.0  0.93099  0.21959  0.35316  1.0000
  In  In94      1.0  0.56901  0.28041  0.35316  1.0000
  In  In95      1.0  0.56901  0.21959  0.14684  1.0000
  In  In96      1.0  0.93099  0.28041  0.14684  1.0000
  In  In97      1.0  0.02593  0.63202  0.49288  1.0000
  In  In98      1.0  0.47407  0.86798  0.49288  1.0000
  In  In99      1.0  0.47407  0.63202  0.00712  1.0000
  In  In100     1.0  0.02593  0.86798  0.00712  1.0000
  In  In101     1.0  0.97407  0.36798  0.50712  1.0000
  In  In102     1.0  0.52593  0.13202  0.50712  1.0000
  In  In103     1.0  0.52593  0.36798  0.99288  1.0000
  In  In104     1.0  0.97407  0.13202  0.99288  1.0000
  In  In105     1.0  0.90971  0.62665  0.52546  1.0000
  In  In106     1.0  0.59029  0.87335  0.52546  1.0000
  In  In107     1.0  0.59029  0.62665  0.97454  1.0000
  In  In108     1.0  0.90971  0.87335  0.97454  1.0000
  In  In109     1.0  0.09029  0.37335  0.47454  1.0000
  In  In110     1.0  0.40971  0.12665  0.47454  1.0000
  In  In111     1.0  0.40971  0.37335  0.02546  1.0000
  In  In112     1.0  0.09029  0.12665  0.02546  1.0000
  In  In113     1.0  0.13882  0.63708  0.46710  1.0000
  In  In114     1.0  0.36118  0.86292  0.46710  1.0000
  In  In115     1.0  0.36118  0.63708  0.03290  1.0000
  In  In116     1.0  0.13882  0.86292  0.03290  1.0000
  In  In117     1.0  0.86118  0.36292  0.53290  1.0000
  In  In118     1.0  0.63882  0.13708  0.53290  1.0000
  In  In119     1.0  0.63882  0.36292  0.96710  1.0000
  In  In120     1.0  0.86118  0.13708  0.96710  1.0000
  In  In121     1.0  0.80346  0.62295  0.56069  1.0000
  In  In122     1.0  0.69654  0.87705  0.56069  1.0000
  In  In123     1.0  0.69654  0.62295  0.93931  1.0000
  In  In124     1.0  0.80346  0.87705  0.93931  1.0000
  In  In125     1.0  0.19654  0.37705  0.43931  1.0000
  In  In126     1.0  0.30346  0.12295  0.43931  1.0000
  In  In127     1.0  0.30346  0.37705  0.06069  1.0000
  In  In128     1.0  0.19654  0.12295  0.06069  1.0000
  S   S161      1.0  0.92140  0.67860  0.54827  1.0000
  S   S162      1.0  0.57860  0.82140  0.54827  1.0000
  S   S163      1.0  0.57860  0.67860  0.95173  1.0000
  S   S164      1.0  0.92140  0.82140  0.95173  1.0000
  S   S165      1.0  0.07860  0.32140  0.45173  1.0000
  S   S166      1.0  0.42140  0.17860  0.45173  1.0000
  S   S167      1.0  0.42140  0.32140  0.04827  1.0000
  S   S168      1.0  0.07860  0.17860  0.04827  1.0000
  S   S169      1.0  0.04110  0.68499  0.51462  1.0000
  S   S170      1.0  0.45890  0.81501  0.51462  1.0000
  S   S171      1.0  0.45890  0.68499  0.98538  1.0000
  S   S172      1.0  0.04110  0.81501  0.98538  1.0000
  S   S173      1.0  0.95890  0.31501  0.48538  1.0000
  S   S174      1.0  0.54110  0.18499  0.48538  1.0000
  S   S175      1.0  0.54110  0.31501  0.01462  1.0000
  S   S176      1.0  0.95890  0.18499  0.01462  1.0000
  S   S177      1.0  0.01550  0.73530  0.57857  1.0000
  S   S178      1.0  0.48450  0.76470  0.57857  1.0000
  S   S179      1.0  0.48450  0.73530  0.92143  1.0000
  S   S180      1.0  0.01550  0.76470  0.92143  1.0000
  S   S181      1.0  0.98450  0.26470  0.42143  1.0000
  S   S182      1.0  0.51550  0.23530  0.42143  1.0000
  S   S183      1.0  0.51550  0.26470  0.07857  1.0000
  S   S184      1.0  0.98450  0.23530  0.07857  1.0000
  S   S185      1.0  0.13550  0.73960  0.54664  1.0000
  S   S186      1.0  0.36450  0.76040  0.54664  1.0000
  S   S187      1.0  0.36450  0.73960  0.95336  1.0000
  S   S188      1.0  0.13550  0.76040  0.95336  1.0000
  S   S189      1.0  0.86450  0.26040  0.45336  1.0000
  S   S190      1.0  0.63550  0.23960  0.45336  1.0000
  S   S191      1.0  0.63550  0.26040  0.04664  1.0000
  S   S192      1.0  0.86450  0.23960  0.04664  1.0000
  S   S193      1.0  0.11040  0.78960  0.60870  1.0000
  S   S194      1.0  0.38960  0.71040  0.60870  1.0000
  S   S195      1.0  0.38960  0.78960  0.89130  1.0000
  S   S196      1.0  0.11040  0.71040  0.89130  1.0000
  S   S197      1.0  0.88960  0.21040  0.39130  1.0000
  S   S198      1.0  0.61040  0.28960  0.39130  1.0000
  S   S199      1.0  0.61040  0.21040  0.10870  1.0000
  S   S200      1.0  0.88960  0.28960  0.10870  1.0000
  S   S201      1.0  0.15990  0.69010  0.48414  1.0000
  S   S202      1.0  0.34010  0.80990  0.48414  1.0000
  S   S203      1.0  0.34010  0.69010  0.01586  1.0000
  S   S204      1.0  0.15990  0.80990  0.01586  1.0000
  S   S205      1.0  0.84010  0.30990  0.51586  1.0000
  S   S206      1.0  0.65990  0.19010  0.51586  1.0000
  S   S207      1.0  0.65990  0.30990  0.98414  1.0000
  S   S208      1.0  0.84010  0.19010  0.98414  1.0000
  S   S209      1.0  0.80610  0.67320  0.58381  1.0000
  S   S210      1.0  0.69390  0.82680  0.58381  1.0000
  S   S211      1.0  0.69390  0.67320  0.91619  1.0000
  S   S212      1.0  0.80610  0.82680  0.91619  1.0000
  S   S213      1.0  0.19390  0.32680  0.41619  1.0000
  S   S214      1.0  0.30610  0.17320  0.41619  1.0000
  S   S215      1.0  0.30610  0.32680  0.08381  1.0000
  S   S216      1.0  0.19390  0.17320  0.08381  1.0000
  S   S217      1.0  0.89910  0.72880  0.61174  1.0000
  S   S218      1.0  0.60090  0.77120  0.61174  1.0000
  S   S219      1.0  0.60090  0.72880  0.88826  1.0000
  S   S220      1.0  0.89910  0.77120  0.88826  1.0000
  S   S221      1.0  0.10090  0.27120  0.38826  1.0000
  S   S222      1.0  0.39910  0.22880  0.38826  1.0000
  S   S223      1.0  0.39910  0.27120  0.11174  1.0000
  S   S224      1.0  0.10090  0.22880  0.11174  1.0000
  S   S225      1.0  0.98940  0.78320  0.64190  1.0000
  S   S226      1.0  0.51060  0.71680  0.64190  1.0000
  S   S227      1.0  0.51060  0.78320  0.85810  1.0000
  S   S228      1.0  0.98940  0.71680  0.85810  1.0000
  S   S229      1.0  0.01060  0.21680  0.35810  1.0000
  S   S230      1.0  0.48940  0.28320  0.35810  1.0000
  S   S231      1.0  0.48940  0.21680  0.14190  1.0000
  S   S232      1.0  0.01060  0.28320  0.14190  1.0000
  N   N1        1.0  0.07470  0.82750  0.66620  1.0000
  N   N2        1.0  0.42530  0.67250  0.66620  1.0000
  N   N3        1.0  0.42530  0.82750  0.83380  1.0000
  N   N4        1.0  0.07470  0.67250  0.83380  1.0000
  N   N5        1.0  0.92530  0.17250  0.33380  1.0000
  N   N6        1.0  0.57470  0.32750  0.33380  1.0000
  N   N7        1.0  0.57470  0.17250  0.16620  1.0000
  N   N8        1.0  0.92530  0.32750  0.16620  1.0000
  S   S233      1.0  0.94780  0.62740  0.48517  1.0000
  S   S234      1.0  0.55220  0.87260  0.48517  1.0000
  S   S235      1.0  0.55220  0.62740  0.01483  1.0000
  S   S236      1.0  0.94780  0.87260  0.01483  1.0000
  S   S237      1.0  0.05220  0.37260  0.51483  1.0000
  S   S238      1.0  0.44780  0.12740  0.51483  1.0000
  S   S239      1.0  0.44780  0.37260  0.98517  1.0000
  S   S240      1.0  0.05220  0.12740  0.98517  1.0000
  S   S241      1.0  0.06420  0.63190  0.45282  1.0000
  S   S242      1.0  0.43580  0.86810  0.45282  1.0000
  S   S243      1.0  0.43580  0.63190  0.04718  1.0000
  S   S244      1.0  0.06420  0.86810  0.04718  1.0000
  S   S245      1.0  0.93580  0.36810  0.54718  1.0000
  S   S246      1.0  0.56420  0.13190  0.54718  1.0000
  S   S247      1.0  0.56420  0.36810  0.95282  1.0000
  S   S248      1.0  0.93580  0.13190  0.95282  1.0000
  S   S249      1.0  0.83110  0.62290  0.51801  1.0000
  S   S250      1.0  0.66890  0.87710  0.51801  1.0000
  S   S251      1.0  0.66890  0.62290  0.98199  1.0000
  S   S252      1.0  0.83110  0.87710  0.98199  1.0000
  S   S253      1.0  0.16890  0.37710  0.48199  1.0000
  S   S254      1.0  0.33110  0.12290  0.48199  1.0000
  S   S255      1.0  0.33110  0.37710  0.01801  1.0000
  S   S256      1.0  0.16890  0.12290  0.01801  1.0000
  N   N9        1.0  0.17740  0.63540  0.43260  1.0000
  N   N10       1.0  0.32260  0.86460  0.43260  1.0000
  N   N11       1.0  0.32260  0.63540  0.06740  1.0000
  N   N12       1.0  0.17740  0.86460  0.06740  1.0000
  N   N13       1.0  0.82260  0.36460  0.56740  1.0000
  N   N14       1.0  0.67740  0.13540  0.56740  1.0000
  N   N15       1.0  0.67740  0.36460  0.93260  1.0000
  N   N16       1.0  0.82260  0.13540  0.93260  1.0000
  N   N17       1.0  0.73500  0.62160  0.55260  1.0000
  N   N18       1.0  0.76500  0.87840  0.55260  1.0000
  N   N19       1.0  0.76500  0.62160  0.94740  1.0000
  N   N20       1.0  0.73500  0.87840  0.94740  1.0000
  N   N21       1.0  0.26500  0.37840  0.44740  1.0000
  N   N22       1.0  0.23500  0.12160  0.44740  1.0000
  N   N23       1.0  0.23500  0.37840  0.05260  1.0000
  N   N24       1.0  0.26500  0.12160  0.05260  1.0000
  C   C1        1.0  0.16400  0.64270  0.40850  1.0000
  C   C2        1.0  0.33600  0.85730  0.40850  1.0000
  C   C3        1.0  0.33600  0.64270  0.09150  1.0000
  C   C4        1.0  0.16400  0.85730  0.09150  1.0000
  C   C5        1.0  0.83600  0.35730  0.59150  1.0000
  C   C6        1.0  0.66400  0.14270  0.59150  1.0000
  C   C7        1.0  0.66400  0.35730  0.90850  1.0000
  C   C8        1.0  0.83600  0.14270  0.90850  1.0000
  C   C9        1.0  0.21950  0.62970  0.43090  1.0000
  C   C10       1.0  0.28050  0.87030  0.43090  1.0000
  C   C11       1.0  0.28050  0.62970  0.06910  1.0000
  C   C12       1.0  0.21950  0.87030  0.06910  1.0000
  C   C13       1.0  0.78050  0.37030  0.56910  1.0000
  C   C14       1.0  0.71950  0.12970  0.56910  1.0000
  C   C15       1.0  0.71950  0.37030  0.93090  1.0000
  C   C16       1.0  0.78050  0.12970  0.93090  1.0000
  C   C17       1.0  0.70230  0.62950  0.56680  1.0000
  C   C18       1.0  0.79770  0.87050  0.56680  1.0000
  C   C19       1.0  0.79770  0.62950  0.93320  1.0000
  C   C20       1.0  0.70230  0.87050  0.93320  1.0000
  C   C21       1.0  0.29770  0.37050  0.43320  1.0000
  C   C22       1.0  0.20230  0.12950  0.43320  1.0000
  C   C23       1.0  0.20230  0.37050  0.06680  1.0000
  C   C24       1.0  0.29770  0.12950  0.06680  1.0000
  C   C25       1.0  0.72030  0.61730  0.53010  1.0000
  C   C26       1.0  0.77970  0.88270  0.53010  1.0000
  C   C27       1.0  0.77970  0.61730  0.96990  1.0000
  C   C28       1.0  0.72030  0.88270  0.96990  1.0000
  C   C29       1.0  0.27970  0.38270  0.46990  1.0000
  C   C30       1.0  0.22030  0.11730  0.46990  1.0000
  C   C31       1.0  0.22030  0.38270  0.03010  1.0000
  C   C32       1.0  0.27970  0.11730  0.03010  1.0000
  H   H1        1.0  0.13680  0.65120  0.40420  1.0000
  H   H2        1.0  0.36320  0.84880  0.40420  1.0000
  H   H3        1.0  0.36320  0.65120  0.09580  1.0000
  H   H4        1.0  0.13680  0.84880  0.09580  1.0000
  H   H5        1.0  0.86320  0.34880  0.59580  1.0000
  H   H6        1.0  0.63680  0.15120  0.59580  1.0000
  H   H7        1.0  0.63680  0.34880  0.90420  1.0000
  H   H8        1.0  0.86320  0.15120  0.90420  1.0000
  C   C33       1.0  0.19780  0.63550  0.39120  1.0000
  C   C34       1.0  0.30220  0.86450  0.39120  1.0000
  C   C35       1.0  0.30220  0.63550  0.10880  1.0000
  C   C36       1.0  0.19780  0.86450  0.10880  1.0000
  C   C37       1.0  0.80220  0.36450  0.60880  1.0000
  C   C38       1.0  0.69780  0.13550  0.60880  1.0000
  C   C39       1.0  0.69780  0.36450  0.89120  1.0000
  C   C40       1.0  0.80220  0.13550  0.89120  1.0000
  N   N25       1.0  0.23320  0.63160  0.40640  1.0000
  N   N26       1.0  0.26680  0.86840  0.40640  1.0000
  N   N27       1.0  0.26680  0.63160  0.09360  1.0000
  N   N28       1.0  0.23320  0.86840  0.09360  1.0000
  N   N29       1.0  0.76680  0.36840  0.59360  1.0000
  N   N30       1.0  0.73320  0.13160  0.59360  1.0000
  N   N31       1.0  0.73320  0.36840  0.90640  1.0000
  N   N32       1.0  0.76680  0.13160  0.90640  1.0000
  H   H9        1.0  0.23770  0.62500  0.44450  1.0000
  H   H10       1.0  0.26230  0.87500  0.44450  1.0000
  H   H11       1.0  0.26230  0.62500  0.05550  1.0000
  H   H12       1.0  0.23770  0.87500  0.05550  1.0000
  H   H13       1.0  0.76230  0.37500  0.55550  1.0000
  H   H14       1.0  0.73770  0.12500  0.55550  1.0000
  H   H15       1.0  0.73770  0.37500  0.94450  1.0000
  H   H16       1.0  0.76230  0.12500  0.94450  1.0000
  H   H17       1.0  0.70270  0.63450  0.58390  1.0000
  H   H18       1.0  0.79730  0.86550  0.58390  1.0000
  H   H19       1.0  0.79730  0.63450  0.91610  1.0000
  H   H20       1.0  0.70270  0.86550  0.91610  1.0000
  H   H21       1.0  0.29730  0.36550  0.41610  1.0000
  H   H22       1.0  0.20270  0.13450  0.41610  1.0000
  H   H23       1.0  0.20270  0.36550  0.08390  1.0000
  H   H24       1.0  0.29730  0.13450  0.08390  1.0000
  C   C41       1.0  0.66540  0.62870  0.55020  1.0000
  C   C42       1.0  0.83460  0.87130  0.55020  1.0000
  C   C43       1.0  0.83460  0.62870  0.94980  1.0000
  C   C44       1.0  0.66540  0.87130  0.94980  1.0000
  C   C45       1.0  0.33460  0.37130  0.44980  1.0000
  C   C46       1.0  0.16540  0.12870  0.44980  1.0000
  C   C47       1.0  0.16540  0.37130  0.05020  1.0000
  C   C48       1.0  0.33460  0.12870  0.05020  1.0000
  H   H25       1.0  0.73810  0.61340  0.51630  1.0000
  H   H26       1.0  0.76190  0.88660  0.51630  1.0000
  H   H27       1.0  0.76190  0.61340  0.98370  1.0000
  H   H28       1.0  0.73810  0.88660  0.98370  1.0000
  H   H29       1.0  0.26190  0.38660  0.48370  1.0000
  H   H30       1.0  0.23810  0.11340  0.48370  1.0000
  H   H31       1.0  0.23810  0.38660  0.01630  1.0000
  H   H32       1.0  0.26190  0.11340  0.01630  1.0000
  N   N33       1.0  0.67610  0.61920  0.52900  1.0000
  N   N34       1.0  0.82390  0.88080  0.52900  1.0000
  N   N35       1.0  0.82390  0.61920  0.97100  1.0000
  N   N36       1.0  0.67610  0.88080  0.97100  1.0000
  N   N37       1.0  0.32390  0.38080  0.47100  1.0000
  N   N38       1.0  0.17610  0.11920  0.47100  1.0000
  N   N39       1.0  0.17610  0.38080  0.02900  1.0000
  N   N40       1.0  0.32390  0.11920  0.02900  1.0000
  H   H33       1.0  0.19620  0.63390  0.37380  1.0000
  H   H34       1.0  0.30380  0.86610  0.37380  1.0000
  H   H35       1.0  0.30380  0.63390  0.12620  1.0000
  H   H36       1.0  0.19620  0.86610  0.12620  1.0000
  H   H37       1.0  0.80380  0.36610  0.62620  1.0000
  H   H38       1.0  0.69620  0.13390  0.62620  1.0000
  H   H39       1.0  0.69620  0.36610  0.87380  1.0000
  H   H40       1.0  0.80380  0.13390  0.87380  1.0000
  In  In129     1.0  0.30335  0.62072  0.39911  1.0000
  In  In130     1.0  0.19665  0.87928  0.39911  1.0000
  In  In131     1.0  0.19665  0.62072  0.10089  1.0000
  In  In132     1.0  0.30335  0.87928  0.10089  1.0000
  In  In133     1.0  0.69665  0.37928  0.60089  1.0000
  In  In134     1.0  0.80335  0.12072  0.60089  1.0000
  In  In135     1.0  0.80335  0.37928  0.89911  1.0000
  In  In136     1.0  0.69665  0.12072  0.89911  1.0000
  H   H41       1.0  0.63700  0.63450  0.55480  1.0000
  H   H42       1.0  0.86300  0.86550  0.55480  1.0000
  H   H43       1.0  0.86300  0.63450  0.94520  1.0000
  H   H44       1.0  0.63700  0.86550  0.94520  1.0000
  H   H45       1.0  0.36300  0.36550  0.44520  1.0000
  H   H46       1.0  0.13700  0.13450  0.44520  1.0000
  H   H47       1.0  0.13700  0.36550  0.05480  1.0000
  H   H48       1.0  0.36300  0.13450  0.05480  1.0000
  In  In137     1.0  0.63645  0.61205  0.49418  1.0000
  In  In138     1.0  0.86355  0.88795  0.49418  1.0000
  In  In139     1.0  0.86355  0.61205  0.00582  1.0000
  In  In140     1.0  0.63645  0.88795  0.00582  1.0000
  In  In141     1.0  0.36355  0.38795  0.50582  1.0000
  In  In142     1.0  0.13645  0.11205  0.50582  1.0000
  In  In143     1.0  0.13645  0.38795  0.99418  1.0000
  In  In144     1.0  0.36355  0.11205  0.99418  1.0000
  S   S257      1.0  0.56230  0.62400  0.50773  1.0000
  S   S258      1.0  0.93770  0.87600  0.50773  1.0000
  S   S259      1.0  0.93770  0.62400  0.99227  1.0000
  S   S260      1.0  0.56230  0.87600  0.99227  1.0000
  S   S261      1.0  0.43770  0.37600  0.49227  1.0000
  S   S262      1.0  0.06230  0.12400  0.49227  1.0000
  S   S263      1.0  0.06230  0.37600  0.00773  1.0000
  S   S264      1.0  0.43770  0.12400  0.00773  1.0000
  S   S265      1.0  0.65480  0.55610  0.48492  1.0000
  S   S266      1.0  0.84520  0.94390  0.48492  1.0000
  S   S267      1.0  0.84520  0.55610  0.01508  1.0000
  S   S268      1.0  0.65480  0.94390  0.01508  1.0000
  S   S269      1.0  0.34520  0.44390  0.51508  1.0000
  S   S270      1.0  0.15480  0.05610  0.51508  1.0000
  S   S271      1.0  0.15480  0.44390  0.98492  1.0000
  S   S272      1.0  0.34520  0.05610  0.98492  1.0000
  S   S273      1.0  0.67260  0.65260  0.46770  1.0000
  S   S274      1.0  0.82740  0.84740  0.46770  1.0000
  S   S275      1.0  0.82740  0.65260  0.03230  1.0000
  S   S276      1.0  0.67260  0.84740  0.03230  1.0000
  S   S277      1.0  0.32740  0.34740  0.53230  1.0000
  S   S278      1.0  0.17260  0.15260  0.53230  1.0000
  S   S279      1.0  0.17260  0.34740  0.96770  1.0000
  S   S280      1.0  0.32740  0.15260  0.96770  1.0000
  In  In145     1.0  0.52482  0.61594  0.46774  1.0000
  In  In146     1.0  0.97518  0.88406  0.46774  1.0000
  In  In147     1.0  0.97518  0.61594  0.03226  1.0000
  In  In148     1.0  0.52482  0.88406  0.03226  1.0000
  In  In149     1.0  0.47518  0.38406  0.53226  1.0000
  In  In150     1.0  0.02482  0.11594  0.53226  1.0000
  In  In151     1.0  0.02482  0.38406  0.96774  1.0000
  In  In152     1.0  0.47518  0.11594  0.96774  1.0000
  In  In153     1.0  0.61542  0.54828  0.44597  1.0000
  In  In154     1.0  0.88458  0.95172  0.44597  1.0000
  In  In155     1.0  0.88458  0.54828  0.05403  1.0000
  In  In156     1.0  0.61542  0.95172  0.05403  1.0000
  In  In157     1.0  0.38458  0.45172  0.55403  1.0000
  In  In158     1.0  0.11542  0.04828  0.55403  1.0000
  In  In159     1.0  0.11542  0.45172  0.94597  1.0000
  In  In160     1.0  0.38458  0.04828  0.94597  1.0000
  In  In161     1.0  0.63398  0.64365  0.42836  1.0000
  In  In162     1.0  0.86602  0.85635  0.42836  1.0000
  In  In163     1.0  0.86602  0.64365  0.07164  1.0000
  In  In164     1.0  0.63398  0.85635  0.07164  1.0000
  In  In165     1.0  0.36602  0.35635  0.57164  1.0000
  In  In166     1.0  0.13398  0.14365  0.57164  1.0000
  In  In167     1.0  0.13398  0.35635  0.92836  1.0000
  In  In168     1.0  0.36602  0.14365  0.92836  1.0000
  S   S281      1.0  0.53580  0.55879  0.45369  1.0000
  S   S282      1.0  0.96420  0.94121  0.45369  1.0000
  S   S283      1.0  0.96420  0.55879  0.04631  1.0000
  S   S284      1.0  0.53580  0.94121  0.04631  1.0000
  S   S285      1.0  0.46420  0.44121  0.54631  1.0000
  S   S286      1.0  0.03580  0.05879  0.54631  1.0000
  S   S287      1.0  0.03580  0.44121  0.95369  1.0000
  S   S288      1.0  0.46420  0.05879  0.95369  1.0000
  S   S289      1.0  0.55490  0.65540  0.43644  1.0000
  S   S290      1.0  0.94510  0.84460  0.43644  1.0000
  S   S291      1.0  0.94510  0.65540  0.06356  1.0000
  S   S292      1.0  0.55490  0.84460  0.06356  1.0000
  S   S293      1.0  0.44510  0.34460  0.56356  1.0000
  S   S294      1.0  0.05490  0.15540  0.56356  1.0000
  S   S295      1.0  0.05490  0.34460  0.93644  1.0000
  S   S296      1.0  0.44510  0.15540  0.93644  1.0000
  S   S297      1.0  0.44690  0.62640  0.47450  1.0000
  S   S298      1.0  0.05310  0.87360  0.47450  1.0000
  S   S299      1.0  0.05310  0.62640  0.02550  1.0000
  S   S300      1.0  0.44690  0.87360  0.02550  1.0000
  S   S301      1.0  0.55310  0.37360  0.52550  1.0000
  S   S302      1.0  0.94690  0.12640  0.52550  1.0000
  S   S303      1.0  0.94690  0.37360  0.97450  1.0000
  S   S304      1.0  0.55310  0.12640  0.97450  1.0000
  S   S305      1.0  0.64700  0.58640  0.41453  1.0000
  S   S306      1.0  0.85300  0.91360  0.41453  1.0000
  S   S307      1.0  0.85300  0.58640  0.08547  1.0000
  S   S308      1.0  0.64700  0.91360  0.08547  1.0000
  S   S309      1.0  0.35300  0.41360  0.58547  1.0000
  S   S310      1.0  0.14700  0.08640  0.58547  1.0000
  S   S311      1.0  0.14700  0.41360  0.91453  1.0000
  S   S312      1.0  0.35300  0.08640  0.91453  1.0000
  S   S313      1.0  0.62590  0.49260  0.43162  1.0000
  S   S314      1.0  0.87410  0.00740  0.43162  1.0000
  S   S315      1.0  0.87410  0.49260  0.06838  1.0000
  S   S316      1.0  0.62590  0.00740  0.06838  1.0000
  S   S317      1.0  0.37410  0.50740  0.56838  1.0000
  S   S318      1.0  0.12590  0.99260  0.56838  1.0000
  S   S319      1.0  0.12590  0.50740  0.93162  1.0000
  S   S320      1.0  0.37410  0.99260  0.93162  1.0000
  S   S321      1.0  0.66310  0.68080  0.39785  1.0000
  S   S322      1.0  0.83690  0.81920  0.39785  1.0000
  S   S323      1.0  0.83690  0.68080  0.10215  1.0000
  S   S324      1.0  0.66310  0.81920  0.10215  1.0000
  S   S325      1.0  0.33690  0.31920  0.60215  1.0000
  S   S326      1.0  0.16310  0.18080  0.60215  1.0000
  S   S327      1.0  0.16310  0.31920  0.89785  1.0000
  S   S328      1.0  0.33690  0.18080  0.89785  1.0000
  Cd  Cd33      1.0  0.49631  0.55128  0.41349  1.0000
  Cd  Cd34      1.0  0.00369  0.94872  0.41349  1.0000
  Cd  Cd35      1.0  0.00369  0.55128  0.08651  1.0000
  Cd  Cd36      1.0  0.49631  0.94872  0.08651  1.0000
  Cd  Cd37      1.0  0.50369  0.44872  0.58651  1.0000
  Cd  Cd38      1.0  0.99631  0.05128  0.58651  1.0000
  Cd  Cd39      1.0  0.99631  0.44872  0.91349  1.0000
  Cd  Cd40      1.0  0.50369  0.05128  0.91349  1.0000
  Cd  Cd41      1.0  0.51566  0.64706  0.39584  1.0000
  Cd  Cd42      1.0  0.98434  0.85294  0.39584  1.0000
  Cd  Cd43      1.0  0.98434  0.64706  0.10416  1.0000
  Cd  Cd44      1.0  0.51566  0.85294  0.10416  1.0000
  Cd  Cd45      1.0  0.48434  0.35294  0.60416  1.0000
  Cd  Cd46      1.0  0.01566  0.14706  0.60416  1.0000
  Cd  Cd47      1.0  0.01566  0.35294  0.89584  1.0000
  Cd  Cd48      1.0  0.48434  0.14706  0.89584  1.0000
  In  In169     1.0  0.40926  0.61865  0.43478  1.0000
  In  In170     1.0  0.09074  0.88135  0.43478  1.0000
  In  In171     1.0  0.09074  0.61865  0.06522  1.0000
  In  In172     1.0  0.40926  0.88135  0.06522  1.0000
  In  In173     1.0  0.59074  0.38135  0.56522  1.0000
  In  In174     1.0  0.90926  0.11865  0.56522  1.0000
  In  In175     1.0  0.90926  0.38135  0.93478  1.0000
  In  In176     1.0  0.59074  0.11865  0.93478  1.0000
  Cd  Cd49      1.0  0.60616  0.57870  0.37425  1.0000
  Cd  Cd50      1.0  0.89384  0.92130  0.37425  1.0000
  Cd  Cd51      1.0  0.89384  0.57870  0.12575  1.0000
  Cd  Cd52      1.0  0.60616  0.92130  0.12575  1.0000
  Cd  Cd53      1.0  0.39384  0.42130  0.62575  1.0000
  Cd  Cd54      1.0  0.10616  0.07870  0.62575  1.0000
  Cd  Cd55      1.0  0.10616  0.42130  0.87425  1.0000
  Cd  Cd56      1.0  0.39384  0.07870  0.87425  1.0000
  In  In177     1.0  0.58653  0.48546  0.39274  1.0000
  In  In178     1.0  0.91347  0.01454  0.39274  1.0000
  In  In179     1.0  0.91347  0.48546  0.10726  1.0000
  In  In180     1.0  0.58653  0.01454  0.10726  1.0000
  In  In181     1.0  0.41347  0.51454  0.60726  1.0000
  In  In182     1.0  0.08653  0.98546  0.60726  1.0000
  In  In183     1.0  0.08653  0.51454  0.89274  1.0000
  In  In184     1.0  0.41347  0.98546  0.89274  1.0000
  In  In185     1.0  0.62398  0.67285  0.35820  1.0000
  In  In186     1.0  0.87602  0.82715  0.35820  1.0000
  In  In187     1.0  0.87602  0.67285  0.14180  1.0000
  In  In188     1.0  0.62398  0.82715  0.14180  1.0000
  In  In189     1.0  0.37602  0.32715  0.64180  1.0000
  In  In190     1.0  0.12398  0.17285  0.64180  1.0000
  In  In191     1.0  0.12398  0.32715  0.85820  1.0000
  In  In192     1.0  0.37602  0.17285  0.85820  1.0000
  S   S329      1.0  0.52610  0.58990  0.38088  1.0000
  S   S330      1.0  0.97390  0.91010  0.38088  1.0000
  S   S331      1.0  0.97390  0.58990  0.11912  1.0000
  S   S332      1.0  0.52610  0.91010  0.11912  1.0000
  S   S333      1.0  0.47390  0.41010  0.61912  1.0000
  S   S334      1.0  0.02610  0.08990  0.61912  1.0000
  S   S335      1.0  0.02610  0.41010  0.88088  1.0000
  S   S336      1.0  0.47390  0.08990  0.88088  1.0000
  S   S337      1.0  0.41680  0.56170  0.42007  1.0000
  S   S338      1.0  0.08320  0.93830  0.42007  1.0000
  S   S339      1.0  0.08320  0.56170  0.07993  1.0000
  S   S340      1.0  0.41680  0.93830  0.07993  1.0000
  S   S341      1.0  0.58320  0.43830  0.57993  1.0000
  S   S342      1.0  0.91680  0.06170  0.57993  1.0000
  S   S343      1.0  0.91680  0.43830  0.92007  1.0000
  S   S344      1.0  0.58320  0.06170  0.92007  1.0000
  S   S345      1.0  0.50600  0.49388  0.39872  1.0000
  S   S346      1.0  0.99400  0.00612  0.39872  1.0000
  S   S347      1.0  0.99400  0.49388  0.10128  1.0000
  S   S348      1.0  0.50600  0.00612  0.10128  1.0000
  S   S349      1.0  0.49400  0.50612  0.60128  1.0000
  S   S350      1.0  0.00600  0.99388  0.60128  1.0000
  S   S351      1.0  0.00600  0.50612  0.89872  1.0000
  S   S352      1.0  0.49400  0.99388  0.89872  1.0000
  S   S353      1.0  0.43620  0.65830  0.40261  1.0000
  S   S354      1.0  0.06380  0.84170  0.40261  1.0000
  S   S355      1.0  0.06380  0.65830  0.09739  1.0000
  S   S356      1.0  0.43620  0.84170  0.09739  1.0000
  S   S357      1.0  0.56380  0.34170  0.59739  1.0000
  S   S358      1.0  0.93620  0.15830  0.59739  1.0000
  S   S359      1.0  0.93620  0.34170  0.90261  1.0000
  S   S360      1.0  0.56380  0.15830  0.90261  1.0000
  S   S361      1.0  0.54460  0.68570  0.36391  1.0000
  S   S362      1.0  0.95540  0.81430  0.36391  1.0000
  S   S363      1.0  0.95540  0.68570  0.13609  1.0000
  S   S364      1.0  0.54460  0.81430  0.13609  1.0000
  S   S365      1.0  0.45540  0.31430  0.63609  1.0000
  S   S366      1.0  0.04460  0.18570  0.63609  1.0000
  S   S367      1.0  0.04460  0.31430  0.86391  1.0000
  S   S368      1.0  0.45540  0.18570  0.86391  1.0000
  S   S369      1.0  0.33180  0.63070  0.44161  1.0000
  S   S370      1.0  0.16820  0.86930  0.44161  1.0000
  S   S371      1.0  0.16820  0.63070  0.05839  1.0000
  S   S372      1.0  0.33180  0.86930  0.05839  1.0000
  S   S373      1.0  0.66820  0.36930  0.55839  1.0000
  S   S374      1.0  0.83180  0.13070  0.55839  1.0000
  S   S375      1.0  0.83180  0.36930  0.94161  1.0000
  S   S376      1.0  0.66820  0.13070  0.94161  1.0000
  S   S377      1.0  0.61760  0.52170  0.35943  1.0000
  S   S378      1.0  0.88240  0.97830  0.35943  1.0000
  S   S379      1.0  0.88240  0.52170  0.14057  1.0000
  S   S380      1.0  0.61760  0.97830  0.14057  1.0000
  S   S381      1.0  0.38240  0.47830  0.64057  1.0000
  S   S382      1.0  0.11760  0.02170  0.64057  1.0000
  S   S383      1.0  0.11760  0.47830  0.85943  1.0000
  S   S384      1.0  0.38240  0.02170  0.85943  1.0000
  S   S385      1.0  0.63600  0.61680  0.34199  1.0000
  S   S386      1.0  0.86400  0.88320  0.34199  1.0000
  S   S387      1.0  0.86400  0.61680  0.15801  1.0000
  S   S388      1.0  0.63600  0.88320  0.15801  1.0000
  S   S389      1.0  0.36400  0.38320  0.65801  1.0000
  S   S390      1.0  0.13600  0.11680  0.65801  1.0000
  S   S391      1.0  0.13600  0.38320  0.84199  1.0000
  S   S392      1.0  0.36400  0.11680  0.84199  1.0000
  S   S393      1.0  0.59630  0.42960  0.37904  1.0000
  S   S394      1.0  0.90370  0.07040  0.37904  1.0000
  S   S395      1.0  0.90370  0.42960  0.12096  1.0000
  S   S396      1.0  0.59630  0.07040  0.12096  1.0000
  S   S397      1.0  0.40370  0.57040  0.62096  1.0000
  S   S398      1.0  0.09630  0.92960  0.62096  1.0000
  S   S399      1.0  0.09630  0.57040  0.87904  1.0000
  S   S400      1.0  0.40370  0.92960  0.87904  1.0000
  S   S401      1.0  0.65470  0.70970  0.32715  1.0000
  S   S402      1.0  0.84530  0.79030  0.32715  1.0000
  S   S403      1.0  0.84530  0.70970  0.17285  1.0000
  S   S404      1.0  0.65470  0.79030  0.17285  1.0000
  S   S405      1.0  0.34530  0.29030  0.67285  1.0000
  S   S406      1.0  0.15470  0.20970  0.67285  1.0000
  S   S407      1.0  0.15470  0.29030  0.82715  1.0000
  S   S408      1.0  0.34530  0.20970  0.82715  1.0000
  Cd  Cd57      1.0  0.48637  0.58177  0.33966  1.0000
  Cd  Cd58      1.0  0.01363  0.91823  0.33966  1.0000
  Cd  Cd59      1.0  0.01363  0.58177  0.16034  1.0000
  Cd  Cd60      1.0  0.48637  0.91823  0.16034  1.0000
  Cd  Cd61      1.0  0.51363  0.41823  0.66034  1.0000
  Cd  Cd62      1.0  0.98637  0.08177  0.66034  1.0000
  Cd  Cd63      1.0  0.98637  0.41823  0.83966  1.0000
  Cd  Cd64      1.0  0.51363  0.08177  0.83966  1.0000
  In  In193     1.0  0.38000  0.55448  0.37854  1.0000
  In  In194     1.0  0.12000  0.94552  0.37854  1.0000
  In  In195     1.0  0.12000  0.55448  0.12146  1.0000
  In  In196     1.0  0.38000  0.94552  0.12146  1.0000
  In  In197     1.0  0.62000  0.44552  0.62146  1.0000
  In  In198     1.0  0.88000  0.05448  0.62146  1.0000
  In  In199     1.0  0.88000  0.44552  0.87854  1.0000
  In  In200     1.0  0.62000  0.05448  0.87854  1.0000
  In  In201     1.0  0.46695  0.48838  0.35789  1.0000
  In  In202     1.0  0.03305  0.01162  0.35789  1.0000
  In  In203     1.0  0.03305  0.48838  0.14211  1.0000
  In  In204     1.0  0.46695  0.01162  0.14211  1.0000
  In  In205     1.0  0.53305  0.51162  0.64211  1.0000
  In  In206     1.0  0.96695  0.98838  0.64211  1.0000
  In  In207     1.0  0.96695  0.51162  0.85789  1.0000
  In  In208     1.0  0.53305  0.98838  0.85789  1.0000
  In  In209     1.0  0.39850  0.64989  0.36141  1.0000
  In  In210     1.0  0.10150  0.85011  0.36141  1.0000
  In  In211     1.0  0.10150  0.64989  0.13859  1.0000
  In  In212     1.0  0.39850  0.85011  0.13859  1.0000
  In  In213     1.0  0.60150  0.35011  0.63859  1.0000
  In  In214     1.0  0.89850  0.14989  0.63859  1.0000
  In  In215     1.0  0.89850  0.35011  0.86141  1.0000
  In  In216     1.0  0.60150  0.14989  0.86141  1.0000
  In  In217     1.0  0.50454  0.67612  0.32384  1.0000
  In  In218     1.0  0.99546  0.82388  0.32384  1.0000
  In  In219     1.0  0.99546  0.67612  0.17616  1.0000
  In  In220     1.0  0.50454  0.82388  0.17616  1.0000
  In  In221     1.0  0.49546  0.32388  0.67616  1.0000
  In  In222     1.0  0.00454  0.17612  0.67616  1.0000
  In  In223     1.0  0.00454  0.32388  0.82384  1.0000
  In  In224     1.0  0.49546  0.17612  0.82384  1.0000
  In  In225     1.0  0.57667  0.51539  0.31930  1.0000
  In  In226     1.0  0.92333  0.98461  0.31930  1.0000
  In  In227     1.0  0.92333  0.51539  0.18070  1.0000
  In  In228     1.0  0.57667  0.98461  0.18070  1.0000
  In  In229     1.0  0.42333  0.48461  0.68070  1.0000
  In  In230     1.0  0.07667  0.01539  0.68070  1.0000
  In  In231     1.0  0.07667  0.48461  0.81930  1.0000
  In  In232     1.0  0.42333  0.01539  0.81930  1.0000
  In  In233     1.0  0.59458  0.60755  0.30212  1.0000
  In  In234     1.0  0.90542  0.89245  0.30212  1.0000
  In  In235     1.0  0.90542  0.60755  0.19788  1.0000
  In  In236     1.0  0.59458  0.89245  0.19788  1.0000
  In  In237     1.0  0.40542  0.39245  0.69788  1.0000
  In  In238     1.0  0.09458  0.10755  0.69788  1.0000
  In  In239     1.0  0.09458  0.39245  0.80212  1.0000
  In  In240     1.0  0.40542  0.10755  0.80212  1.0000
  In  In241     1.0  0.55611  0.43047  0.33919  1.0000
  In  In242     1.0  0.94389  0.06953  0.33919  1.0000
  In  In243     1.0  0.94389  0.43047  0.16081  1.0000
  In  In244     1.0  0.55611  0.06953  0.16081  1.0000
  In  In245     1.0  0.44389  0.56953  0.66081  1.0000
  In  In246     1.0  0.05611  0.93047  0.66081  1.0000
  In  In247     1.0  0.05611  0.56953  0.83919  1.0000
  In  In248     1.0  0.44389  0.93047  0.83919  1.0000
  In  In249     1.0  0.60968  0.69562  0.29143  1.0000
  In  In250     1.0  0.89032  0.80438  0.29143  1.0000
  In  In251     1.0  0.89032  0.69562  0.20857  1.0000
  In  In252     1.0  0.60968  0.80438  0.20857  1.0000
  In  In253     1.0  0.39032  0.30438  0.70857  1.0000
  In  In254     1.0  0.10968  0.19562  0.70857  1.0000
  In  In255     1.0  0.10968  0.30438  0.79143  1.0000
  In  In256     1.0  0.39032  0.19562  0.79143  1.0000
  S   S409      1.0  0.51480  0.61930  0.30709  1.0000
  S   S410      1.0  0.98520  0.88070  0.30709  1.0000
  S   S411      1.0  0.98520  0.61930  0.19291  1.0000
  S   S412      1.0  0.51480  0.88070  0.19291  1.0000
  S   S413      1.0  0.48520  0.38070  0.69291  1.0000
  S   S414      1.0  0.01480  0.11930  0.69291  1.0000
  S   S415      1.0  0.01480  0.38070  0.80709  1.0000
  S   S416      1.0  0.48520  0.11930  0.80709  1.0000
  S   S417      1.0  0.49600  0.52500  0.32460  1.0000
  S   S418      1.0  0.00400  0.97500  0.32460  1.0000
  S   S419      1.0  0.00400  0.52500  0.17540  1.0000
  S   S420      1.0  0.49600  0.97500  0.17540  1.0000
  S   S421      1.0  0.50400  0.47500  0.67540  1.0000
  S   S422      1.0  0.99600  0.02500  0.67540  1.0000
  S   S423      1.0  0.99600  0.47500  0.82460  1.0000
  S   S424      1.0  0.50400  0.02500  0.82460  1.0000
  S   S425      1.0  0.40720  0.59340  0.34615  1.0000
  S   S426      1.0  0.09280  0.90660  0.34615  1.0000
  S   S427      1.0  0.09280  0.59340  0.15385  1.0000
  S   S428      1.0  0.40720  0.90660  0.15385  1.0000
  S   S429      1.0  0.59280  0.40660  0.65385  1.0000
  S   S430      1.0  0.90720  0.09340  0.65385  1.0000
  S   S431      1.0  0.90720  0.40660  0.84615  1.0000
  S   S432      1.0  0.59280  0.09340  0.84615  1.0000
  S   S433      1.0  0.30230  0.56540  0.38498  1.0000
  S   S434      1.0  0.19770  0.93460  0.38498  1.0000
  S   S435      1.0  0.19770  0.56540  0.11502  1.0000
  S   S436      1.0  0.30230  0.93460  0.11502  1.0000
  S   S437      1.0  0.69770  0.43460  0.61502  1.0000
  S   S438      1.0  0.80230  0.06540  0.61502  1.0000
  S   S439      1.0  0.80230  0.43460  0.88498  1.0000
  S   S440      1.0  0.69770  0.06540  0.88498  1.0000
  S   S441      1.0  0.39000  0.49910  0.36463  1.0000
  S   S442      1.0  0.11000  0.00090  0.36463  1.0000
  S   S443      1.0  0.11000  0.49910  0.13537  1.0000
  S   S444      1.0  0.39000  0.00090  0.13537  1.0000
  S   S445      1.0  0.61000  0.50090  0.63537  1.0000
  S   S446      1.0  0.89000  0.99910  0.63537  1.0000
  S   S447      1.0  0.89000  0.50090  0.86463  1.0000
  S   S448      1.0  0.61000  0.99910  0.86463  1.0000
  S   S449      1.0  0.47720  0.43260  0.34274  1.0000
  S   S450      1.0  0.02280  0.06740  0.34274  1.0000
  S   S451      1.0  0.02280  0.43260  0.15726  1.0000
  S   S452      1.0  0.47720  0.06740  0.15726  1.0000
  S   S453      1.0  0.52280  0.56740  0.65726  1.0000
  S   S454      1.0  0.97720  0.93260  0.65726  1.0000
  S   S455      1.0  0.97720  0.56740  0.84274  1.0000
  S   S456      1.0  0.52280  0.93260  0.84274  1.0000
  S   S457      1.0  0.42780  0.68700  0.33039  1.0000
  S   S458      1.0  0.07220  0.81300  0.33039  1.0000
  S   S459      1.0  0.07220  0.68700  0.16961  1.0000
  S   S460      1.0  0.42780  0.81300  0.16961  1.0000
  S   S461      1.0  0.57220  0.31300  0.66961  1.0000
  S   S462      1.0  0.92780  0.18700  0.66961  1.0000
  S   S463      1.0  0.92780  0.31300  0.83039  1.0000
  S   S464      1.0  0.57220  0.18700  0.83039  1.0000
  S   S465      1.0  0.32080  0.66110  0.36750  1.0000
  S   S466      1.0  0.17920  0.83890  0.36750  1.0000
  S   S467      1.0  0.17920  0.66110  0.13250  1.0000
  S   S468      1.0  0.32080  0.83890  0.13250  1.0000
  S   S469      1.0  0.67920  0.33890  0.63250  1.0000
  S   S470      1.0  0.82080  0.16110  0.63250  1.0000
  S   S471      1.0  0.82080  0.33890  0.86750  1.0000
  S   S472      1.0  0.67920  0.16110  0.86750  1.0000
  S   S473      1.0  0.53370  0.71340  0.29280  1.0000
  S   S474      1.0  0.96630  0.78660  0.29280  1.0000
  S   S475      1.0  0.96630  0.71340  0.20720  1.0000
  S   S476      1.0  0.53370  0.78660  0.20720  1.0000
  S   S477      1.0  0.46630  0.28660  0.70720  1.0000
  S   S478      1.0  0.03370  0.21340  0.70720  1.0000
  S   S479      1.0  0.03370  0.28660  0.79280  1.0000
  S   S480      1.0  0.46630  0.21340  0.79280  1.0000
  S   S481      1.0  0.60470  0.55240  0.28762  1.0000
  S   S482      1.0  0.89530  0.94760  0.28762  1.0000
  S   S483      1.0  0.89530  0.55240  0.21238  1.0000
  S   S484      1.0  0.60470  0.94760  0.21238  1.0000
  S   S485      1.0  0.39530  0.44760  0.71238  1.0000
  S   S486      1.0  0.10470  0.05240  0.71238  1.0000
  S   S487      1.0  0.10470  0.44760  0.78762  1.0000
  S   S488      1.0  0.39530  0.05240  0.78762  1.0000
  S   S489      1.0  0.58950  0.45960  0.30498  1.0000
  S   S490      1.0  0.91050  0.04040  0.30498  1.0000
  S   S491      1.0  0.91050  0.45960  0.19502  1.0000
  S   S492      1.0  0.58950  0.04040  0.19502  1.0000
  S   S493      1.0  0.41050  0.54040  0.69502  1.0000
  S   S494      1.0  0.08950  0.95960  0.69502  1.0000
  S   S495      1.0  0.08950  0.54040  0.80498  1.0000
  S   S496      1.0  0.41050  0.95960  0.80498  1.0000
  S   S497      1.0  0.62450  0.64440  0.27102  1.0000
  S   S498      1.0  0.87550  0.85560  0.27102  1.0000
  S   S499      1.0  0.87550  0.64440  0.22898  1.0000
  S   S500      1.0  0.62450  0.85560  0.22898  1.0000
  S   S501      1.0  0.37550  0.35560  0.72898  1.0000
  S   S502      1.0  0.12450  0.14440  0.72898  1.0000
  S   S503      1.0  0.12450  0.35560  0.77102  1.0000
  S   S504      1.0  0.37550  0.14440  0.77102  1.0000
  N   N41       1.0  0.56750  0.37900  0.32690  1.0000
  N   N42       1.0  0.93250  0.12100  0.32690  1.0000
  N   N43       1.0  0.93250  0.37900  0.17310  1.0000
  N   N44       1.0  0.56750  0.12100  0.17310  1.0000
  N   N45       1.0  0.43250  0.62100  0.67310  1.0000
  N   N46       1.0  0.06750  0.87900  0.67310  1.0000
  N   N47       1.0  0.06750  0.62100  0.82690  1.0000
  N   N48       1.0  0.43250  0.87900  0.82690  1.0000
  N   N49       1.0  0.63820  0.73080  0.26430  1.0000
  N   N50       1.0  0.86180  0.76920  0.26430  1.0000
  N   N51       1.0  0.86180  0.73080  0.23570  1.0000
  N   N52       1.0  0.63820  0.76920  0.23570  1.0000
  N   N53       1.0  0.36180  0.26920  0.73570  1.0000
  N   N54       1.0  0.13820  0.23080  0.73570  1.0000
  N   N55       1.0  0.13820  0.26920  0.76430  1.0000
  N   N56       1.0  0.36180  0.23080  0.76430  1.0000
  C   C49       1.0  0.58560  0.36570  0.30640  1.0000
  C   C50       1.0  0.91440  0.13430  0.30640  1.0000
  C   C51       1.0  0.91440  0.36570  0.19360  1.0000
  C   C52       1.0  0.58560  0.13430  0.19360  1.0000
  C   C53       1.0  0.41440  0.63430  0.69360  1.0000
  C   C54       1.0  0.08560  0.86570  0.69360  1.0000
  C   C55       1.0  0.08560  0.63430  0.80640  1.0000
  C   C56       1.0  0.41440  0.86570  0.80640  1.0000
  C   C57       1.0  0.56500  0.35540  0.34190  1.0000
  C   C58       1.0  0.93500  0.14460  0.34190  1.0000
  C   C59       1.0  0.93500  0.35540  0.15810  1.0000
  C   C60       1.0  0.56500  0.14460  0.15810  1.0000
  C   C61       1.0  0.43500  0.64460  0.65810  1.0000
  C   C62       1.0  0.06500  0.85540  0.65810  1.0000
  C   C63       1.0  0.06500  0.64460  0.84190  1.0000
  C   C64       1.0  0.43500  0.85540  0.84190  1.0000
  C   C65       1.0  0.67880  0.73750  0.25860  1.0000
  C   C66       1.0  0.82120  0.76250  0.25860  1.0000
  C   C67       1.0  0.82120  0.73750  0.24140  1.0000
  C   C68       1.0  0.67880  0.76250  0.24140  1.0000
  C   C69       1.0  0.32120  0.26250  0.74140  1.0000
  C   C70       1.0  0.17880  0.23750  0.74140  1.0000
  C   C71       1.0  0.17880  0.26250  0.75860  1.0000
  C   C72       1.0  0.32120  0.23750  0.75860  1.0000
  C   C73       1.0  0.61110  0.75000  0.25000  1.0000
  C   C74       1.0  0.88890  0.75000  0.25000  1.0000
  C   C75       1.0  0.38890  0.25000  0.75000  1.0000
  C   C76       1.0  0.11110  0.25000  0.75000  1.0000
  H   H49       1.0  0.59280  0.37670  0.29170  1.0000
  H   H50       1.0  0.90720  0.12330  0.29170  1.0000
  H   H51       1.0  0.90720  0.37670  0.20830  1.0000
  H   H52       1.0  0.59280  0.12330  0.20830  1.0000
  H   H53       1.0  0.40720  0.62330  0.70830  1.0000
  H   H54       1.0  0.09280  0.87670  0.70830  1.0000
  H   H55       1.0  0.09280  0.62330  0.79170  1.0000
  H   H56       1.0  0.40720  0.87670  0.79170  1.0000
  C   C77       1.0  0.59190  0.33200  0.31090  1.0000
  C   C78       1.0  0.90810  0.16800  0.31090  1.0000
  C   C79       1.0  0.90810  0.33200  0.18910  1.0000
  C   C80       1.0  0.59190  0.16800  0.18910  1.0000
  C   C81       1.0  0.40810  0.66800  0.68910  1.0000
  C   C82       1.0  0.09190  0.83200  0.68910  1.0000
  C   C83       1.0  0.09190  0.66800  0.81090  1.0000
  C   C84       1.0  0.40810  0.83200  0.81090  1.0000
  H   H57       1.0  0.55640  0.35850  0.35850  1.0000
  H   H58       1.0  0.94360  0.14150  0.35850  1.0000
  H   H59       1.0  0.94360  0.35850  0.14150  1.0000
  H   H60       1.0  0.55640  0.14150  0.14150  1.0000
  H   H61       1.0  0.44360  0.64150  0.64150  1.0000
  H   H62       1.0  0.05640  0.85850  0.64150  1.0000
  H   H63       1.0  0.05640  0.64150  0.85850  1.0000
  H   H64       1.0  0.44360  0.85850  0.85850  1.0000
  H   H65       1.0  0.70350  0.72720  0.26510  1.0000
  H   H66       1.0  0.79650  0.77280  0.26510  1.0000
  H   H67       1.0  0.79650  0.72720  0.23490  1.0000
  H   H68       1.0  0.70350  0.77280  0.23490  1.0000
  H   H69       1.0  0.29650  0.27280  0.73490  1.0000
  H   H70       1.0  0.20350  0.22720  0.73490  1.0000
  H   H71       1.0  0.20350  0.27280  0.76510  1.0000
  H   H72       1.0  0.29650  0.22720  0.76510  1.0000
  H   H73       1.0  0.58060  0.75000  0.25000  1.0000
  H   H74       1.0  0.91940  0.75000  0.25000  1.0000
  H   H75       1.0  0.41940  0.25000  0.75000  1.0000
  H   H76       1.0  0.08060  0.25000  0.75000  1.0000
  H   H77       1.0  0.60490  0.31670  0.30030  1.0000
  H   H78       1.0  0.89510  0.18330  0.30030  1.0000
  H   H79       1.0  0.89510  0.31670  0.19970  1.0000
  H   H80       1.0  0.60490  0.18330  0.19970  1.0000
  H   H81       1.0  0.39510  0.68330  0.69970  1.0000
  H   H82       1.0  0.10490  0.81670  0.69970  1.0000
  H   H83       1.0  0.10490  0.68330  0.80030  1.0000
  H   H84       1.0  0.39510  0.81670  0.80030  1.0000
