data_image0
_chemical_formula_structural       Mo36P24O168C4H8C4H8C4H8
_chemical_formula_sum              "Mo36 P24 O168 C12 H24"
_cell_length_a       17.9266
_cell_length_b       13.7114
_cell_length_c       35.321
_cell_angle_alpha    90
_cell_angle_beta     102.259
_cell_angle_gamma    90

_space_group_name_H-M_alt    "P 1"
_space_group_IT_number       1

loop_
  _space_group_symop_operation_xyz
  'x, y, z'

loop_
  _atom_site_type_symbol
  _atom_site_label
  _atom_site_symmetry_multiplicity
  _atom_site_fract_x
  _atom_site_fract_y
  _atom_site_fract_z
  _atom_site_occupancy
  Mo  Mo1       1.0  0.77316  0.95565  0.13510  1.0000
  Mo  Mo2       1.0  0.22684  0.45565  0.36490  1.0000
  Mo  Mo3       1.0  0.22684  0.04435  0.86490  1.0000
  Mo  Mo4       1.0  0.77316  0.54435  0.63510  1.0000
  Mo  Mo5       1.0  0.60430  0.06201  0.11332  1.0000
  Mo  Mo6       1.0  0.39570  0.56201  0.38668  1.0000
  Mo  Mo7       1.0  0.39570  0.93799  0.88668  1.0000
  Mo  Mo8       1.0  0.60430  0.43799  0.61332  1.0000
  Mo  Mo9       1.0  0.54676  0.70420  0.09757  1.0000
  Mo  Mo10      1.0  0.45324  0.20420  0.40243  1.0000
  Mo  Mo11      1.0  0.45324  0.29580  0.90243  1.0000
  Mo  Mo12      1.0  0.54676  0.79580  0.59757  1.0000
  Mo  Mo13      1.0  0.39063  0.80919  0.04554  1.0000
  Mo  Mo14      1.0  0.60937  0.30919  0.45446  1.0000
  Mo  Mo15      1.0  0.60937  0.19081  0.95446  1.0000
  Mo  Mo16      1.0  0.39063  0.69081  0.54554  1.0000
  Mo  Mo17      1.0  0.27943  0.90105  0.10095  1.0000
  Mo  Mo18      1.0  0.72057  0.40105  0.39905  1.0000
  Mo  Mo19      1.0  0.72057  0.09895  0.89905  1.0000
  Mo  Mo20      1.0  0.27943  0.59895  0.60095  1.0000
  Mo  Mo21      1.0  0.76424  0.03601  0.38552  1.0000
  Mo  Mo22      1.0  0.23576  0.53601  0.11448  1.0000
  Mo  Mo23      1.0  0.23576  0.96399  0.61448  1.0000
  Mo  Mo24      1.0  0.76424  0.46399  0.88552  1.0000
  Mo  Mo25      1.0  0.90750  0.12048  0.35021  1.0000
  Mo  Mo26      1.0  0.09250  0.62048  0.14979  1.0000
  Mo  Mo27      1.0  0.09250  0.87952  0.64979  1.0000
  Mo  Mo28      1.0  0.90750  0.37952  0.85021  1.0000
  Mo  Mo29      1.0  0.85195  0.21496  0.26199  1.0000
  Mo  Mo30      1.0  0.14805  0.71496  0.23801  1.0000
  Mo  Mo31      1.0  0.14805  0.78504  0.73801  1.0000
  Mo  Mo32      1.0  0.85195  0.28504  0.76199  1.0000
  Mo  Mo33      1.0  0.80773  0.85416  0.22310  1.0000
  Mo  Mo34      1.0  0.19227  0.35416  0.27690  1.0000
  Mo  Mo35      1.0  0.19227  0.14584  0.77690  1.0000
  Mo  Mo36      1.0  0.80773  0.64584  0.72310  1.0000
  P   P1        1.0  0.62658  0.84353  0.17013  1.0000
  P   P2        1.0  0.37342  0.34353  0.32987  1.0000
  P   P3        1.0  0.37342  0.15647  0.82987  1.0000
  P   P4        1.0  0.62658  0.65647  0.67013  1.0000
  P   P5        1.0  0.47442  0.92019  0.13504  1.0000
  P   P6        1.0  0.52558  0.42019  0.36496  1.0000
  P   P7        1.0  0.52558  0.07981  0.86496  1.0000
  P   P8        1.0  0.47442  0.57981  0.63504  1.0000
  P   P9        1.0  0.38253  0.68237  0.13177  1.0000
  P   P10       1.0  0.61747  0.18237  0.36823  1.0000
  P   P11       1.0  0.61747  0.31763  0.86823  1.0000
  P   P12       1.0  0.38253  0.81763  0.63177  1.0000
  P   P13       1.0  0.26342  0.75224  0.17212  1.0000
  P   P14       1.0  0.73658  0.25224  0.32788  1.0000
  P   P15       1.0  0.73658  0.24776  0.82788  1.0000
  P   P16       1.0  0.26342  0.74776  0.67212  1.0000
  P   P17       1.0  0.75586  0.00275  0.28682  1.0000
  P   P18       1.0  0.24414  0.50275  0.21318  1.0000
  P   P19       1.0  0.24414  0.99725  0.71318  1.0000
  P   P20       1.0  0.75586  0.49725  0.78682  1.0000
  P   P21       1.0  0.71374  0.08787  0.20699  1.0000
  P   P22       1.0  0.28626  0.58787  0.29301  1.0000
  P   P23       1.0  0.28626  0.91213  0.79301  1.0000
  P   P24       1.0  0.71374  0.41213  0.70699  1.0000
  O   O1        1.0  0.86100  0.00730  0.13976  1.0000
  O   O2        1.0  0.13900  0.50730  0.36024  1.0000
  O   O3        1.0  0.13900  0.99270  0.86024  1.0000
  O   O4        1.0  0.86100  0.49270  0.63976  1.0000
  O   O5        1.0  0.79710  0.84370  0.16967  1.0000
  O   O6        1.0  0.20290  0.34370  0.33033  1.0000
  O   O7        1.0  0.20290  0.15630  0.83033  1.0000
  O   O8        1.0  0.79710  0.65630  0.66967  1.0000
  O   O9        1.0  0.76450  0.00670  0.19647  1.0000
  O   O10       1.0  0.23550  0.50670  0.30353  1.0000
  O   O11       1.0  0.23550  0.99330  0.80353  1.0000
  O   O12       1.0  0.76450  0.49330  0.69647  1.0000
  O   O13       1.0  0.76430  0.88840  0.09400  1.0000
  O   O14       1.0  0.23570  0.38840  0.40600  1.0000
  O   O15       1.0  0.23570  0.11160  0.90600  1.0000
  O   O16       1.0  0.76430  0.61160  0.59400  1.0000
  O   O17       1.0  0.71190  0.06770  0.11728  1.0000
  O   O18       1.0  0.28810  0.56770  0.38272  1.0000
  O   O19       1.0  0.28810  0.93230  0.88272  1.0000
  O   O20       1.0  0.71190  0.43230  0.61728  1.0000
  O   O21       1.0  0.57720  0.18030  0.10377  1.0000
  O   O22       1.0  0.42280  0.68030  0.39623  1.0000
  O   O23       1.0  0.42280  0.81970  0.89623  1.0000
  O   O24       1.0  0.57720  0.31970  0.60377  1.0000
  O   O25       1.0  0.58150  0.00720  0.06981  1.0000
  O   O26       1.0  0.41850  0.50720  0.43019  1.0000
  O   O27       1.0  0.41850  0.99280  0.93019  1.0000
  O   O28       1.0  0.58150  0.49280  0.56981  1.0000
  O   O29       1.0  0.64380  0.11080  0.17608  1.0000
  O   O30       1.0  0.35620  0.61080  0.32392  1.0000
  O   O31       1.0  0.35620  0.88920  0.82392  1.0000
  O   O32       1.0  0.64380  0.38920  0.67608  1.0000
  O   O33       1.0  0.64920  0.92100  0.14273  1.0000
  O   O34       1.0  0.35080  0.42100  0.35727  1.0000
  O   O35       1.0  0.35080  0.07900  0.85727  1.0000
  O   O36       1.0  0.64920  0.57900  0.64273  1.0000
  O   O37       1.0  0.60330  0.76040  0.07160  1.0000
  O   O38       1.0  0.39670  0.26040  0.42840  1.0000
  O   O39       1.0  0.39670  0.23960  0.92840  1.0000
  O   O40       1.0  0.60330  0.73960  0.57160  1.0000
  O   O41       1.0  0.61210  0.74430  0.14948  1.0000
  O   O42       1.0  0.38790  0.24430  0.35052  1.0000
  O   O43       1.0  0.38790  0.25570  0.85052  1.0000
  O   O44       1.0  0.61210  0.75570  0.64948  1.0000
  O   O45       1.0  0.57800  0.58660  0.10033  1.0000
  O   O46       1.0  0.42200  0.08660  0.39967  1.0000
  O   O47       1.0  0.42200  0.41340  0.89967  1.0000
  O   O48       1.0  0.57800  0.91340  0.60033  1.0000
  O   O49       1.0  0.45540  0.69650  0.05966  1.0000
  O   O50       1.0  0.54460  0.19650  0.44034  1.0000
  O   O51       1.0  0.54460  0.30350  0.94034  1.0000
  O   O52       1.0  0.45540  0.80350  0.55966  1.0000
  O   O53       1.0  0.48320  0.85110  0.10218  1.0000
  O   O54       1.0  0.51680  0.35110  0.39782  1.0000
  O   O55       1.0  0.51680  0.14890  0.89782  1.0000
  O   O56       1.0  0.48320  0.64890  0.60218  1.0000
  O   O57       1.0  0.50800  0.02190  0.12983  1.0000
  O   O58       1.0  0.49200  0.52190  0.37017  1.0000
  O   O59       1.0  0.49200  0.97810  0.87017  1.0000
  O   O60       1.0  0.50800  0.47810  0.62983  1.0000
  O   O61       1.0  0.43970  0.86940  0.01684  1.0000
  O   O62       1.0  0.56030  0.36940  0.48316  1.0000
  O   O63       1.0  0.56030  0.13060  0.98316  1.0000
  O   O64       1.0  0.43970  0.63060  0.51684  1.0000
  O   O65       1.0  0.31730  0.75520  0.01339  1.0000
  O   O66       1.0  0.68270  0.25520  0.48661  1.0000
  O   O67       1.0  0.68270  0.24480  0.98661  1.0000
  O   O68       1.0  0.31730  0.74480  0.51339  1.0000
  O   O69       1.0  0.33810  0.91700  0.06296  1.0000
  O   O70       1.0  0.66190  0.41700  0.43704  1.0000
  O   O71       1.0  0.66190  0.08300  0.93704  1.0000
  O   O72       1.0  0.33810  0.58300  0.56296  1.0000
  O   O73       1.0  0.39320  0.92980  0.14130  1.0000
  O   O74       1.0  0.60680  0.42980  0.35870  1.0000
  O   O75       1.0  0.60680  0.07020  0.85870  1.0000
  O   O76       1.0  0.39320  0.57020  0.64130  1.0000
  O   O77       1.0  0.34460  0.75630  0.10068  1.0000
  O   O78       1.0  0.65540  0.25630  0.39932  1.0000
  O   O79       1.0  0.65540  0.24370  0.89932  1.0000
  O   O80       1.0  0.34460  0.74370  0.60068  1.0000
  O   O81       1.0  0.46800  0.67280  0.13722  1.0000
  O   O82       1.0  0.53200  0.17280  0.36278  1.0000
  O   O83       1.0  0.53200  0.32720  0.86278  1.0000
  O   O84       1.0  0.46800  0.82720  0.63722  1.0000
  O   O85       1.0  0.25190  0.01800  0.10705  1.0000
  O   O86       1.0  0.74810  0.51800  0.39295  1.0000
  O   O87       1.0  0.74810  0.98200  0.89295  1.0000
  O   O88       1.0  0.25190  0.48200  0.60705  1.0000
  O   O89       1.0  0.19960  0.84930  0.07453  1.0000
  O   O90       1.0  0.80040  0.34930  0.42547  1.0000
  O   O91       1.0  0.80040  0.15070  0.92547  1.0000
  O   O92       1.0  0.19960  0.65070  0.57453  1.0000
  O   O93       1.0  0.25760  0.85120  0.15193  1.0000
  O   O94       1.0  0.74240  0.35120  0.34807  1.0000
  O   O95       1.0  0.74240  0.14880  0.84807  1.0000
  O   O96       1.0  0.25760  0.64880  0.65193  1.0000
  O   O97       1.0  0.79250  0.09400  0.42834  1.0000
  O   O98       1.0  0.20750  0.59400  0.07166  1.0000
  O   O99       1.0  0.20750  0.90600  0.57166  1.0000
  O   O100      1.0  0.79250  0.40600  0.92834  1.0000
  O   O101      1.0  0.34430  0.58130  0.12376  1.0000
  O   O102      1.0  0.65570  0.08130  0.37624  1.0000
  O   O103      1.0  0.65570  0.41870  0.87624  1.0000
  O   O104      1.0  0.34430  0.91870  0.62376  1.0000
  O   O105      1.0  0.74200  0.92220  0.39908  1.0000
  O   O106      1.0  0.25800  0.42220  0.10092  1.0000
  O   O107      1.0  0.25800  0.07780  0.60092  1.0000
  O   O108      1.0  0.74200  0.57780  0.89908  1.0000
  O   O109      1.0  0.21460  0.67490  0.14672  1.0000
  O   O110      1.0  0.78540  0.17490  0.35328  1.0000
  O   O111      1.0  0.78540  0.32510  0.85328  1.0000
  O   O112      1.0  0.21460  0.82510  0.64672  1.0000
  O   O113      1.0  0.24620  0.76050  0.21201  1.0000
  O   O114      1.0  0.75380  0.26050  0.28799  1.0000
  O   O115      1.0  0.75380  0.23950  0.78799  1.0000
  O   O116      1.0  0.24620  0.73950  0.71201  1.0000
  O   O117      1.0  0.85890  0.01540  0.37159  1.0000
  O   O118      1.0  0.14110  0.51540  0.12841  1.0000
  O   O119      1.0  0.14110  0.98460  0.62841  1.0000
  O   O120      1.0  0.85890  0.48460  0.87159  1.0000
  O   O121      1.0  0.72350  0.98890  0.32296  1.0000
  O   O122      1.0  0.27650  0.48890  0.17704  1.0000
  O   O123      1.0  0.27650  0.01110  0.67704  1.0000
  O   O124      1.0  0.72350  0.51110  0.82296  1.0000
  O   O125      1.0  0.94810  0.18020  0.39136  1.0000
  O   O126      1.0  0.05190  0.68020  0.10864  1.0000
  O   O127      1.0  0.05190  0.81980  0.60864  1.0000
  O   O128      1.0  0.94810  0.31980  0.89136  1.0000
  O   O129      1.0  0.90300  0.22520  0.31518  1.0000
  O   O130      1.0  0.09700  0.72520  0.18482  1.0000
  O   O131      1.0  0.09700  0.77480  0.68482  1.0000
  O   O132      1.0  0.90300  0.27480  0.81518  1.0000
  O   O133      1.0  0.86460  0.32910  0.24616  1.0000
  O   O134      1.0  0.13540  0.82910  0.25384  1.0000
  O   O135      1.0  0.13540  0.67090  0.75384  1.0000
  O   O136      1.0  0.86460  0.17090  0.74616  1.0000
  O   O137      1.0  0.98020  0.05340  0.33838  1.0000
  O   O138      1.0  0.01980  0.55340  0.16162  1.0000
  O   O139      1.0  0.01980  0.94660  0.66162  1.0000
  O   O140      1.0  0.98020  0.44660  0.83838  1.0000
  O   O141      1.0  0.91730  0.14770  0.24554  1.0000
  O   O142      1.0  0.08270  0.64770  0.25446  1.0000
  O   O143      1.0  0.08270  0.85230  0.75446  1.0000
  O   O144      1.0  0.91730  0.35230  0.74554  1.0000
  O   O145      1.0  0.82290  0.07420  0.29276  1.0000
  O   O146      1.0  0.17710  0.57420  0.20724  1.0000
  O   O147      1.0  0.17710  0.92580  0.70724  1.0000
  O   O148      1.0  0.82290  0.42580  0.79276  1.0000
  O   O149      1.0  0.76170  0.18020  0.21954  1.0000
  O   O150      1.0  0.23830  0.68020  0.28046  1.0000
  O   O151      1.0  0.23830  0.81980  0.78046  1.0000
  O   O152      1.0  0.76170  0.31980  0.71954  1.0000
  O   O153      1.0  0.77740  0.90390  0.27161  1.0000
  O   O154      1.0  0.22260  0.40390  0.22839  1.0000
  O   O155      1.0  0.22260  0.09610  0.72839  1.0000
  O   O156      1.0  0.77740  0.59610  0.77161  1.0000
  O   O157      1.0  0.89770  0.90210  0.23368  1.0000
  O   O158      1.0  0.10230  0.40210  0.26632  1.0000
  O   O159      1.0  0.10230  0.09790  0.76632  1.0000
  O   O160      1.0  0.89770  0.59790  0.73368  1.0000
  O   O161      1.0  0.68280  0.83490  0.20823  1.0000
  O   O162      1.0  0.31720  0.33490  0.29177  1.0000
  O   O163      1.0  0.31720  0.16510  0.79177  1.0000
  O   O164      1.0  0.68280  0.66510  0.70823  1.0000
  O   O165      1.0  0.82090  0.73640  0.23759  1.0000
  O   O166      1.0  0.17910  0.23640  0.26241  1.0000
  O   O167      1.0  0.17910  0.26360  0.76241  1.0000
  O   O168      1.0  0.82090  0.76360  0.73759  1.0000
  C   C1        1.0  0.53540  0.87800  0.17910  1.0000
  C   C2        1.0  0.46460  0.37800  0.32090  1.0000
  C   C3        1.0  0.46460  0.12200  0.82090  1.0000
  C   C4        1.0  0.53540  0.62200  0.67910  1.0000
  H   H1        1.0  0.54210  0.93030  0.19880  1.0000
  H   H2        1.0  0.45790  0.43030  0.30120  1.0000
  H   H3        1.0  0.45790  0.06970  0.80120  1.0000
  H   H4        1.0  0.54210  0.56970  0.69880  1.0000
  H   H5        1.0  0.51160  0.82130  0.18920  1.0000
  H   H6        1.0  0.48840  0.32130  0.31080  1.0000
  H   H7        1.0  0.48840  0.17870  0.81080  1.0000
  H   H8        1.0  0.51160  0.67870  0.68920  1.0000
  C   C5        1.0  0.36140  0.71800  0.17710  1.0000
  C   C6        1.0  0.63860  0.21800  0.32290  1.0000
  C   C7        1.0  0.63860  0.28200  0.82290  1.0000
  C   C8        1.0  0.36140  0.78200  0.67710  1.0000
  H   H9        1.0  0.37300  0.66320  0.19560  1.0000
  H   H10       1.0  0.62700  0.16320  0.30440  1.0000
  H   H11       1.0  0.62700  0.33680  0.80440  1.0000
  H   H12       1.0  0.37300  0.83680  0.69560  1.0000
  H   H13       1.0  0.39430  0.77370  0.18780  1.0000
  H   H14       1.0  0.60570  0.27370  0.31220  1.0000
  H   H15       1.0  0.60570  0.22630  0.81220  1.0000
  H   H16       1.0  0.39430  0.72630  0.68780  1.0000
  C   C9        1.0  0.68170  0.04860  0.24930  1.0000
  C   C10       1.0  0.31830  0.54860  0.25070  1.0000
  C   C11       1.0  0.31830  0.95140  0.75070  1.0000
  C   C12       1.0  0.68170  0.45140  0.74930  1.0000
  H   H17       1.0  0.65690  0.10430  0.25960  1.0000
  H   H18       1.0  0.34310  0.60430  0.24040  1.0000
  H   H19       1.0  0.34310  0.89570  0.74040  1.0000
  H   H20       1.0  0.65690  0.39570  0.75960  1.0000
  H   H21       1.0  0.64270  0.99710  0.24180  1.0000
  H   H22       1.0  0.35730  0.49710  0.25820  1.0000
  H   H23       1.0  0.35730  0.00290  0.75820  1.0000
  H   H24       1.0  0.64270  0.50290  0.74180  1.0000
