data_image0
_chemical_formula_structural       C6H2C2H2C8H2C2H2C2H2C2H2C8H2C2H2C4H2C2H2C2H2C2H2C12H2C2H2C10H2C2H2C2H2C2H2O36U6O2
_chemical_formula_sum              "C72 H36 O38 U6"
_cell_length_a       14.161
_cell_length_b       15.122
_cell_length_c       18.212
_cell_angle_alpha    85.73
_cell_angle_beta     76.99
_cell_angle_gamma    67.32

_space_group_name_H-M_alt    "P 1"
_space_group_IT_number       1

loop_
  _space_group_symop_operation_xyz
  'x, y, z'

loop_
  _atom_site_type_symbol
  _atom_site_label
  _atom_site_symmetry_multiplicity
  _atom_site_fract_x
  _atom_site_fract_y
  _atom_site_fract_z
  _atom_site_occupancy
  C   C1        1.0  0.45070  0.85300  0.72400  1.0000
  C   C2        1.0  0.54930  0.14700  0.27600  1.0000
  C   C3        1.0  0.36480  0.82100  0.76600  1.0000
  C   C4        1.0  0.63520  0.17900  0.23400  1.0000
  C   C5        1.0  0.38780  0.72470  0.76860  1.0000
  C   C6        1.0  0.61220  0.27530  0.23140  1.0000
  H   H1        1.0  0.45240  0.68330  0.74210  1.0000
  H   H2        1.0  0.54760  0.31670  0.25790  1.0000
  C   C7        1.0  0.31640  0.68640  0.81010  1.0000
  C   C8        1.0  0.68360  0.31360  0.18990  1.0000
  H   H3        1.0  0.33400  0.62050  0.81080  1.0000
  H   H4        1.0  0.66600  0.37950  0.18920  1.0000
  C   C9        1.0  0.22240  0.74500  0.84900  1.0000
  C   C10       1.0  0.77760  0.25500  0.15100  1.0000
  C   C11       1.0  0.19130  0.84670  0.84490  1.0000
  C   C12       1.0  0.80870  0.15330  0.15510  1.0000
  C   C13       1.0  0.26260  0.88540  0.80040  1.0000
  C   C14       1.0  0.73740  0.11460  0.19960  1.0000
  C   C15       1.0  0.22660  0.98640  0.79070  1.0000
  C   C16       1.0  0.77340  0.01360  0.20930  1.0000
  H   H5        1.0  0.27160  0.01310  0.76150  1.0000
  H   H6        1.0  0.72840  0.98690  0.23850  1.0000
  C   C17       1.0  0.12750  0.04450  0.82350  1.0000
  C   C18       1.0  0.87250  0.95550  0.17650  1.0000
  H   H7        1.0  0.10560  0.11040  0.81730  1.0000
  H   H8        1.0  0.89440  0.88960  0.18270  1.0000
  C   C19       1.0  0.05720  0.00490  0.86730  1.0000
  C   C20       1.0  0.94280  0.99510  0.13270  1.0000
  H   H9        1.0  0.98860  0.04500  0.88750  1.0000
  H   H10       1.0  0.01140  0.95500  0.11250  1.0000
  C   C21       1.0  0.08820  0.91110  0.87990  1.0000
  C   C22       1.0  0.91180  0.08890  0.12010  1.0000
  H   H11       1.0  0.04270  0.88700  0.91160  1.0000
  H   H12       1.0  0.95730  0.11300  0.08840  1.0000
  C   C23       1.0  0.15490  0.69880  0.90090  1.0000
  C   C24       1.0  0.84510  0.30120  0.09910  1.0000
  C   C25       1.0  0.85100  0.25590  0.81530  1.0000
  C   C26       1.0  0.14900  0.74410  0.18470  1.0000
  C   C27       1.0  0.80000  0.21600  0.76750  1.0000
  C   C28       1.0  0.20000  0.78400  0.23250  1.0000
  C   C29       1.0  0.71080  0.20240  0.80460  1.0000
  C   C30       1.0  0.28920  0.79760  0.19540  1.0000
  H   H13       1.0  0.68180  0.22220  0.85450  1.0000
  H   H14       1.0  0.31820  0.77780  0.14550  1.0000
  C   C31       1.0  0.66350  0.15870  0.76720  1.0000
  C   C32       1.0  0.33650  0.84130  0.23280  1.0000
  H   H15       1.0  0.60170  0.15240  0.79260  1.0000
  H   H16       1.0  0.39830  0.84760  0.20740  1.0000
  C   C33       1.0  0.84270  0.19020  0.68890  1.0000
  C   C34       1.0  0.15730  0.80980  0.31110  1.0000
  C   C35       1.0  0.93290  0.20820  0.64820  1.0000
  C   C36       1.0  0.06710  0.79180  0.35180  1.0000
  H   H17       1.0  0.96360  0.23920  0.67180  1.0000
  H   H18       1.0  0.03640  0.76080  0.32820  1.0000
  C   C37       1.0  0.97330  0.17900  0.57360  1.0000
  C   C38       1.0  0.02670  0.82100  0.42640  1.0000
  H   H19       1.0  0.03200  0.19010  0.54720  1.0000
  H   H20       1.0  0.96800  0.80990  0.45280  1.0000
  C   C39       1.0  0.92670  0.13260  0.53710  1.0000
  C   C40       1.0  0.07330  0.86740  0.46290  1.0000
  H   H21       1.0  0.95530  0.11250  0.48710  1.0000
  H   H22       1.0  0.04470  0.88750  0.51290  1.0000
  C   C41       1.0  0.84110  0.11750  0.57460  1.0000
  C   C42       1.0  0.15890  0.88250  0.42540  1.0000
  H   H23       1.0  0.81000  0.08870  0.54930  1.0000
  H   H24       1.0  0.19000  0.91130  0.45070  1.0000
  C   C43       1.0  0.79650  0.14400  0.65170  1.0000
  C   C44       1.0  0.20350  0.85600  0.34830  1.0000
  C   C45       1.0  0.70620  0.12410  0.69280  1.0000
  C   C46       1.0  0.29380  0.87590  0.30720  1.0000
  C   C47       1.0  0.66660  0.05830  0.66540  1.0000
  C   C48       1.0  0.33340  0.94170  0.33460  1.0000
  C   C49       1.0  0.93910  0.54540  0.24150  1.0000
  C   C50       1.0  0.06090  0.45460  0.75850  1.0000
  C   C51       1.0  0.90780  0.59660  0.31570  1.0000
  C   C52       1.0  0.09220  0.40340  0.68430  1.0000
  C   C53       1.0  0.87620  0.69340  0.31510  1.0000
  C   C54       1.0  0.12380  0.30660  0.68490  1.0000
  H   H25       1.0  0.88500  0.72490  0.26980  1.0000
  H   H26       1.0  0.11500  0.27510  0.73020  1.0000
  C   C55       1.0  0.83050  0.74560  0.38250  1.0000
  C   C56       1.0  0.16950  0.25440  0.61750  1.0000
  H   H27       1.0  0.80780  0.81200  0.38160  1.0000
  H   H28       1.0  0.19220  0.18800  0.61840  1.0000
  C   C57       1.0  0.81850  0.70020  0.45020  1.0000
  C   C58       1.0  0.18150  0.29980  0.54980  1.0000
  C   C59       1.0  0.75800  0.76550  0.51910  1.0000
  C   C60       1.0  0.24200  0.23450  0.48090  1.0000
  C   C61       1.0  0.85500  0.60060  0.45450  1.0000
  C   C62       1.0  0.14500  0.39940  0.54550  1.0000
  C   C63       1.0  0.90110  0.54380  0.38510  1.0000
  C   C64       1.0  0.09890  0.45620  0.61490  1.0000
  C   C65       1.0  0.94070  0.44410  0.38980  1.0000
  C   C66       1.0  0.05930  0.55590  0.61020  1.0000
  H   H29       1.0  0.97170  0.40710  0.34580  1.0000
  H   H30       1.0  0.02830  0.59290  0.65420  1.0000
  C   C67       1.0  0.93470  0.39990  0.45770  1.0000
  C   C68       1.0  0.06530  0.60010  0.54230  1.0000
  H   H31       1.0  0.96320  0.33340  0.45950  1.0000
  H   H32       1.0  0.03680  0.66660  0.54050  1.0000
  C   C69       1.0  0.88700  0.45240  0.52420  1.0000
  C   C70       1.0  0.11300  0.54760  0.47580  1.0000
  H   H33       1.0  0.87910  0.42100  0.56970  1.0000
  H   H34       1.0  0.12090  0.57900  0.43030  1.0000
  C   C71       1.0  0.85160  0.54930  0.52350  1.0000
  C   C72       1.0  0.14840  0.45070  0.47650  1.0000
  H   H35       1.0  0.82440  0.58320  0.56900  1.0000
  H   H36       1.0  0.17560  0.41680  0.43100  1.0000
  O   O1        1.0  0.54690  0.95570  0.57210  1.0000
  O   O2        1.0  0.45310  0.04430  0.42790  1.0000
  O   O3        1.0  0.69850  0.84190  0.70480  1.0000
  O   O4        1.0  0.30150  0.15810  0.29520  1.0000
  O   O5        1.0  0.45540  0.93150  0.73600  1.0000
  O   O6        1.0  0.54460  0.06850  0.26400  1.0000
  O   O7        1.0  0.52260  0.79380  0.67590  1.0000
  O   O8        1.0  0.47740  0.20620  0.32410  1.0000
  O   O9        1.0  0.13410  0.71410  0.96920  1.0000
  O   O10       1.0  0.86590  0.28590  0.03080  1.0000
  O   O11       1.0  0.12930  0.64400  0.87080  1.0000
  O   O12       1.0  0.87070  0.35600  0.12920  1.0000
  O   O13       1.0  0.91910  0.47310  0.23480  1.0000
  O   O14       1.0  0.08090  0.52690  0.76520  1.0000
  O   O15       1.0  0.98220  0.57860  0.18190  1.0000
  O   O16       1.0  0.01780  0.42140  0.81810  1.0000
  O   O17       1.0  0.77770  0.83640  0.53030  1.0000
  O   O18       1.0  0.22230  0.16360  0.46970  1.0000
  O   O19       1.0  0.68830  0.74560  0.56470  1.0000
  O   O20       1.0  0.31170  0.25440  0.43530  1.0000
  O   O21       1.0  0.83180  0.24270  0.88570  1.0000
  O   O22       1.0  0.16820  0.75730  0.11430  1.0000
  O   O23       1.0  0.90680  0.30040  0.78670  1.0000
  O   O24       1.0  0.09320  0.69960  0.21330  1.0000
  O   O25       1.0  0.71930  0.00280  0.61080  1.0000
  O   O26       1.0  0.28070  0.99720  0.38920  1.0000
  O   O27       1.0  0.58050  0.05380  0.70080  1.0000
  O   O28       1.0  0.41950  0.94620  0.29920  1.0000
  O   O29       1.0  0.17330  0.44530  0.90000  1.0000
  O   O30       1.0  0.82670  0.55470  0.10000  1.0000
  O   O31       1.0  0.92050  0.62410  0.90110  1.0000
  O   O32       1.0  0.07950  0.37590  0.09890  1.0000
  O   O33       1.0  0.95640  0.75690  0.09670  1.0000
  O   O34       1.0  0.04360  0.24310  0.90330  1.0000
  O   O35       1.0  0.19700  0.56040  0.08450  1.0000
  O   O36       1.0  0.80300  0.43960  0.91550  1.0000
  U   U1        1.0  0.62242  0.89700  0.63824  1.0000
  U   U2        1.0  0.37758  0.10300  0.36176  1.0000
  U   U3        1.0  0.07567  0.65695  0.08894  1.0000
  U   U4        1.0  0.92434  0.34305  0.91106  1.0000
  U   U5        1.0  0.04478  0.53363  0.90511  1.0000
  U   U6        1.0  0.95522  0.46637  0.09489  1.0000
  O   O37       1.0  0.02580  0.56770  0.02640  1.0000
  O   O38       1.0  0.97420  0.43230  0.97360  1.0000
