data_image0
_chemical_formula_structural       In12O96C36H12C36H12C48H12C12H12C12S24
_chemical_formula_sum              "In12 O96 C144 H48 S24"
_cell_length_a       18.7063
_cell_length_b       18.7063
_cell_length_c       18.7063
_cell_angle_alpha    90
_cell_angle_beta     90
_cell_angle_gamma    90

_space_group_name_H-M_alt    "P 1"
_space_group_IT_number       1

loop_
  _space_group_symop_operation_xyz
  'x, y, z'

loop_
  _atom_site_type_symbol
  _atom_site_label
  _atom_site_symmetry_multiplicity
  _atom_site_fract_x
  _atom_site_fract_y
  _atom_site_fract_z
  _atom_site_occupancy
  In  In1       1.0  0.37162  0.52085  0.74499  1.0000
  In  In2       1.0  0.12838  0.47915  0.24499  1.0000
  In  In3       1.0  0.62838  0.02085  0.75501  1.0000
  In  In4       1.0  0.87162  0.97915  0.25501  1.0000
  In  In5       1.0  0.74499  0.37162  0.52085  1.0000
  In  In6       1.0  0.24499  0.12838  0.47915  1.0000
  In  In7       1.0  0.75501  0.62838  0.02085  1.0000
  In  In8       1.0  0.25501  0.87162  0.97915  1.0000
  In  In9       1.0  0.52085  0.74499  0.37162  1.0000
  In  In10      1.0  0.47915  0.24499  0.12838  1.0000
  In  In11      1.0  0.02085  0.75501  0.62838  1.0000
  In  In12      1.0  0.97915  0.25501  0.87162  1.0000
  O   O1        1.0  0.19720  0.48650  0.14950  1.0000
  O   O2        1.0  0.30280  0.51350  0.64950  1.0000
  O   O3        1.0  0.80280  0.98650  0.35050  1.0000
  O   O4        1.0  0.69720  0.01350  0.85050  1.0000
  O   O5        1.0  0.14950  0.19720  0.48650  1.0000
  O   O6        1.0  0.64950  0.30280  0.51350  1.0000
  O   O7        1.0  0.35050  0.80280  0.98650  1.0000
  O   O8        1.0  0.85050  0.69720  0.01350  1.0000
  O   O9        1.0  0.48650  0.14950  0.19720  1.0000
  O   O10       1.0  0.51350  0.64950  0.30280  1.0000
  O   O11       1.0  0.98650  0.35050  0.80280  1.0000
  O   O12       1.0  0.01350  0.85050  0.69720  1.0000
  O   O13       1.0  0.65570  0.13670  0.73920  1.0000
  O   O14       1.0  0.84430  0.86330  0.23920  1.0000
  O   O15       1.0  0.34430  0.63670  0.76080  1.0000
  O   O16       1.0  0.15570  0.36330  0.26080  1.0000
  O   O17       1.0  0.73920  0.65570  0.13670  1.0000
  O   O18       1.0  0.23920  0.84430  0.86330  1.0000
  O   O19       1.0  0.76080  0.34430  0.63670  1.0000
  O   O20       1.0  0.26080  0.15570  0.36330  1.0000
  O   O21       1.0  0.13670  0.73920  0.65570  1.0000
  O   O22       1.0  0.86330  0.23920  0.84430  1.0000
  O   O23       1.0  0.63670  0.76080  0.34430  1.0000
  O   O24       1.0  0.36330  0.26080  0.15570  1.0000
  O   O25       1.0  0.47090  0.46170  0.74660  1.0000
  O   O26       1.0  0.02910  0.53830  0.24660  1.0000
  O   O27       1.0  0.52910  0.96170  0.75340  1.0000
  O   O28       1.0  0.97090  0.03830  0.25340  1.0000
  O   O29       1.0  0.74660  0.47090  0.46170  1.0000
  O   O30       1.0  0.24660  0.02910  0.53830  1.0000
  O   O31       1.0  0.75340  0.52910  0.96170  1.0000
  O   O32       1.0  0.25340  0.97090  0.03830  1.0000
  O   O33       1.0  0.46170  0.74660  0.47090  1.0000
  O   O34       1.0  0.53830  0.24660  0.02910  1.0000
  O   O35       1.0  0.96170  0.75340  0.52910  1.0000
  O   O36       1.0  0.03830  0.25340  0.97090  1.0000
  O   O37       1.0  0.09150  0.45380  0.12370  1.0000
  O   O38       1.0  0.40850  0.54620  0.62370  1.0000
  O   O39       1.0  0.90850  0.95380  0.37630  1.0000
  O   O40       1.0  0.59150  0.04620  0.87630  1.0000
  O   O41       1.0  0.12370  0.09150  0.45380  1.0000
  O   O42       1.0  0.62370  0.40850  0.54620  1.0000
  O   O43       1.0  0.37630  0.90850  0.95380  1.0000
  O   O44       1.0  0.87630  0.59150  0.04620  1.0000
  O   O45       1.0  0.45380  0.12370  0.09150  1.0000
  O   O46       1.0  0.54620  0.62370  0.40850  1.0000
  O   O47       1.0  0.95380  0.37630  0.90850  1.0000
  O   O48       1.0  0.04620  0.87630  0.59150  1.0000
  O   O49       1.0  0.38900  0.38800  0.72750  1.0000
  O   O50       1.0  0.11100  0.61200  0.22750  1.0000
  O   O51       1.0  0.61100  0.88800  0.77250  1.0000
  O   O52       1.0  0.88900  0.11200  0.27250  1.0000
  O   O53       1.0  0.72750  0.38900  0.38800  1.0000
  O   O54       1.0  0.22750  0.11100  0.61200  1.0000
  O   O55       1.0  0.77250  0.61100  0.88800  1.0000
  O   O56       1.0  0.27250  0.88900  0.11200  1.0000
  O   O57       1.0  0.38800  0.72750  0.38900  1.0000
  O   O58       1.0  0.61200  0.22750  0.11100  1.0000
  O   O59       1.0  0.88800  0.77250  0.61100  1.0000
  O   O60       1.0  0.11200  0.27250  0.88900  1.0000
  O   O61       1.0  0.54350  0.10850  0.72540  1.0000
  O   O62       1.0  0.95650  0.89150  0.22540  1.0000
  O   O63       1.0  0.45650  0.60850  0.77460  1.0000
  O   O64       1.0  0.04350  0.39150  0.27460  1.0000
  O   O65       1.0  0.72540  0.54350  0.10850  1.0000
  O   O66       1.0  0.22540  0.95650  0.89150  1.0000
  O   O67       1.0  0.77460  0.45650  0.60850  1.0000
  O   O68       1.0  0.27460  0.04350  0.39150  1.0000
  O   O69       1.0  0.10850  0.72540  0.54350  1.0000
  O   O70       1.0  0.89150  0.22540  0.95650  1.0000
  O   O71       1.0  0.60850  0.77460  0.45650  1.0000
  O   O72       1.0  0.39150  0.27460  0.04350  1.0000
  O   O73       1.0  0.26910  0.49000  0.79490  1.0000
  O   O74       1.0  0.23090  0.51000  0.29490  1.0000
  O   O75       1.0  0.73090  0.99000  0.70510  1.0000
  O   O76       1.0  0.76910  0.01000  0.20510  1.0000
  O   O77       1.0  0.79490  0.26910  0.49000  1.0000
  O   O78       1.0  0.29490  0.23090  0.51000  1.0000
  O   O79       1.0  0.70510  0.73090  0.99000  1.0000
  O   O80       1.0  0.20510  0.76910  0.01000  1.0000
  O   O81       1.0  0.49000  0.79490  0.26910  1.0000
  O   O82       1.0  0.51000  0.29490  0.23090  1.0000
  O   O83       1.0  0.99000  0.70510  0.73090  1.0000
  O   O84       1.0  0.01000  0.20510  0.76910  1.0000
  O   O85       1.0  0.35570  0.50180  0.87330  1.0000
  O   O86       1.0  0.14430  0.49820  0.37330  1.0000
  O   O87       1.0  0.64430  0.00180  0.62670  1.0000
  O   O88       1.0  0.85570  0.99820  0.12670  1.0000
  O   O89       1.0  0.87330  0.35570  0.50180  1.0000
  O   O90       1.0  0.37330  0.14430  0.49820  1.0000
  O   O91       1.0  0.62670  0.64430  0.00180  1.0000
  O   O92       1.0  0.12670  0.85570  0.99820  1.0000
  O   O93       1.0  0.50180  0.87330  0.35570  1.0000
  O   O94       1.0  0.49820  0.37330  0.14430  1.0000
  O   O95       1.0  0.00180  0.62670  0.64430  1.0000
  O   O96       1.0  0.99820  0.12670  0.85570  1.0000
  C   C1        1.0  0.56960  0.23150  0.72280  1.0000
  C   C2        1.0  0.93040  0.76850  0.22280  1.0000
  C   C3        1.0  0.43040  0.73150  0.77720  1.0000
  C   C4        1.0  0.06960  0.26850  0.27720  1.0000
  C   C5        1.0  0.72280  0.56960  0.23150  1.0000
  C   C6        1.0  0.22280  0.93040  0.76850  1.0000
  C   C7        1.0  0.77720  0.43040  0.73150  1.0000
  C   C8        1.0  0.27720  0.06960  0.26850  1.0000
  C   C9        1.0  0.23150  0.72280  0.56960  1.0000
  C   C10       1.0  0.76850  0.22280  0.93040  1.0000
  C   C11       1.0  0.73150  0.77720  0.43040  1.0000
  C   C12       1.0  0.26850  0.27720  0.06960  1.0000
  C   C13       1.0  0.17240  0.46770  0.03020  1.0000
  C   C14       1.0  0.32760  0.53230  0.53020  1.0000
  C   C15       1.0  0.82760  0.96770  0.46980  1.0000
  C   C16       1.0  0.67240  0.03230  0.96980  1.0000
  C   C17       1.0  0.03020  0.17240  0.46770  1.0000
  C   C18       1.0  0.53020  0.32760  0.53230  1.0000
  C   C19       1.0  0.46980  0.82760  0.96770  1.0000
  C   C20       1.0  0.96980  0.67240  0.03230  1.0000
  C   C21       1.0  0.46770  0.03020  0.17240  1.0000
  C   C22       1.0  0.53230  0.53020  0.32760  1.0000
  C   C23       1.0  0.96770  0.46980  0.82760  1.0000
  C   C24       1.0  0.03230  0.96980  0.67240  1.0000
  C   C25       1.0  0.57780  0.35170  0.72730  1.0000
  C   C26       1.0  0.92220  0.64830  0.22730  1.0000
  C   C27       1.0  0.42220  0.85170  0.77270  1.0000
  C   C28       1.0  0.07780  0.14830  0.27270  1.0000
  C   C29       1.0  0.72730  0.57780  0.35170  1.0000
  C   C30       1.0  0.22730  0.92220  0.64830  1.0000
  C   C31       1.0  0.77270  0.42220  0.85170  1.0000
  C   C32       1.0  0.27270  0.07780  0.14830  1.0000
  C   C33       1.0  0.35170  0.72730  0.57780  1.0000
  C   C34       1.0  0.64830  0.22730  0.92220  1.0000
  C   C35       1.0  0.85170  0.77270  0.42220  1.0000
  C   C36       1.0  0.14830  0.27270  0.07780  1.0000
  H   H1        1.0  0.60030  0.39600  0.72880  1.0000
  H   H2        1.0  0.89970  0.60400  0.22880  1.0000
  H   H3        1.0  0.39970  0.89600  0.77120  1.0000
  H   H4        1.0  0.10030  0.10400  0.27120  1.0000
  H   H5        1.0  0.72880  0.60030  0.39600  1.0000
  H   H6        1.0  0.22880  0.89970  0.60400  1.0000
  H   H7        1.0  0.77120  0.39970  0.89600  1.0000
  H   H8        1.0  0.27120  0.10030  0.10400  1.0000
  H   H9        1.0  0.39600  0.72880  0.60030  1.0000
  H   H10       1.0  0.60400  0.22880  0.89970  1.0000
  H   H11       1.0  0.89600  0.77120  0.39970  1.0000
  H   H12       1.0  0.10400  0.27120  0.10030  1.0000
  C   C37       1.0  0.23950  0.47940  0.91530  1.0000
  C   C38       1.0  0.26050  0.52060  0.41530  1.0000
  C   C39       1.0  0.76050  0.97940  0.58470  1.0000
  C   C40       1.0  0.73950  0.02060  0.08470  1.0000
  C   C41       1.0  0.91530  0.23950  0.47940  1.0000
  C   C42       1.0  0.41530  0.26050  0.52060  1.0000
  C   C43       1.0  0.58470  0.76050  0.97940  1.0000
  C   C44       1.0  0.08470  0.73950  0.02060  1.0000
  C   C45       1.0  0.47940  0.91530  0.23950  1.0000
  C   C46       1.0  0.52060  0.41530  0.26050  1.0000
  C   C47       1.0  0.97940  0.58470  0.76050  1.0000
  C   C48       1.0  0.02060  0.08470  0.73950  1.0000
  C   C49       1.0  0.50570  0.34360  0.72980  1.0000
  C   C50       1.0  0.99430  0.65640  0.22980  1.0000
  C   C51       1.0  0.49430  0.84360  0.77020  1.0000
  C   C52       1.0  0.00570  0.15640  0.27020  1.0000
  C   C53       1.0  0.72980  0.50570  0.34360  1.0000
  C   C54       1.0  0.22980  0.99430  0.65640  1.0000
  C   C55       1.0  0.77020  0.49430  0.84360  1.0000
  C   C56       1.0  0.27020  0.00570  0.15640  1.0000
  C   C57       1.0  0.34360  0.72980  0.50570  1.0000
  C   C58       1.0  0.65640  0.22980  0.99430  1.0000
  C   C59       1.0  0.84360  0.77020  0.49430  1.0000
  C   C60       1.0  0.15640  0.27020  0.00570  1.0000
  C   C61       1.0  0.12880  0.45600  0.97060  1.0000
  C   C62       1.0  0.37120  0.54400  0.47060  1.0000
  C   C63       1.0  0.87120  0.95600  0.52940  1.0000
  C   C64       1.0  0.62880  0.04400  0.02940  1.0000
  C   C65       1.0  0.97060  0.12880  0.45600  1.0000
  C   C66       1.0  0.47060  0.37120  0.54400  1.0000
  C   C67       1.0  0.52940  0.87120  0.95600  1.0000
  C   C68       1.0  0.02940  0.62880  0.04400  1.0000
  C   C69       1.0  0.45600  0.97060  0.12880  1.0000
  C   C70       1.0  0.54400  0.47060  0.37120  1.0000
  C   C71       1.0  0.95600  0.52940  0.87120  1.0000
  C   C72       1.0  0.04400  0.02940  0.62880  1.0000
  H   H13       1.0  0.08040  0.44500  0.97340  1.0000
  H   H14       1.0  0.41960  0.55500  0.47340  1.0000
  H   H15       1.0  0.91960  0.94500  0.52660  1.0000
  H   H16       1.0  0.58040  0.05500  0.02660  1.0000
  H   H17       1.0  0.97340  0.08040  0.44500  1.0000
  H   H18       1.0  0.47340  0.41960  0.55500  1.0000
  H   H19       1.0  0.52660  0.91960  0.94500  1.0000
  H   H20       1.0  0.02660  0.58040  0.05500  1.0000
  H   H21       1.0  0.44500  0.97340  0.08040  1.0000
  H   H22       1.0  0.55500  0.47340  0.41960  1.0000
  H   H23       1.0  0.94500  0.52660  0.91960  1.0000
  H   H24       1.0  0.05500  0.02660  0.58040  1.0000
  C   C73       1.0  0.29640  0.49270  0.85860  1.0000
  C   C74       1.0  0.20360  0.50730  0.35860  1.0000
  C   C75       1.0  0.70360  0.99270  0.64140  1.0000
  C   C76       1.0  0.79640  0.00730  0.14140  1.0000
  C   C77       1.0  0.85860  0.29640  0.49270  1.0000
  C   C78       1.0  0.35860  0.20360  0.50730  1.0000
  C   C79       1.0  0.64140  0.70360  0.99270  1.0000
  C   C80       1.0  0.14140  0.79640  0.00730  1.0000
  C   C81       1.0  0.49270  0.85860  0.29640  1.0000
  C   C82       1.0  0.50730  0.35860  0.20360  1.0000
  C   C83       1.0  0.99270  0.64140  0.70360  1.0000
  C   C84       1.0  0.00730  0.14140  0.79640  1.0000
  C   C85       1.0  0.45010  0.39980  0.73390  1.0000
  C   C86       1.0  0.04990  0.60020  0.23390  1.0000
  C   C87       1.0  0.54990  0.89980  0.76610  1.0000
  C   C88       1.0  0.95010  0.10020  0.26610  1.0000
  C   C89       1.0  0.73390  0.45010  0.39980  1.0000
  C   C90       1.0  0.23390  0.04990  0.60020  1.0000
  C   C91       1.0  0.76610  0.54990  0.89980  1.0000
  C   C92       1.0  0.26610  0.95010  0.10020  1.0000
  C   C93       1.0  0.39980  0.73390  0.45010  1.0000
  C   C94       1.0  0.60020  0.23390  0.04990  1.0000
  C   C95       1.0  0.89980  0.76610  0.54990  1.0000
  C   C96       1.0  0.10020  0.26610  0.95010  1.0000
  C   C97       1.0  0.15300  0.46810  0.10410  1.0000
  C   C98       1.0  0.34700  0.53190  0.60410  1.0000
  C   C99       1.0  0.84700  0.96810  0.39590  1.0000
  C   C100      1.0  0.65300  0.03190  0.89590  1.0000
  C   C101      1.0  0.10410  0.15300  0.46810  1.0000
  C   C102      1.0  0.60410  0.34700  0.53190  1.0000
  C   C103      1.0  0.39590  0.84700  0.96810  1.0000
  C   C104      1.0  0.89590  0.65300  0.03190  1.0000
  C   C105      1.0  0.46810  0.10410  0.15300  1.0000
  C   C106      1.0  0.53190  0.60410  0.34700  1.0000
  C   C107      1.0  0.96810  0.39590  0.84700  1.0000
  C   C108      1.0  0.03190  0.89590  0.65300  1.0000
  C   C109      1.0  0.16730  0.46280  0.90490  1.0000
  C   C110      1.0  0.33270  0.53720  0.40490  1.0000
  C   C111      1.0  0.83270  0.96280  0.59510  1.0000
  C   C112      1.0  0.66730  0.03720  0.09510  1.0000
  C   C113      1.0  0.90490  0.16730  0.46280  1.0000
  C   C114      1.0  0.40490  0.33270  0.53720  1.0000
  C   C115      1.0  0.59510  0.83270  0.96280  1.0000
  C   C116      1.0  0.09510  0.66730  0.03720  1.0000
  C   C117      1.0  0.46280  0.90490  0.16730  1.0000
  C   C118      1.0  0.53720  0.40490  0.33270  1.0000
  C   C119      1.0  0.96280  0.59510  0.83270  1.0000
  C   C120      1.0  0.03720  0.09510  0.66730  1.0000
  H   H25       1.0  0.14660  0.45680  0.86010  1.0000
  H   H26       1.0  0.35340  0.54320  0.36010  1.0000
  H   H27       1.0  0.85340  0.95680  0.63990  1.0000
  H   H28       1.0  0.64660  0.04320  0.13990  1.0000
  H   H29       1.0  0.86010  0.14660  0.45680  1.0000
  H   H30       1.0  0.36010  0.35340  0.54320  1.0000
  H   H31       1.0  0.63990  0.85340  0.95680  1.0000
  H   H32       1.0  0.13990  0.64660  0.04320  1.0000
  H   H33       1.0  0.45680  0.86010  0.14660  1.0000
  H   H34       1.0  0.54320  0.36010  0.35340  1.0000
  H   H35       1.0  0.95680  0.63990  0.85340  1.0000
  H   H36       1.0  0.04320  0.13990  0.64660  1.0000
  C   C121      1.0  0.61500  0.28710  0.72210  1.0000
  C   C122      1.0  0.88500  0.71290  0.22210  1.0000
  C   C123      1.0  0.38500  0.78710  0.77790  1.0000
  C   C124      1.0  0.11500  0.21290  0.27790  1.0000
  C   C125      1.0  0.72210  0.61500  0.28710  1.0000
  C   C126      1.0  0.22210  0.88500  0.71290  1.0000
  C   C127      1.0  0.77790  0.38500  0.78710  1.0000
  C   C128      1.0  0.27790  0.11500  0.21290  1.0000
  C   C129      1.0  0.28710  0.72210  0.61500  1.0000
  C   C130      1.0  0.71290  0.22210  0.88500  1.0000
  C   C131      1.0  0.78710  0.77790  0.38500  1.0000
  C   C132      1.0  0.21290  0.27790  0.11500  1.0000
  H   H37       1.0  0.66440  0.28320  0.71880  1.0000
  H   H38       1.0  0.83560  0.71680  0.21880  1.0000
  H   H39       1.0  0.33560  0.78320  0.78120  1.0000
  H   H40       1.0  0.16440  0.21680  0.28120  1.0000
  H   H41       1.0  0.71880  0.66440  0.28320  1.0000
  H   H42       1.0  0.21880  0.83560  0.71680  1.0000
  H   H43       1.0  0.78120  0.33560  0.78320  1.0000
  H   H44       1.0  0.28120  0.16440  0.21680  1.0000
  H   H45       1.0  0.28320  0.71880  0.66440  1.0000
  H   H46       1.0  0.71680  0.21880  0.83560  1.0000
  H   H47       1.0  0.78320  0.78120  0.33560  1.0000
  H   H48       1.0  0.21680  0.28120  0.16440  1.0000
  C   C133      1.0  0.59140  0.15340  0.72880  1.0000
  C   C134      1.0  0.90860  0.84660  0.22880  1.0000
  C   C135      1.0  0.40860  0.65340  0.77120  1.0000
  C   C136      1.0  0.09140  0.34660  0.27120  1.0000
  C   C137      1.0  0.72880  0.59140  0.15340  1.0000
  C   C138      1.0  0.22880  0.90860  0.84660  1.0000
  C   C139      1.0  0.77120  0.40860  0.65340  1.0000
  C   C140      1.0  0.27120  0.09140  0.34660  1.0000
  C   C141      1.0  0.15340  0.72880  0.59140  1.0000
  C   C142      1.0  0.84660  0.22880  0.90860  1.0000
  C   C143      1.0  0.65340  0.77120  0.40860  1.0000
  C   C144      1.0  0.34660  0.27120  0.09140  1.0000
  S   S1        1.0  0.48347  0.25530  0.72355  1.0000
  S   S2        1.0  0.01653  0.74470  0.22355  1.0000
  S   S3        1.0  0.51653  0.75530  0.77645  1.0000
  S   S4        1.0  0.98347  0.24470  0.27645  1.0000
  S   S5        1.0  0.72355  0.48347  0.25530  1.0000
  S   S6        1.0  0.22355  0.01653  0.74470  1.0000
  S   S7        1.0  0.77645  0.51653  0.75530  1.0000
  S   S8        1.0  0.27645  0.98347  0.24470  1.0000
  S   S9        1.0  0.25530  0.72355  0.48347  1.0000
  S   S10       1.0  0.74470  0.22355  0.01653  1.0000
  S   S11       1.0  0.75530  0.77645  0.51653  1.0000
  S   S12       1.0  0.24470  0.27645  0.98347  1.0000
  S   S13       1.0  0.25855  0.48416  0.00318  1.0000
  S   S14       1.0  0.24145  0.51584  0.50318  1.0000
  S   S15       1.0  0.74145  0.98416  0.49682  1.0000
  S   S16       1.0  0.75855  0.01584  0.99682  1.0000
  S   S17       1.0  0.00318  0.25855  0.48416  1.0000
  S   S18       1.0  0.50318  0.24145  0.51584  1.0000
  S   S19       1.0  0.49682  0.74145  0.98416  1.0000
  S   S20       1.0  0.99682  0.75855  0.01584  1.0000
  S   S21       1.0  0.48416  0.00318  0.25855  1.0000
  S   S22       1.0  0.51584  0.50318  0.24145  1.0000
  S   S23       1.0  0.98416  0.49682  0.74145  1.0000
  S   S24       1.0  0.01584  0.99682  0.75855  1.0000
