data_image0
_chemical_formula_structural       In4O8C8O8C16O16C16H8C8H8C8H8C8H8C24H8C8H8C8H8C8H8
_chemical_formula_sum              "In4 O32 C112 H64"
_cell_length_a       12.6055
_cell_length_b       21.4194
_cell_length_c       17.9475
_cell_angle_alpha    90
_cell_angle_beta     90
_cell_angle_gamma    90

_space_group_name_H-M_alt    "P 1"
_space_group_IT_number       1

loop_
  _space_group_symop_operation_xyz
  'x, y, z'

loop_
  _atom_site_type_symbol
  _atom_site_label
  _atom_site_symmetry_multiplicity
  _atom_site_fract_x
  _atom_site_fract_y
  _atom_site_fract_z
  _atom_site_occupancy
  In  In1       1.0  0.25000  0.00000  0.86849  1.0000
  In  In2       1.0  0.25000  0.50000  0.63151  1.0000
  In  In3       1.0  0.75000  0.00000  0.13151  1.0000
  In  In4       1.0  0.75000  0.50000  0.36849  1.0000
  O   O1        1.0  0.10900  0.04067  0.93101  1.0000
  O   O2        1.0  0.39100  0.95933  0.93101  1.0000
  O   O3        1.0  0.10900  0.45933  0.56899  1.0000
  O   O4        1.0  0.39100  0.54067  0.56899  1.0000
  O   O5        1.0  0.89100  0.95933  0.06899  1.0000
  O   O6        1.0  0.60900  0.04067  0.06899  1.0000
  O   O7        1.0  0.89100  0.54067  0.43101  1.0000
  O   O8        1.0  0.60900  0.45933  0.43101  1.0000
  C   C1        1.0  0.11520  0.12940  0.00900  1.0000
  C   C2        1.0  0.38480  0.87060  0.00900  1.0000
  C   C3        1.0  0.11520  0.37060  0.49100  1.0000
  C   C4        1.0  0.38480  0.62940  0.49100  1.0000
  C   C5        1.0  0.88480  0.87060  0.99100  1.0000
  C   C6        1.0  0.61520  0.12940  0.99100  1.0000
  C   C7        1.0  0.88480  0.62940  0.50900  1.0000
  C   C8        1.0  0.61520  0.37060  0.50900  1.0000
  O   O9        1.0  0.88020  0.45465  0.30620  1.0000
  O   O10       1.0  0.61980  0.54535  0.30620  1.0000
  O   O11       1.0  0.88020  0.04535  0.19380  1.0000
  O   O12       1.0  0.61980  0.95465  0.19380  1.0000
  O   O13       1.0  0.11980  0.54535  0.69380  1.0000
  O   O14       1.0  0.38020  0.45465  0.69380  1.0000
  O   O15       1.0  0.11980  0.95465  0.80620  1.0000
  O   O16       1.0  0.38020  0.04535  0.80620  1.0000
  C   C9        1.0  0.16680  0.08140  0.96180  1.0000
  C   C10       1.0  0.33320  0.91860  0.96180  1.0000
  C   C11       1.0  0.16680  0.41860  0.53820  1.0000
  C   C12       1.0  0.33320  0.58140  0.53820  1.0000
  C   C13       1.0  0.83320  0.91860  0.03820  1.0000
  C   C14       1.0  0.66680  0.08140  0.03820  1.0000
  C   C15       1.0  0.83320  0.58140  0.46180  1.0000
  C   C16       1.0  0.66680  0.41860  0.46180  1.0000
  C   C17       1.0  0.87220  0.36680  0.22460  1.0000
  C   C18       1.0  0.62780  0.63320  0.22460  1.0000
  C   C19       1.0  0.87220  0.13320  0.27540  1.0000
  C   C20       1.0  0.62780  0.86680  0.27540  1.0000
  C   C21       1.0  0.12780  0.63320  0.77540  1.0000
  C   C22       1.0  0.37220  0.36680  0.77540  1.0000
  C   C23       1.0  0.12780  0.86680  0.72460  1.0000
  C   C24       1.0  0.37220  0.13320  0.72460  1.0000
  O   O17       1.0  0.26520  0.08040  0.95250  1.0000
  O   O18       1.0  0.23480  0.91960  0.95250  1.0000
  O   O19       1.0  0.26520  0.41960  0.54750  1.0000
  O   O20       1.0  0.23480  0.58040  0.54750  1.0000
  O   O21       1.0  0.73480  0.91960  0.04750  1.0000
  O   O22       1.0  0.76520  0.08040  0.04750  1.0000
  O   O23       1.0  0.73480  0.58040  0.45250  1.0000
  O   O24       1.0  0.76520  0.41960  0.45250  1.0000
  O   O25       1.0  0.72430  0.41700  0.28190  1.0000
  O   O26       1.0  0.77570  0.58300  0.28190  1.0000
  O   O27       1.0  0.72430  0.08300  0.21810  1.0000
  O   O28       1.0  0.77570  0.91700  0.21810  1.0000
  O   O29       1.0  0.27570  0.58300  0.71810  1.0000
  O   O30       1.0  0.22430  0.41700  0.71810  1.0000
  O   O31       1.0  0.27570  0.91700  0.78190  1.0000
  O   O32       1.0  0.22430  0.08300  0.78190  1.0000
  C   C25       1.0  0.02100  0.22300  0.09550  1.0000
  C   C26       1.0  0.47900  0.77700  0.09550  1.0000
  C   C27       1.0  0.02100  0.27700  0.40450  1.0000
  C   C28       1.0  0.47900  0.72300  0.40450  1.0000
  C   C29       1.0  0.97900  0.77700  0.90450  1.0000
  C   C30       1.0  0.52100  0.22300  0.90450  1.0000
  C   C31       1.0  0.97900  0.72300  0.59550  1.0000
  C   C32       1.0  0.52100  0.27700  0.59550  1.0000
  C   C33       1.0  0.98130  0.36110  0.22230  1.0000
  C   C34       1.0  0.51870  0.63890  0.22230  1.0000
  C   C35       1.0  0.98130  0.13890  0.27770  1.0000
  C   C36       1.0  0.51870  0.86110  0.27770  1.0000
  C   C37       1.0  0.01870  0.63890  0.77770  1.0000
  C   C38       1.0  0.48130  0.36110  0.77770  1.0000
  C   C39       1.0  0.01870  0.86110  0.72230  1.0000
  C   C40       1.0  0.48130  0.13890  0.72230  1.0000
  H   H1        1.0  0.02340  0.38880  0.24920  1.0000
  H   H2        1.0  0.47660  0.61120  0.24920  1.0000
  H   H3        1.0  0.02340  0.11120  0.25080  1.0000
  H   H4        1.0  0.47660  0.88880  0.25080  1.0000
  H   H5        1.0  0.97660  0.61120  0.75080  1.0000
  H   H6        1.0  0.52340  0.38880  0.75080  1.0000
  H   H7        1.0  0.97660  0.88880  0.74920  1.0000
  H   H8        1.0  0.52340  0.11120  0.74920  1.0000
  C   C41       1.0  0.01390  0.12300  0.03520  1.0000
  C   C42       1.0  0.48610  0.87700  0.03520  1.0000
  C   C43       1.0  0.01390  0.37700  0.46480  1.0000
  C   C44       1.0  0.48610  0.62300  0.46480  1.0000
  C   C45       1.0  0.98610  0.87700  0.96480  1.0000
  C   C46       1.0  0.51390  0.12300  0.96480  1.0000
  C   C47       1.0  0.98610  0.62300  0.53520  1.0000
  C   C48       1.0  0.51390  0.37700  0.53520  1.0000
  H   H9        1.0  0.97570  0.08710  0.02400  1.0000
  H   H10       1.0  0.52430  0.91290  0.02400  1.0000
  H   H11       1.0  0.97570  0.41290  0.47600  1.0000
  H   H12       1.0  0.52430  0.58710  0.47600  1.0000
  H   H13       1.0  0.02430  0.91290  0.97600  1.0000
  H   H14       1.0  0.47570  0.08710  0.97600  1.0000
  H   H15       1.0  0.02430  0.58710  0.52400  1.0000
  H   H16       1.0  0.47570  0.41290  0.52400  1.0000
  C   C49       1.0  0.96780  0.16860  0.07770  1.0000
  C   C50       1.0  0.53220  0.83140  0.07770  1.0000
  C   C51       1.0  0.96780  0.33140  0.42230  1.0000
  C   C52       1.0  0.53220  0.66860  0.42230  1.0000
  C   C53       1.0  0.03220  0.83140  0.92230  1.0000
  C   C54       1.0  0.46780  0.16860  0.92230  1.0000
  C   C55       1.0  0.03220  0.66860  0.57770  1.0000
  C   C56       1.0  0.46780  0.33140  0.57770  1.0000
  H   H17       1.0  0.89890  0.16290  0.09510  1.0000
  H   H18       1.0  0.60110  0.83710  0.09510  1.0000
  H   H19       1.0  0.89890  0.33710  0.40490  1.0000
  H   H20       1.0  0.60110  0.66290  0.40490  1.0000
  H   H21       1.0  0.10110  0.83710  0.90490  1.0000
  H   H22       1.0  0.39890  0.16290  0.90490  1.0000
  H   H23       1.0  0.10110  0.66290  0.59510  1.0000
  H   H24       1.0  0.39890  0.33710  0.59510  1.0000
  C   C57       1.0  0.02740  0.31540  0.18110  1.0000
  C   C58       1.0  0.47260  0.68460  0.18110  1.0000
  C   C59       1.0  0.02740  0.18460  0.31890  1.0000
  C   C60       1.0  0.47260  0.81540  0.31890  1.0000
  C   C61       1.0  0.97260  0.68460  0.81890  1.0000
  C   C62       1.0  0.52740  0.31540  0.81890  1.0000
  C   C63       1.0  0.97260  0.81540  0.68110  1.0000
  C   C64       1.0  0.52740  0.18460  0.68110  1.0000
  H   H25       1.0  0.10100  0.31210  0.18060  1.0000
  H   H26       1.0  0.39900  0.68790  0.18060  1.0000
  H   H27       1.0  0.10100  0.18790  0.31940  1.0000
  H   H28       1.0  0.39900  0.81210  0.31940  1.0000
  H   H29       1.0  0.89900  0.68790  0.81940  1.0000
  H   H30       1.0  0.60100  0.31210  0.81940  1.0000
  H   H31       1.0  0.89900  0.81210  0.68060  1.0000
  H   H32       1.0  0.60100  0.18790  0.68060  1.0000
  C   C65       1.0  0.96800  0.27360  0.14000  1.0000
  C   C66       1.0  0.53200  0.72640  0.14000  1.0000
  C   C67       1.0  0.96800  0.22640  0.36000  1.0000
  C   C68       1.0  0.53200  0.77360  0.36000  1.0000
  C   C69       1.0  0.03200  0.72640  0.86000  1.0000
  C   C70       1.0  0.46800  0.27360  0.86000  1.0000
  C   C71       1.0  0.03200  0.77360  0.64000  1.0000
  C   C72       1.0  0.46800  0.22640  0.64000  1.0000
  C   C73       1.0  0.82170  0.41610  0.27370  1.0000
  C   C74       1.0  0.67830  0.58390  0.27370  1.0000
  C   C75       1.0  0.82170  0.08390  0.22630  1.0000
  C   C76       1.0  0.67830  0.91610  0.22630  1.0000
  C   C77       1.0  0.17830  0.58390  0.72630  1.0000
  C   C78       1.0  0.32170  0.41610  0.72630  1.0000
  C   C79       1.0  0.17830  0.91610  0.77370  1.0000
  C   C80       1.0  0.32170  0.08390  0.77370  1.0000
  C   C81       1.0  0.16900  0.18310  0.02650  1.0000
  C   C82       1.0  0.33100  0.81690  0.02650  1.0000
  C   C83       1.0  0.16900  0.31690  0.47350  1.0000
  C   C84       1.0  0.33100  0.68310  0.47350  1.0000
  C   C85       1.0  0.83100  0.81690  0.97350  1.0000
  C   C86       1.0  0.66900  0.18310  0.97350  1.0000
  C   C87       1.0  0.83100  0.68310  0.52650  1.0000
  C   C88       1.0  0.66900  0.31690  0.52650  1.0000
  H   H33       1.0  0.23790  0.18840  0.00910  1.0000
  H   H34       1.0  0.26210  0.81160  0.00910  1.0000
  H   H35       1.0  0.23790  0.31160  0.49090  1.0000
  H   H36       1.0  0.26210  0.68840  0.49090  1.0000
  H   H37       1.0  0.76210  0.81160  0.99090  1.0000
  H   H38       1.0  0.73790  0.18840  0.99090  1.0000
  H   H39       1.0  0.76210  0.68840  0.50910  1.0000
  H   H40       1.0  0.73790  0.31160  0.50910  1.0000
  C   C89       1.0  0.12390  0.22920  0.06870  1.0000
  C   C90       1.0  0.37610  0.77080  0.06870  1.0000
  C   C91       1.0  0.12390  0.27080  0.43130  1.0000
  C   C92       1.0  0.37610  0.72920  0.43130  1.0000
  C   C93       1.0  0.87610  0.77080  0.93130  1.0000
  C   C94       1.0  0.62390  0.22920  0.93130  1.0000
  C   C95       1.0  0.87610  0.72920  0.56870  1.0000
  C   C96       1.0  0.62390  0.27080  0.56870  1.0000
  H   H41       1.0  0.16260  0.26500  0.07970  1.0000
  H   H42       1.0  0.33740  0.73500  0.07970  1.0000
  H   H43       1.0  0.16260  0.23500  0.42030  1.0000
  H   H44       1.0  0.33740  0.76500  0.42030  1.0000
  H   H45       1.0  0.83740  0.73500  0.92030  1.0000
  H   H46       1.0  0.66260  0.26500  0.92030  1.0000
  H   H47       1.0  0.83740  0.76500  0.57970  1.0000
  H   H48       1.0  0.66260  0.23500  0.57970  1.0000
  C   C97       1.0  0.85960  0.27980  0.14260  1.0000
  C   C98       1.0  0.64040  0.72020  0.14260  1.0000
  C   C99       1.0  0.85960  0.22020  0.35740  1.0000
  C   C100      1.0  0.64040  0.77980  0.35740  1.0000
  C   C101      1.0  0.14040  0.72020  0.85740  1.0000
  C   C102      1.0  0.35960  0.27980  0.85740  1.0000
  C   C103      1.0  0.14040  0.77980  0.64260  1.0000
  C   C104      1.0  0.35960  0.22020  0.64260  1.0000
  H   H49       1.0  0.81670  0.25240  0.11610  1.0000
  H   H50       1.0  0.68330  0.74760  0.11610  1.0000
  H   H51       1.0  0.81670  0.24760  0.38390  1.0000
  H   H52       1.0  0.68330  0.75240  0.38390  1.0000
  H   H53       1.0  0.18330  0.74760  0.88390  1.0000
  H   H54       1.0  0.31670  0.25240  0.88390  1.0000
  H   H55       1.0  0.18330  0.75240  0.61610  1.0000
  H   H56       1.0  0.31670  0.24760  0.61610  1.0000
  C   C105      1.0  0.81460  0.32610  0.18410  1.0000
  C   C106      1.0  0.68540  0.67390  0.18410  1.0000
  C   C107      1.0  0.81460  0.17390  0.31590  1.0000
  C   C108      1.0  0.68540  0.82610  0.31590  1.0000
  C   C109      1.0  0.18540  0.67390  0.81590  1.0000
  C   C110      1.0  0.31460  0.32610  0.81590  1.0000
  C   C111      1.0  0.18540  0.82610  0.68410  1.0000
  C   C112      1.0  0.31460  0.17390  0.68410  1.0000
  H   H57       1.0  0.74110  0.32970  0.18450  1.0000
  H   H58       1.0  0.75890  0.67030  0.18450  1.0000
  H   H59       1.0  0.74110  0.17030  0.31550  1.0000
  H   H60       1.0  0.75890  0.82970  0.31550  1.0000
  H   H61       1.0  0.25890  0.67030  0.81550  1.0000
  H   H62       1.0  0.24110  0.32970  0.81550  1.0000
  H   H63       1.0  0.25890  0.82970  0.68450  1.0000
  H   H64       1.0  0.24110  0.17030  0.68450  1.0000
