data_image0
_chemical_formula_structural       Co48N32O32C64O64N32O32C32N32C32N16O16N32C32H64
_chemical_formula_sum              "Co48 N144 O144 C160 H64"
_cell_length_a       15.6139
_cell_length_b       18.3439
_cell_length_c       34.336
_cell_angle_alpha    90
_cell_angle_beta     90
_cell_angle_gamma    90

_space_group_name_H-M_alt    "P 1"
_space_group_IT_number       1

loop_
  _space_group_symop_operation_xyz
  'x, y, z'

loop_
  _atom_site_type_symbol
  _atom_site_label
  _atom_site_symmetry_multiplicity
  _atom_site_fract_x
  _atom_site_fract_y
  _atom_site_fract_z
  _atom_site_occupancy
  Co  Co1       1.0  0.50379  0.61040  0.48158  1.0000
  Co  Co2       1.0  0.74621  0.63960  0.48158  1.0000
  Co  Co3       1.0  0.50379  0.63960  0.76842  1.0000
  Co  Co4       1.0  0.74621  0.61040  0.76842  1.0000
  Co  Co5       1.0  0.50379  0.11040  0.98158  1.0000
  Co  Co6       1.0  0.74621  0.13960  0.98158  1.0000
  Co  Co7       1.0  0.50379  0.13960  0.26842  1.0000
  Co  Co8       1.0  0.74621  0.11040  0.26842  1.0000
  Co  Co9       1.0  0.00379  0.61040  0.98158  1.0000
  Co  Co10      1.0  0.24621  0.63960  0.98158  1.0000
  Co  Co11      1.0  0.00379  0.63960  0.26842  1.0000
  Co  Co12      1.0  0.24621  0.61040  0.26842  1.0000
  Co  Co13      1.0  0.00379  0.11040  0.48158  1.0000
  Co  Co14      1.0  0.24621  0.13960  0.48158  1.0000
  Co  Co15      1.0  0.00379  0.13960  0.76842  1.0000
  Co  Co16      1.0  0.24621  0.11040  0.76842  1.0000
  Co  Co17      1.0  0.49621  0.38960  0.51842  1.0000
  Co  Co18      1.0  0.25379  0.36040  0.51842  1.0000
  Co  Co19      1.0  0.49621  0.36040  0.23158  1.0000
  Co  Co20      1.0  0.25379  0.38960  0.23158  1.0000
  Co  Co21      1.0  0.49621  0.88960  0.01842  1.0000
  Co  Co22      1.0  0.25379  0.86040  0.01842  1.0000
  Co  Co23      1.0  0.49621  0.86040  0.73158  1.0000
  Co  Co24      1.0  0.25379  0.88960  0.73158  1.0000
  Co  Co25      1.0  0.99621  0.38960  0.01842  1.0000
  Co  Co26      1.0  0.75379  0.36040  0.01842  1.0000
  Co  Co27      1.0  0.99621  0.36040  0.73158  1.0000
  Co  Co28      1.0  0.75379  0.38960  0.73158  1.0000
  Co  Co29      1.0  0.99621  0.88960  0.51842  1.0000
  Co  Co30      1.0  0.75379  0.86040  0.51842  1.0000
  Co  Co31      1.0  0.99621  0.86040  0.23158  1.0000
  Co  Co32      1.0  0.75379  0.88960  0.23158  1.0000
  Co  Co33      1.0  0.87500  0.37500  0.56079  1.0000
  Co  Co34      1.0  0.37500  0.87500  0.56079  1.0000
  Co  Co35      1.0  0.87500  0.87500  0.68921  1.0000
  Co  Co36      1.0  0.37500  0.37500  0.68921  1.0000
  Co  Co37      1.0  0.87500  0.87500  0.06079  1.0000
  Co  Co38      1.0  0.37500  0.37500  0.06079  1.0000
  Co  Co39      1.0  0.87500  0.37500  0.18921  1.0000
  Co  Co40      1.0  0.37500  0.87500  0.18921  1.0000
  Co  Co41      1.0  0.12500  0.62500  0.43921  1.0000
  Co  Co42      1.0  0.62500  0.12500  0.43921  1.0000
  Co  Co43      1.0  0.12500  0.12500  0.31079  1.0000
  Co  Co44      1.0  0.62500  0.62500  0.31079  1.0000
  Co  Co45      1.0  0.12500  0.12500  0.93921  1.0000
  Co  Co46      1.0  0.62500  0.62500  0.93921  1.0000
  Co  Co47      1.0  0.12500  0.62500  0.81079  1.0000
  Co  Co48      1.0  0.62500  0.12500  0.81079  1.0000
  N   N1        1.0  0.67600  0.55680  0.50860  1.0000
  N   N2        1.0  0.57400  0.69320  0.50860  1.0000
  N   N3        1.0  0.67600  0.69320  0.74140  1.0000
  N   N4        1.0  0.57400  0.55680  0.74140  1.0000
  N   N5        1.0  0.67600  0.05680  0.00860  1.0000
  N   N6        1.0  0.57400  0.19320  0.00860  1.0000
  N   N7        1.0  0.67600  0.19320  0.24140  1.0000
  N   N8        1.0  0.57400  0.05680  0.24140  1.0000
  N   N9        1.0  0.17600  0.55680  0.00860  1.0000
  N   N10       1.0  0.07400  0.69320  0.00860  1.0000
  N   N11       1.0  0.17600  0.69320  0.24140  1.0000
  N   N12       1.0  0.07400  0.55680  0.24140  1.0000
  N   N13       1.0  0.17600  0.05680  0.50860  1.0000
  N   N14       1.0  0.07400  0.19320  0.50860  1.0000
  N   N15       1.0  0.17600  0.19320  0.74140  1.0000
  N   N16       1.0  0.07400  0.05680  0.74140  1.0000
  N   N17       1.0  0.32400  0.44320  0.49140  1.0000
  N   N18       1.0  0.42600  0.30680  0.49140  1.0000
  N   N19       1.0  0.32400  0.30680  0.25860  1.0000
  N   N20       1.0  0.42600  0.44320  0.25860  1.0000
  N   N21       1.0  0.32400  0.94320  0.99140  1.0000
  N   N22       1.0  0.42600  0.80680  0.99140  1.0000
  N   N23       1.0  0.32400  0.80680  0.75860  1.0000
  N   N24       1.0  0.42600  0.94320  0.75860  1.0000
  N   N25       1.0  0.82400  0.44320  0.99140  1.0000
  N   N26       1.0  0.92600  0.30680  0.99140  1.0000
  N   N27       1.0  0.82400  0.30680  0.75860  1.0000
  N   N28       1.0  0.92600  0.44320  0.75860  1.0000
  N   N29       1.0  0.82400  0.94320  0.49140  1.0000
  N   N30       1.0  0.92600  0.80680  0.49140  1.0000
  N   N31       1.0  0.82400  0.80680  0.25860  1.0000
  N   N32       1.0  0.92600  0.94320  0.25860  1.0000
  O   O1        1.0  0.83230  0.58920  0.52589  1.0000
  O   O2        1.0  0.41770  0.66080  0.52589  1.0000
  O   O3        1.0  0.83230  0.66080  0.72411  1.0000
  O   O4        1.0  0.41770  0.58920  0.72411  1.0000
  O   O5        1.0  0.83230  0.08920  0.02589  1.0000
  O   O6        1.0  0.41770  0.16080  0.02589  1.0000
  O   O7        1.0  0.83230  0.16080  0.22411  1.0000
  O   O8        1.0  0.41770  0.08920  0.22411  1.0000
  O   O9        1.0  0.33230  0.58920  0.02589  1.0000
  O   O10       1.0  0.91770  0.66080  0.02589  1.0000
  O   O11       1.0  0.33230  0.66080  0.22411  1.0000
  O   O12       1.0  0.91770  0.58920  0.22411  1.0000
  O   O13       1.0  0.33230  0.08920  0.52589  1.0000
  O   O14       1.0  0.91770  0.16080  0.52589  1.0000
  O   O15       1.0  0.33230  0.16080  0.72411  1.0000
  O   O16       1.0  0.91770  0.08920  0.72411  1.0000
  O   O17       1.0  0.16770  0.41080  0.47411  1.0000
  O   O18       1.0  0.58230  0.33920  0.47411  1.0000
  O   O19       1.0  0.16770  0.33920  0.27589  1.0000
  O   O20       1.0  0.58230  0.41080  0.27589  1.0000
  O   O21       1.0  0.16770  0.91080  0.97411  1.0000
  O   O22       1.0  0.58230  0.83920  0.97411  1.0000
  O   O23       1.0  0.16770  0.83920  0.77589  1.0000
  O   O24       1.0  0.58230  0.91080  0.77589  1.0000
  O   O25       1.0  0.66770  0.41080  0.97411  1.0000
  O   O26       1.0  0.08230  0.33920  0.97411  1.0000
  O   O27       1.0  0.66770  0.33920  0.77589  1.0000
  O   O28       1.0  0.08230  0.41080  0.77589  1.0000
  O   O29       1.0  0.66770  0.91080  0.47411  1.0000
  O   O30       1.0  0.08230  0.83920  0.47411  1.0000
  O   O31       1.0  0.66770  0.83920  0.27589  1.0000
  O   O32       1.0  0.08230  0.91080  0.27589  1.0000
  C   C1        1.0  0.72010  0.50550  0.52759  1.0000
  C   C2        1.0  0.52990  0.74450  0.52759  1.0000
  C   C3        1.0  0.72010  0.74450  0.72241  1.0000
  C   C4        1.0  0.52990  0.50550  0.72241  1.0000
  C   C5        1.0  0.72010  0.00550  0.02759  1.0000
  C   C6        1.0  0.52990  0.24450  0.02759  1.0000
  C   C7        1.0  0.72010  0.24450  0.22241  1.0000
  C   C8        1.0  0.52990  0.00550  0.22241  1.0000
  C   C9        1.0  0.22010  0.50550  0.02759  1.0000
  C   C10       1.0  0.02990  0.74450  0.02759  1.0000
  C   C11       1.0  0.22010  0.74450  0.22241  1.0000
  C   C12       1.0  0.02990  0.50550  0.22241  1.0000
  C   C13       1.0  0.22010  0.00550  0.52759  1.0000
  C   C14       1.0  0.02990  0.24450  0.52759  1.0000
  C   C15       1.0  0.22010  0.24450  0.72241  1.0000
  C   C16       1.0  0.02990  0.00550  0.72241  1.0000
  C   C17       1.0  0.27990  0.49450  0.47241  1.0000
  C   C18       1.0  0.47010  0.25550  0.47241  1.0000
  C   C19       1.0  0.27990  0.25550  0.27759  1.0000
  C   C20       1.0  0.47010  0.49450  0.27759  1.0000
  C   C21       1.0  0.27990  0.99450  0.97241  1.0000
  C   C22       1.0  0.47010  0.75550  0.97241  1.0000
  C   C23       1.0  0.27990  0.75550  0.77759  1.0000
  C   C24       1.0  0.47010  0.99450  0.77759  1.0000
  C   C25       1.0  0.77990  0.49450  0.97241  1.0000
  C   C26       1.0  0.97010  0.25550  0.97241  1.0000
  C   C27       1.0  0.77990  0.25550  0.77759  1.0000
  C   C28       1.0  0.97010  0.49450  0.77759  1.0000
  C   C29       1.0  0.77990  0.99450  0.47241  1.0000
  C   C30       1.0  0.97010  0.75550  0.47241  1.0000
  C   C31       1.0  0.77990  0.75550  0.27759  1.0000
  C   C32       1.0  0.97010  0.99450  0.27759  1.0000
  C   C33       1.0  0.80930  0.52720  0.53810  1.0000
  C   C34       1.0  0.44070  0.72280  0.53810  1.0000
  C   C35       1.0  0.80930  0.72280  0.71190  1.0000
  C   C36       1.0  0.44070  0.52720  0.71190  1.0000
  C   C37       1.0  0.80930  0.02720  0.03810  1.0000
  C   C38       1.0  0.44070  0.22280  0.03810  1.0000
  C   C39       1.0  0.80930  0.22280  0.21190  1.0000
  C   C40       1.0  0.44070  0.02720  0.21190  1.0000
  C   C41       1.0  0.30930  0.52720  0.03810  1.0000
  C   C42       1.0  0.94070  0.72280  0.03810  1.0000
  C   C43       1.0  0.30930  0.72280  0.21190  1.0000
  C   C44       1.0  0.94070  0.52720  0.21190  1.0000
  C   C45       1.0  0.30930  0.02720  0.53810  1.0000
  C   C46       1.0  0.94070  0.22280  0.53810  1.0000
  C   C47       1.0  0.30930  0.22280  0.71190  1.0000
  C   C48       1.0  0.94070  0.02720  0.71190  1.0000
  C   C49       1.0  0.19070  0.47280  0.46190  1.0000
  C   C50       1.0  0.55930  0.27720  0.46190  1.0000
  C   C51       1.0  0.19070  0.27720  0.28810  1.0000
  C   C52       1.0  0.55930  0.47280  0.28810  1.0000
  C   C53       1.0  0.19070  0.97280  0.96190  1.0000
  C   C54       1.0  0.55930  0.77720  0.96190  1.0000
  C   C55       1.0  0.19070  0.77720  0.78810  1.0000
  C   C56       1.0  0.55930  0.97280  0.78810  1.0000
  C   C57       1.0  0.69070  0.47280  0.96190  1.0000
  C   C58       1.0  0.05930  0.27720  0.96190  1.0000
  C   C59       1.0  0.69070  0.27720  0.78810  1.0000
  C   C60       1.0  0.05930  0.47280  0.78810  1.0000
  C   C61       1.0  0.69070  0.97280  0.46190  1.0000
  C   C62       1.0  0.05930  0.77720  0.46190  1.0000
  C   C63       1.0  0.69070  0.77720  0.28810  1.0000
  C   C64       1.0  0.05930  0.97280  0.28810  1.0000
  O   O33       1.0  0.74070  0.34830  0.56220  1.0000
  O   O34       1.0  0.50930  0.90170  0.56220  1.0000
  O   O35       1.0  0.74070  0.90170  0.68780  1.0000
  O   O36       1.0  0.50930  0.34830  0.68780  1.0000
  O   O37       1.0  0.74070  0.84830  0.06220  1.0000
  O   O38       1.0  0.50930  0.40170  0.06220  1.0000
  O   O39       1.0  0.74070  0.40170  0.18780  1.0000
  O   O40       1.0  0.50930  0.84830  0.18780  1.0000
  O   O41       1.0  0.24070  0.34830  0.06220  1.0000
  O   O42       1.0  0.00930  0.90170  0.06220  1.0000
  O   O43       1.0  0.24070  0.90170  0.18780  1.0000
  O   O44       1.0  0.00930  0.34830  0.18780  1.0000
  O   O45       1.0  0.24070  0.84830  0.56220  1.0000
  O   O46       1.0  0.00930  0.40170  0.56220  1.0000
  O   O47       1.0  0.24070  0.40170  0.68780  1.0000
  O   O48       1.0  0.00930  0.84830  0.68780  1.0000
  O   O49       1.0  0.25930  0.65170  0.43780  1.0000
  O   O50       1.0  0.49070  0.09830  0.43780  1.0000
  O   O51       1.0  0.25930  0.09830  0.31220  1.0000
  O   O52       1.0  0.49070  0.65170  0.31220  1.0000
  O   O53       1.0  0.25930  0.15170  0.93780  1.0000
  O   O54       1.0  0.49070  0.59830  0.93780  1.0000
  O   O55       1.0  0.25930  0.59830  0.81220  1.0000
  O   O56       1.0  0.49070  0.15170  0.81220  1.0000
  O   O57       1.0  0.75930  0.65170  0.93780  1.0000
  O   O58       1.0  0.99070  0.09830  0.93780  1.0000
  O   O59       1.0  0.75930  0.09830  0.81220  1.0000
  O   O60       1.0  0.99070  0.65170  0.81220  1.0000
  O   O61       1.0  0.75930  0.15170  0.43780  1.0000
  O   O62       1.0  0.99070  0.59830  0.43780  1.0000
  O   O63       1.0  0.75930  0.59830  0.31220  1.0000
  O   O64       1.0  0.99070  0.15170  0.31220  1.0000
  O   O65       1.0  0.60020  0.34160  0.55570  1.0000
  O   O66       1.0  0.64980  0.90840  0.55570  1.0000
  O   O67       1.0  0.60020  0.90840  0.69430  1.0000
  O   O68       1.0  0.64980  0.34160  0.69430  1.0000
  O   O69       1.0  0.60020  0.84160  0.05570  1.0000
  O   O70       1.0  0.64980  0.40840  0.05570  1.0000
  O   O71       1.0  0.60020  0.40840  0.19430  1.0000
  O   O72       1.0  0.64980  0.84160  0.19430  1.0000
  O   O73       1.0  0.10020  0.34160  0.05570  1.0000
  O   O74       1.0  0.14980  0.90840  0.05570  1.0000
  O   O75       1.0  0.10020  0.90840  0.19430  1.0000
  O   O76       1.0  0.14980  0.34160  0.19430  1.0000
  O   O77       1.0  0.10020  0.84160  0.55570  1.0000
  O   O78       1.0  0.14980  0.40840  0.55570  1.0000
  O   O79       1.0  0.10020  0.40840  0.69430  1.0000
  O   O80       1.0  0.14980  0.84160  0.69430  1.0000
  O   O81       1.0  0.39980  0.65840  0.44430  1.0000
  O   O82       1.0  0.35020  0.09160  0.44430  1.0000
  O   O83       1.0  0.39980  0.09160  0.30570  1.0000
  O   O84       1.0  0.35020  0.65840  0.30570  1.0000
  O   O85       1.0  0.39980  0.15840  0.94430  1.0000
  O   O86       1.0  0.35020  0.59160  0.94430  1.0000
  O   O87       1.0  0.39980  0.59160  0.80570  1.0000
  O   O88       1.0  0.35020  0.15840  0.80570  1.0000
  O   O89       1.0  0.89980  0.65840  0.94430  1.0000
  O   O90       1.0  0.85020  0.09160  0.94430  1.0000
  O   O91       1.0  0.89980  0.09160  0.80570  1.0000
  O   O92       1.0  0.85020  0.65840  0.80570  1.0000
  O   O93       1.0  0.89980  0.15840  0.44430  1.0000
  O   O94       1.0  0.85020  0.59160  0.44430  1.0000
  O   O95       1.0  0.89980  0.59160  0.30570  1.0000
  O   O96       1.0  0.85020  0.15840  0.30570  1.0000
  N   N33       1.0  0.58800  0.46920  0.52115  1.0000
  N   N34       1.0  0.66200  0.78080  0.52115  1.0000
  N   N35       1.0  0.58800  0.78080  0.72885  1.0000
  N   N36       1.0  0.66200  0.46920  0.72885  1.0000
  N   N37       1.0  0.58800  0.96920  0.02115  1.0000
  N   N38       1.0  0.66200  0.28080  0.02115  1.0000
  N   N39       1.0  0.58800  0.28080  0.22885  1.0000
  N   N40       1.0  0.66200  0.96920  0.22885  1.0000
  N   N41       1.0  0.08800  0.46920  0.02115  1.0000
  N   N42       1.0  0.16200  0.78080  0.02115  1.0000
  N   N43       1.0  0.08800  0.78080  0.22885  1.0000
  N   N44       1.0  0.16200  0.46920  0.22885  1.0000
  N   N45       1.0  0.08800  0.96920  0.52115  1.0000
  N   N46       1.0  0.16200  0.28080  0.52115  1.0000
  N   N47       1.0  0.08800  0.28080  0.72885  1.0000
  N   N48       1.0  0.16200  0.96920  0.72885  1.0000
  N   N49       1.0  0.41200  0.53080  0.47885  1.0000
  N   N50       1.0  0.33800  0.21920  0.47885  1.0000
  N   N51       1.0  0.41200  0.21920  0.27115  1.0000
  N   N52       1.0  0.33800  0.53080  0.27115  1.0000
  N   N53       1.0  0.41200  0.03080  0.97885  1.0000
  N   N54       1.0  0.33800  0.71920  0.97885  1.0000
  N   N55       1.0  0.41200  0.71920  0.77115  1.0000
  N   N56       1.0  0.33800  0.03080  0.77115  1.0000
  N   N57       1.0  0.91200  0.53080  0.97885  1.0000
  N   N58       1.0  0.83800  0.21920  0.97885  1.0000
  N   N59       1.0  0.91200  0.21920  0.77115  1.0000
  N   N60       1.0  0.83800  0.53080  0.77115  1.0000
  N   N61       1.0  0.91200  0.03080  0.47885  1.0000
  N   N62       1.0  0.83800  0.71920  0.47885  1.0000
  N   N63       1.0  0.91200  0.71920  0.27115  1.0000
  N   N64       1.0  0.83800  0.03080  0.27115  1.0000
  O   O97       1.0  0.85430  0.48730  0.55976  1.0000
  O   O98       1.0  0.39570  0.76270  0.55976  1.0000
  O   O99       1.0  0.85430  0.76270  0.69024  1.0000
  O   O100      1.0  0.39570  0.48730  0.69024  1.0000
  O   O101      1.0  0.85430  0.98730  0.05976  1.0000
  O   O102      1.0  0.39570  0.26270  0.05976  1.0000
  O   O103      1.0  0.85430  0.26270  0.19024  1.0000
  O   O104      1.0  0.39570  0.98730  0.19024  1.0000
  O   O105      1.0  0.35430  0.48730  0.05976  1.0000
  O   O106      1.0  0.89570  0.76270  0.05976  1.0000
  O   O107      1.0  0.35430  0.76270  0.19024  1.0000
  O   O108      1.0  0.89570  0.48730  0.19024  1.0000
  O   O109      1.0  0.35430  0.98730  0.55976  1.0000
  O   O110      1.0  0.89570  0.26270  0.55976  1.0000
  O   O111      1.0  0.35430  0.26270  0.69024  1.0000
  O   O112      1.0  0.89570  0.98730  0.69024  1.0000
  O   O113      1.0  0.14570  0.51270  0.44024  1.0000
  O   O114      1.0  0.60430  0.23730  0.44024  1.0000
  O   O115      1.0  0.14570  0.23730  0.30976  1.0000
  O   O116      1.0  0.60430  0.51270  0.30976  1.0000
  O   O117      1.0  0.14570  0.01270  0.94024  1.0000
  O   O118      1.0  0.60430  0.73730  0.94024  1.0000
  O   O119      1.0  0.14570  0.73730  0.80976  1.0000
  O   O120      1.0  0.60430  0.01270  0.80976  1.0000
  O   O121      1.0  0.64570  0.51270  0.94024  1.0000
  O   O122      1.0  0.10430  0.23730  0.94024  1.0000
  O   O123      1.0  0.64570  0.23730  0.80976  1.0000
  O   O124      1.0  0.10430  0.51270  0.80976  1.0000
  O   O125      1.0  0.64570  0.01270  0.44024  1.0000
  O   O126      1.0  0.10430  0.73730  0.44024  1.0000
  O   O127      1.0  0.64570  0.73730  0.30976  1.0000
  O   O128      1.0  0.10430  0.01270  0.30976  1.0000
  C   C65       1.0  0.67000  0.37380  0.55281  1.0000
  C   C66       1.0  0.58000  0.87620  0.55281  1.0000
  C   C67       1.0  0.67000  0.87620  0.69719  1.0000
  C   C68       1.0  0.58000  0.37380  0.69719  1.0000
  C   C69       1.0  0.67000  0.87380  0.05281  1.0000
  C   C70       1.0  0.58000  0.37620  0.05281  1.0000
  C   C71       1.0  0.67000  0.37620  0.19719  1.0000
  C   C72       1.0  0.58000  0.87380  0.19719  1.0000
  C   C73       1.0  0.17000  0.37380  0.05281  1.0000
  C   C74       1.0  0.08000  0.87620  0.05281  1.0000
  C   C75       1.0  0.17000  0.87620  0.19719  1.0000
  C   C76       1.0  0.08000  0.37380  0.19719  1.0000
  C   C77       1.0  0.17000  0.87380  0.55281  1.0000
  C   C78       1.0  0.08000  0.37620  0.55281  1.0000
  C   C79       1.0  0.17000  0.37620  0.69719  1.0000
  C   C80       1.0  0.08000  0.87380  0.69719  1.0000
  C   C81       1.0  0.33000  0.62620  0.44719  1.0000
  C   C82       1.0  0.42000  0.12380  0.44719  1.0000
  C   C83       1.0  0.33000  0.12380  0.30281  1.0000
  C   C84       1.0  0.42000  0.62620  0.30281  1.0000
  C   C85       1.0  0.33000  0.12620  0.94719  1.0000
  C   C86       1.0  0.42000  0.62380  0.94719  1.0000
  C   C87       1.0  0.33000  0.62380  0.80281  1.0000
  C   C88       1.0  0.42000  0.12620  0.80281  1.0000
  C   C89       1.0  0.83000  0.62620  0.94719  1.0000
  C   C90       1.0  0.92000  0.12380  0.94719  1.0000
  C   C91       1.0  0.83000  0.12380  0.80281  1.0000
  C   C92       1.0  0.92000  0.62620  0.80281  1.0000
  C   C93       1.0  0.83000  0.12620  0.44719  1.0000
  C   C94       1.0  0.92000  0.62380  0.44719  1.0000
  C   C95       1.0  0.83000  0.62380  0.30281  1.0000
  C   C96       1.0  0.92000  0.12620  0.30281  1.0000
  N   N65       1.0  0.59570  0.53480  0.50529  1.0000
  N   N66       1.0  0.65430  0.71520  0.50529  1.0000
  N   N67       1.0  0.59570  0.71520  0.74471  1.0000
  N   N68       1.0  0.65430  0.53480  0.74471  1.0000
  N   N69       1.0  0.59570  0.03480  0.00529  1.0000
  N   N70       1.0  0.65430  0.21520  0.00529  1.0000
  N   N71       1.0  0.59570  0.21520  0.24471  1.0000
  N   N72       1.0  0.65430  0.03480  0.24471  1.0000
  N   N73       1.0  0.09570  0.53480  0.00529  1.0000
  N   N74       1.0  0.15430  0.71520  0.00529  1.0000
  N   N75       1.0  0.09570  0.71520  0.24471  1.0000
  N   N76       1.0  0.15430  0.53480  0.24471  1.0000
  N   N77       1.0  0.09570  0.03480  0.50529  1.0000
  N   N78       1.0  0.15430  0.21520  0.50529  1.0000
  N   N79       1.0  0.09570  0.21520  0.74471  1.0000
  N   N80       1.0  0.15430  0.03480  0.74471  1.0000
  N   N81       1.0  0.40430  0.46520  0.49471  1.0000
  N   N82       1.0  0.34570  0.28480  0.49471  1.0000
  N   N83       1.0  0.40430  0.28480  0.25529  1.0000
  N   N84       1.0  0.34570  0.46520  0.25529  1.0000
  N   N85       1.0  0.40430  0.96520  0.99471  1.0000
  N   N86       1.0  0.34570  0.78480  0.99471  1.0000
  N   N87       1.0  0.40430  0.78480  0.75529  1.0000
  N   N88       1.0  0.34570  0.96520  0.75529  1.0000
  N   N89       1.0  0.90430  0.46520  0.99471  1.0000
  N   N90       1.0  0.84570  0.28480  0.99471  1.0000
  N   N91       1.0  0.90430  0.28480  0.75529  1.0000
  N   N92       1.0  0.84570  0.46520  0.75529  1.0000
  N   N93       1.0  0.90430  0.96520  0.49471  1.0000
  N   N94       1.0  0.84570  0.78480  0.49471  1.0000
  N   N95       1.0  0.90430  0.78480  0.25529  1.0000
  N   N96       1.0  0.84570  0.96520  0.25529  1.0000
  C   C97       1.0  0.66450  0.44880  0.53534  1.0000
  C   C98       1.0  0.58550  0.80120  0.53534  1.0000
  C   C99       1.0  0.66450  0.80120  0.71466  1.0000
  C   C100      1.0  0.58550  0.44880  0.71466  1.0000
  C   C101      1.0  0.66450  0.94880  0.03534  1.0000
  C   C102      1.0  0.58550  0.30120  0.03534  1.0000
  C   C103      1.0  0.66450  0.30120  0.21466  1.0000
  C   C104      1.0  0.58550  0.94880  0.21466  1.0000
  C   C105      1.0  0.16450  0.44880  0.03534  1.0000
  C   C106      1.0  0.08550  0.80120  0.03534  1.0000
  C   C107      1.0  0.16450  0.80120  0.21466  1.0000
  C   C108      1.0  0.08550  0.44880  0.21466  1.0000
  C   C109      1.0  0.16450  0.94880  0.53534  1.0000
  C   C110      1.0  0.08550  0.30120  0.53534  1.0000
  C   C111      1.0  0.16450  0.30120  0.71466  1.0000
  C   C112      1.0  0.08550  0.94880  0.71466  1.0000
  C   C113      1.0  0.33550  0.55120  0.46466  1.0000
  C   C114      1.0  0.41450  0.19880  0.46466  1.0000
  C   C115      1.0  0.33550  0.19880  0.28534  1.0000
  C   C116      1.0  0.41450  0.55120  0.28534  1.0000
  C   C117      1.0  0.33550  0.05120  0.96466  1.0000
  C   C118      1.0  0.41450  0.69880  0.96466  1.0000
  C   C119      1.0  0.33550  0.69880  0.78534  1.0000
  C   C120      1.0  0.41450  0.05120  0.78534  1.0000
  C   C121      1.0  0.83550  0.55120  0.96466  1.0000
  C   C122      1.0  0.91450  0.19880  0.96466  1.0000
  C   C123      1.0  0.83550  0.19880  0.78534  1.0000
  C   C124      1.0  0.91450  0.55120  0.78534  1.0000
  C   C125      1.0  0.83550  0.05120  0.46466  1.0000
  C   C126      1.0  0.91450  0.69880  0.46466  1.0000
  C   C127      1.0  0.83550  0.69880  0.28534  1.0000
  C   C128      1.0  0.91450  0.05120  0.28534  1.0000
  N   N97       1.0  0.87500  0.37500  0.62090  1.0000
  N   N98       1.0  0.37500  0.87500  0.62090  1.0000
  N   N99       1.0  0.87500  0.87500  0.62910  1.0000
  N   N100      1.0  0.37500  0.37500  0.62910  1.0000
  N   N101      1.0  0.87500  0.87500  0.12090  1.0000
  N   N102      1.0  0.37500  0.37500  0.12090  1.0000
  N   N103      1.0  0.87500  0.37500  0.12910  1.0000
  N   N104      1.0  0.37500  0.87500  0.12910  1.0000
  N   N105      1.0  0.12500  0.62500  0.37910  1.0000
  N   N106      1.0  0.62500  0.12500  0.37910  1.0000
  N   N107      1.0  0.12500  0.12500  0.37090  1.0000
  N   N108      1.0  0.62500  0.62500  0.37090  1.0000
  N   N109      1.0  0.12500  0.12500  0.87910  1.0000
  N   N110      1.0  0.62500  0.62500  0.87910  1.0000
  N   N111      1.0  0.12500  0.62500  0.87090  1.0000
  N   N112      1.0  0.62500  0.12500  0.87090  1.0000
  O   O129      1.0  0.87500  0.37500  0.50070  1.0000
  O   O130      1.0  0.37500  0.87500  0.50070  1.0000
  O   O131      1.0  0.87500  0.87500  0.74930  1.0000
  O   O132      1.0  0.37500  0.37500  0.74930  1.0000
  O   O133      1.0  0.87500  0.87500  0.00070  1.0000
  O   O134      1.0  0.37500  0.37500  0.00070  1.0000
  O   O135      1.0  0.87500  0.37500  0.24930  1.0000
  O   O136      1.0  0.37500  0.87500  0.24930  1.0000
  O   O137      1.0  0.12500  0.62500  0.49930  1.0000
  O   O138      1.0  0.62500  0.12500  0.49930  1.0000
  O   O139      1.0  0.12500  0.12500  0.25070  1.0000
  O   O140      1.0  0.62500  0.62500  0.25070  1.0000
  O   O141      1.0  0.12500  0.12500  0.99930  1.0000
  O   O142      1.0  0.62500  0.62500  0.99930  1.0000
  O   O143      1.0  0.12500  0.62500  0.75070  1.0000
  O   O144      1.0  0.62500  0.12500  0.75070  1.0000
  N   N113      1.0  0.83100  0.38020  0.68250  1.0000
  N   N114      1.0  0.41900  0.86980  0.68250  1.0000
  N   N115      1.0  0.83100  0.86980  0.56750  1.0000
  N   N116      1.0  0.41900  0.38020  0.56750  1.0000
  N   N117      1.0  0.83100  0.88020  0.18250  1.0000
  N   N118      1.0  0.41900  0.36980  0.18250  1.0000
  N   N119      1.0  0.83100  0.36980  0.06750  1.0000
  N   N120      1.0  0.41900  0.88020  0.06750  1.0000
  N   N121      1.0  0.33100  0.38020  0.18250  1.0000
  N   N122      1.0  0.91900  0.86980  0.18250  1.0000
  N   N123      1.0  0.33100  0.86980  0.06750  1.0000
  N   N124      1.0  0.91900  0.38020  0.06750  1.0000
  N   N125      1.0  0.33100  0.88020  0.68250  1.0000
  N   N126      1.0  0.91900  0.36980  0.68250  1.0000
  N   N127      1.0  0.33100  0.36980  0.56750  1.0000
  N   N128      1.0  0.91900  0.88020  0.56750  1.0000
  N   N129      1.0  0.16900  0.61980  0.31750  1.0000
  N   N130      1.0  0.58100  0.13020  0.31750  1.0000
  N   N131      1.0  0.16900  0.13020  0.43250  1.0000
  N   N132      1.0  0.58100  0.61980  0.43250  1.0000
  N   N133      1.0  0.16900  0.11980  0.81750  1.0000
  N   N134      1.0  0.58100  0.63020  0.81750  1.0000
  N   N135      1.0  0.16900  0.63020  0.93250  1.0000
  N   N136      1.0  0.58100  0.11980  0.93250  1.0000
  N   N137      1.0  0.66900  0.61980  0.81750  1.0000
  N   N138      1.0  0.08100  0.13020  0.81750  1.0000
  N   N139      1.0  0.66900  0.13020  0.93250  1.0000
  N   N140      1.0  0.08100  0.61980  0.93250  1.0000
  N   N141      1.0  0.66900  0.11980  0.31750  1.0000
  N   N142      1.0  0.08100  0.63020  0.31750  1.0000
  N   N143      1.0  0.66900  0.63020  0.43250  1.0000
  N   N144      1.0  0.08100  0.11980  0.43250  1.0000
  C   C129      1.0  0.80930  0.38340  0.64594  1.0000
  C   C130      1.0  0.44070  0.86660  0.64594  1.0000
  C   C131      1.0  0.80930  0.86660  0.60406  1.0000
  C   C132      1.0  0.44070  0.38340  0.60406  1.0000
  C   C133      1.0  0.80930  0.88340  0.14594  1.0000
  C   C134      1.0  0.44070  0.36660  0.14594  1.0000
  C   C135      1.0  0.80930  0.36660  0.10406  1.0000
  C   C136      1.0  0.44070  0.88340  0.10406  1.0000
  C   C137      1.0  0.30930  0.38340  0.14594  1.0000
  C   C138      1.0  0.94070  0.86660  0.14594  1.0000
  C   C139      1.0  0.30930  0.86660  0.10406  1.0000
  C   C140      1.0  0.94070  0.38340  0.10406  1.0000
  C   C141      1.0  0.30930  0.88340  0.64594  1.0000
  C   C142      1.0  0.94070  0.36660  0.64594  1.0000
  C   C143      1.0  0.30930  0.36660  0.60406  1.0000
  C   C144      1.0  0.94070  0.88340  0.60406  1.0000
  C   C145      1.0  0.19070  0.61660  0.35406  1.0000
  C   C146      1.0  0.55930  0.13340  0.35406  1.0000
  C   C147      1.0  0.19070  0.13340  0.39594  1.0000
  C   C148      1.0  0.55930  0.61660  0.39594  1.0000
  C   C149      1.0  0.19070  0.11660  0.85406  1.0000
  C   C150      1.0  0.55930  0.63340  0.85406  1.0000
  C   C151      1.0  0.19070  0.63340  0.89594  1.0000
  C   C152      1.0  0.55930  0.11660  0.89594  1.0000
  C   C153      1.0  0.69070  0.61660  0.85406  1.0000
  C   C154      1.0  0.05930  0.13340  0.85406  1.0000
  C   C155      1.0  0.69070  0.13340  0.89594  1.0000
  C   C156      1.0  0.05930  0.61660  0.89594  1.0000
  C   C157      1.0  0.69070  0.11660  0.35406  1.0000
  C   C158      1.0  0.05930  0.63340  0.35406  1.0000
  C   C159      1.0  0.69070  0.63340  0.39594  1.0000
  C   C160      1.0  0.05930  0.11660  0.39594  1.0000
  H   H1        1.0  0.75310  0.39090  0.63780  1.0000
  H   H2        1.0  0.49690  0.85910  0.63780  1.0000
  H   H3        1.0  0.75310  0.85910  0.61220  1.0000
  H   H4        1.0  0.49690  0.39090  0.61220  1.0000
  H   H5        1.0  0.75310  0.89090  0.13780  1.0000
  H   H6        1.0  0.49690  0.35910  0.13780  1.0000
  H   H7        1.0  0.75310  0.35910  0.11220  1.0000
  H   H8        1.0  0.49690  0.89090  0.11220  1.0000
  H   H9        1.0  0.25310  0.39090  0.13780  1.0000
  H   H10       1.0  0.99690  0.85910  0.13780  1.0000
  H   H11       1.0  0.25310  0.85910  0.11220  1.0000
  H   H12       1.0  0.99690  0.39090  0.11220  1.0000
  H   H13       1.0  0.25310  0.89090  0.63780  1.0000
  H   H14       1.0  0.99690  0.35910  0.63780  1.0000
  H   H15       1.0  0.25310  0.35910  0.61220  1.0000
  H   H16       1.0  0.99690  0.89090  0.61220  1.0000
  H   H17       1.0  0.24690  0.60910  0.36220  1.0000
  H   H18       1.0  0.50310  0.14090  0.36220  1.0000
  H   H19       1.0  0.24690  0.14090  0.38780  1.0000
  H   H20       1.0  0.50310  0.60910  0.38780  1.0000
  H   H21       1.0  0.24690  0.10910  0.86220  1.0000
  H   H22       1.0  0.50310  0.64090  0.86220  1.0000
  H   H23       1.0  0.24690  0.64090  0.88780  1.0000
  H   H24       1.0  0.50310  0.10910  0.88780  1.0000
  H   H25       1.0  0.74690  0.60910  0.86220  1.0000
  H   H26       1.0  0.00310  0.14090  0.86220  1.0000
  H   H27       1.0  0.74690  0.14090  0.88780  1.0000
  H   H28       1.0  0.00310  0.60910  0.88780  1.0000
  H   H29       1.0  0.74690  0.10910  0.36220  1.0000
  H   H30       1.0  0.00310  0.64090  0.36220  1.0000
  H   H31       1.0  0.74690  0.64090  0.38780  1.0000
  H   H32       1.0  0.00310  0.10910  0.38780  1.0000
  H   H33       1.0  0.84300  0.35300  0.48410  1.0000
  H   H34       1.0  0.40700  0.89700  0.48410  1.0000
  H   H35       1.0  0.84300  0.89700  0.76590  1.0000
  H   H36       1.0  0.40700  0.35300  0.76590  1.0000
  H   H37       1.0  0.84300  0.85300  0.98410  1.0000
  H   H38       1.0  0.40700  0.39700  0.98410  1.0000
  H   H39       1.0  0.84300  0.39700  0.26590  1.0000
  H   H40       1.0  0.40700  0.85300  0.26590  1.0000
  H   H41       1.0  0.34300  0.35300  0.98410  1.0000
  H   H42       1.0  0.90700  0.89700  0.98410  1.0000
  H   H43       1.0  0.34300  0.89700  0.26590  1.0000
  H   H44       1.0  0.90700  0.35300  0.26590  1.0000
  H   H45       1.0  0.34300  0.85300  0.48410  1.0000
  H   H46       1.0  0.90700  0.39700  0.48410  1.0000
  H   H47       1.0  0.34300  0.39700  0.76590  1.0000
  H   H48       1.0  0.90700  0.85300  0.76590  1.0000
  H   H49       1.0  0.15700  0.64700  0.51590  1.0000
  H   H50       1.0  0.59300  0.10300  0.51590  1.0000
  H   H51       1.0  0.15700  0.10300  0.23410  1.0000
  H   H52       1.0  0.59300  0.64700  0.23410  1.0000
  H   H53       1.0  0.15700  0.14700  0.01590  1.0000
  H   H54       1.0  0.59300  0.60300  0.01590  1.0000
  H   H55       1.0  0.15700  0.60300  0.73410  1.0000
  H   H56       1.0  0.59300  0.14700  0.73410  1.0000
  H   H57       1.0  0.65700  0.64700  0.01590  1.0000
  H   H58       1.0  0.09300  0.10300  0.01590  1.0000
  H   H59       1.0  0.65700  0.10300  0.73410  1.0000
  H   H60       1.0  0.09300  0.64700  0.73410  1.0000
  H   H61       1.0  0.65700  0.14700  0.51590  1.0000
  H   H62       1.0  0.09300  0.60300  0.51590  1.0000
  H   H63       1.0  0.65700  0.60300  0.23410  1.0000
  H   H64       1.0  0.09300  0.14700  0.23410  1.0000
