data_image0
_chemical_formula_structural       Eu32K16O272H16N128C32H16C16H16C16H16C48H16C16H16C16H16C80H16C16H16C16H16C48H16C16H16C16H16C80H16C16H16C16H16C48H16C16H16C16H16C80H16C16H16C16H16C48H16C16H16C16H16C64H32C16H48
_chemical_formula_sum              "Eu32 K16 O272 H480 N128 C800"
_cell_length_a       26.341
_cell_length_b       26.341
_cell_length_c       29.466
_cell_angle_alpha    90
_cell_angle_beta     90
_cell_angle_gamma    90

_space_group_name_H-M_alt    "P 1"
_space_group_IT_number       1

loop_
  _space_group_symop_operation_xyz
  'x, y, z'

loop_
  _atom_site_type_symbol
  _atom_site_label
  _atom_site_symmetry_multiplicity
  _atom_site_fract_x
  _atom_site_fract_y
  _atom_site_fract_z
  _atom_site_occupancy
  Eu  Eu1       1.0  0.85952  0.41856  0.02233  1.0000
  Eu  Eu2       1.0  0.64048  0.58144  0.52233  1.0000
  Eu  Eu3       1.0  0.33144  0.10952  0.27233  1.0000
  Eu  Eu4       1.0  0.16856  0.89048  0.77233  1.0000
  Eu  Eu5       1.0  0.35952  0.91856  0.52233  1.0000
  Eu  Eu6       1.0  0.14048  0.08144  0.02233  1.0000
  Eu  Eu7       1.0  0.83144  0.60952  0.77233  1.0000
  Eu  Eu8       1.0  0.66856  0.39048  0.27233  1.0000
  Eu  Eu9       1.0  0.14048  0.58144  0.97767  1.0000
  Eu  Eu10      1.0  0.35952  0.41856  0.47767  1.0000
  Eu  Eu11      1.0  0.66856  0.89048  0.72767  1.0000
  Eu  Eu12      1.0  0.83144  0.10952  0.22767  1.0000
  Eu  Eu13      1.0  0.64048  0.08144  0.47767  1.0000
  Eu  Eu14      1.0  0.85952  0.91856  0.97767  1.0000
  Eu  Eu15      1.0  0.16856  0.39048  0.22767  1.0000
  Eu  Eu16      1.0  0.33144  0.60952  0.72767  1.0000
  Eu  Eu17      1.0  0.59047  0.63082  0.94456  1.0000
  Eu  Eu18      1.0  0.90953  0.36918  0.44456  1.0000
  Eu  Eu19      1.0  0.11918  0.84047  0.19456  1.0000
  Eu  Eu20      1.0  0.38082  0.15953  0.69456  1.0000
  Eu  Eu21      1.0  0.09047  0.13082  0.44456  1.0000
  Eu  Eu22      1.0  0.40953  0.86918  0.94456  1.0000
  Eu  Eu23      1.0  0.61918  0.34047  0.69456  1.0000
  Eu  Eu24      1.0  0.88082  0.65953  0.19456  1.0000
  Eu  Eu25      1.0  0.40953  0.36918  0.05544  1.0000
  Eu  Eu26      1.0  0.09047  0.63082  0.55544  1.0000
  Eu  Eu27      1.0  0.88082  0.15953  0.80544  1.0000
  Eu  Eu28      1.0  0.61918  0.84047  0.30544  1.0000
  Eu  Eu29      1.0  0.90953  0.86918  0.55544  1.0000
  Eu  Eu30      1.0  0.59047  0.13082  0.05544  1.0000
  Eu  Eu31      1.0  0.38082  0.65953  0.30544  1.0000
  Eu  Eu32      1.0  0.11918  0.34047  0.80544  1.0000
  K   K1        1.0  0.83437  0.66542  0.99113  1.0000
  K   K2        1.0  0.66563  0.33458  0.49113  1.0000
  K   K3        1.0  0.08458  0.08437  0.24113  1.0000
  K   K4        1.0  0.41542  0.91563  0.74113  1.0000
  K   K5        1.0  0.33437  0.16542  0.49113  1.0000
  K   K6        1.0  0.16563  0.83458  0.99113  1.0000
  K   K7        1.0  0.58458  0.58437  0.74113  1.0000
  K   K8        1.0  0.91542  0.41563  0.24113  1.0000
  K   K9        1.0  0.16563  0.33458  0.00887  1.0000
  K   K10       1.0  0.33437  0.66542  0.50887  1.0000
  K   K11       1.0  0.91542  0.91563  0.75887  1.0000
  K   K12       1.0  0.58458  0.08437  0.25887  1.0000
  K   K13       1.0  0.66563  0.83458  0.50887  1.0000
  K   K14       1.0  0.83437  0.16542  0.00887  1.0000
  K   K15       1.0  0.41542  0.41563  0.25887  1.0000
  K   K16       1.0  0.08458  0.58437  0.75887  1.0000
  O   O1        1.0  0.83710  0.42490  0.94615  1.0000
  O   O2        1.0  0.66290  0.57510  0.44615  1.0000
  O   O3        1.0  0.32510  0.08710  0.19615  1.0000
  O   O4        1.0  0.17490  0.91290  0.69615  1.0000
  O   O5        1.0  0.33710  0.92490  0.44615  1.0000
  O   O6        1.0  0.16290  0.07510  0.94615  1.0000
  O   O7        1.0  0.82510  0.58710  0.69615  1.0000
  O   O8        1.0  0.67490  0.41290  0.19615  1.0000
  O   O9        1.0  0.16290  0.57510  0.05385  1.0000
  O   O10       1.0  0.33710  0.42490  0.55385  1.0000
  O   O11       1.0  0.67490  0.91290  0.80385  1.0000
  O   O12       1.0  0.82510  0.08710  0.30385  1.0000
  O   O13       1.0  0.66290  0.07510  0.55385  1.0000
  O   O14       1.0  0.83710  0.92490  0.05385  1.0000
  O   O15       1.0  0.17490  0.41290  0.30385  1.0000
  O   O16       1.0  0.32510  0.58710  0.80385  1.0000
  O   O17       1.0  0.85200  0.44540  0.87440  1.0000
  O   O18       1.0  0.64800  0.55460  0.37440  1.0000
  O   O19       1.0  0.30460  0.10200  0.12440  1.0000
  O   O20       1.0  0.19540  0.89800  0.62440  1.0000
  O   O21       1.0  0.35200  0.94540  0.37440  1.0000
  O   O22       1.0  0.14800  0.05460  0.87440  1.0000
  O   O23       1.0  0.80460  0.60200  0.62440  1.0000
  O   O24       1.0  0.69540  0.39800  0.12440  1.0000
  O   O25       1.0  0.14800  0.55460  0.12560  1.0000
  O   O26       1.0  0.35200  0.44540  0.62560  1.0000
  O   O27       1.0  0.69540  0.89800  0.87560  1.0000
  O   O28       1.0  0.80460  0.10200  0.37560  1.0000
  O   O29       1.0  0.64800  0.05460  0.62560  1.0000
  O   O30       1.0  0.85200  0.94540  0.12560  1.0000
  O   O31       1.0  0.19540  0.39800  0.37560  1.0000
  O   O32       1.0  0.30460  0.60200  0.87560  1.0000
  O   O33       1.0  0.86400  0.40470  0.10197  1.0000
  O   O34       1.0  0.63600  0.59530  0.60197  1.0000
  O   O35       1.0  0.34530  0.11400  0.35197  1.0000
  O   O36       1.0  0.15470  0.88600  0.85197  1.0000
  O   O37       1.0  0.36400  0.90470  0.60197  1.0000
  O   O38       1.0  0.13600  0.09530  0.10197  1.0000
  O   O39       1.0  0.84530  0.61400  0.85197  1.0000
  O   O40       1.0  0.65470  0.38600  0.35197  1.0000
  O   O41       1.0  0.13600  0.59530  0.89803  1.0000
  O   O42       1.0  0.36400  0.40470  0.39803  1.0000
  O   O43       1.0  0.65470  0.88600  0.64803  1.0000
  O   O44       1.0  0.84530  0.11400  0.14803  1.0000
  O   O45       1.0  0.63600  0.09530  0.39803  1.0000
  O   O46       1.0  0.86400  0.90470  0.89803  1.0000
  O   O47       1.0  0.15470  0.38600  0.14803  1.0000
  O   O48       1.0  0.34530  0.61400  0.64803  1.0000
  O   O49       1.0  0.90620  0.38980  0.16670  1.0000
  O   O50       1.0  0.59380  0.61020  0.66670  1.0000
  O   O51       1.0  0.36020  0.15620  0.41670  1.0000
  O   O52       1.0  0.13980  0.84380  0.91670  1.0000
  O   O53       1.0  0.40620  0.88980  0.66670  1.0000
  O   O54       1.0  0.09380  0.11020  0.16670  1.0000
  O   O55       1.0  0.86020  0.65620  0.91670  1.0000
  O   O56       1.0  0.63980  0.34380  0.41670  1.0000
  O   O57       1.0  0.09380  0.61020  0.83330  1.0000
  O   O58       1.0  0.40620  0.38980  0.33330  1.0000
  O   O59       1.0  0.63980  0.84380  0.58330  1.0000
  O   O60       1.0  0.86020  0.15620  0.08330  1.0000
  O   O61       1.0  0.59380  0.11020  0.33330  1.0000
  O   O62       1.0  0.90620  0.88980  0.83330  1.0000
  O   O63       1.0  0.13980  0.34380  0.08330  1.0000
  O   O64       1.0  0.36020  0.65620  0.58330  1.0000
  O   O65       1.0  0.86956  0.33065  0.01310  1.0000
  O   O66       1.0  0.63044  0.66935  0.51310  1.0000
  O   O67       1.0  0.41935  0.11956  0.26310  1.0000
  O   O68       1.0  0.08065  0.88044  0.76310  1.0000
  O   O69       1.0  0.36956  0.83065  0.51310  1.0000
  O   O70       1.0  0.13044  0.16935  0.01310  1.0000
  O   O71       1.0  0.91935  0.61956  0.76310  1.0000
  O   O72       1.0  0.58065  0.38044  0.26310  1.0000
  O   O73       1.0  0.13044  0.66935  0.98690  1.0000
  O   O74       1.0  0.36956  0.33065  0.48690  1.0000
  O   O75       1.0  0.58065  0.88044  0.73690  1.0000
  O   O76       1.0  0.91935  0.11956  0.23690  1.0000
  O   O77       1.0  0.63044  0.16935  0.48690  1.0000
  O   O78       1.0  0.86956  0.83065  0.98690  1.0000
  O   O79       1.0  0.08065  0.38044  0.23690  1.0000
  O   O80       1.0  0.41935  0.61956  0.73690  1.0000
  O   O81       1.0  0.84076  0.25196  0.01218  1.0000
  O   O82       1.0  0.65924  0.74804  0.51218  1.0000
  O   O83       1.0  0.49804  0.09076  0.26218  1.0000
  O   O84       1.0  0.00196  0.90924  0.76218  1.0000
  O   O85       1.0  0.34076  0.75196  0.51218  1.0000
  O   O86       1.0  0.15924  0.24804  0.01218  1.0000
  O   O87       1.0  0.99804  0.59076  0.76218  1.0000
  O   O88       1.0  0.50196  0.40924  0.26218  1.0000
  O   O89       1.0  0.15924  0.74804  0.98782  1.0000
  O   O90       1.0  0.34076  0.25196  0.48782  1.0000
  O   O91       1.0  0.50196  0.90924  0.73782  1.0000
  O   O92       1.0  0.99804  0.09076  0.23782  1.0000
  O   O93       1.0  0.65924  0.24804  0.48782  1.0000
  O   O94       1.0  0.84076  0.75196  0.98782  1.0000
  O   O95       1.0  0.00196  0.40924  0.23782  1.0000
  O   O96       1.0  0.49804  0.59076  0.73782  1.0000
  O   O97       1.0  0.86881  0.50715  0.02710  1.0000
  O   O98       1.0  0.63119  0.49285  0.52710  1.0000
  O   O99       1.0  0.24285  0.11881  0.27710  1.0000
  O   O100      1.0  0.25715  0.88119  0.77710  1.0000
  O   O101      1.0  0.36881  0.00715  0.52710  1.0000
  O   O102      1.0  0.13119  0.99285  0.02710  1.0000
  O   O103      1.0  0.74285  0.61881  0.77710  1.0000
  O   O104      1.0  0.75715  0.38119  0.27710  1.0000
  O   O105      1.0  0.13119  0.49285  0.97290  1.0000
  O   O106      1.0  0.36881  0.50715  0.47290  1.0000
  O   O107      1.0  0.75715  0.88119  0.72290  1.0000
  O   O108      1.0  0.74285  0.11881  0.22290  1.0000
  O   O109      1.0  0.63119  0.99285  0.47290  1.0000
  O   O110      1.0  0.86881  0.00715  0.97290  1.0000
  O   O111      1.0  0.25715  0.38119  0.22290  1.0000
  O   O112      1.0  0.24285  0.61881  0.72290  1.0000
  O   O113      1.0  0.83820  0.58305  0.01240  1.0000
  O   O114      1.0  0.66180  0.41695  0.51240  1.0000
  O   O115      1.0  0.16695  0.08820  0.26240  1.0000
  O   O116      1.0  0.33305  0.91180  0.76240  1.0000
  O   O117      1.0  0.33820  0.08305  0.51240  1.0000
  O   O118      1.0  0.16180  0.91695  0.01240  1.0000
  O   O119      1.0  0.66695  0.58820  0.76240  1.0000
  O   O120      1.0  0.83305  0.41180  0.26240  1.0000
  O   O121      1.0  0.16180  0.41695  0.98760  1.0000
  O   O122      1.0  0.33820  0.58305  0.48760  1.0000
  O   O123      1.0  0.83305  0.91180  0.73760  1.0000
  O   O124      1.0  0.66695  0.08820  0.23760  1.0000
  O   O125      1.0  0.66180  0.91695  0.48760  1.0000
  O   O126      1.0  0.83820  0.08305  0.98760  1.0000
  O   O127      1.0  0.33305  0.41180  0.23760  1.0000
  O   O128      1.0  0.16695  0.58820  0.73760  1.0000
  O   O129      1.0  0.67302  0.66664  0.94532  1.0000
  O   O130      1.0  0.82698  0.33336  0.44532  1.0000
  O   O131      1.0  0.08336  0.92302  0.19532  1.0000
  O   O132      1.0  0.41664  0.07698  0.69532  1.0000
  O   O133      1.0  0.17302  0.16664  0.44532  1.0000
  O   O134      1.0  0.32698  0.83336  0.94532  1.0000
  O   O135      1.0  0.58336  0.42302  0.69532  1.0000
  O   O136      1.0  0.91664  0.57698  0.19532  1.0000
  O   O137      1.0  0.32698  0.33336  0.05468  1.0000
  O   O138      1.0  0.17302  0.66664  0.55468  1.0000
  O   O139      1.0  0.91664  0.07698  0.80468  1.0000
  O   O140      1.0  0.58336  0.92302  0.30468  1.0000
  O   O141      1.0  0.82698  0.83336  0.55468  1.0000
  O   O142      1.0  0.67302  0.16664  0.05468  1.0000
  O   O143      1.0  0.41664  0.57698  0.30468  1.0000
  O   O144      1.0  0.08336  0.42302  0.80468  1.0000
  O   O145      1.0  0.75585  0.65800  0.95450  1.0000
  O   O146      1.0  0.74415  0.34200  0.45450  1.0000
  O   O147      1.0  0.09200  0.00585  0.20450  1.0000
  O   O148      1.0  0.40800  0.99415  0.70450  1.0000
  O   O149      1.0  0.25585  0.15800  0.45450  1.0000
  O   O150      1.0  0.24415  0.84200  0.95450  1.0000
  O   O151      1.0  0.59200  0.50585  0.70450  1.0000
  O   O152      1.0  0.90800  0.49415  0.20450  1.0000
  O   O153      1.0  0.24415  0.34200  0.04550  1.0000
  O   O154      1.0  0.25585  0.65800  0.54550  1.0000
  O   O155      1.0  0.90800  0.99415  0.79550  1.0000
  O   O156      1.0  0.59200  0.00585  0.29550  1.0000
  O   O157      1.0  0.74415  0.84200  0.54550  1.0000
  O   O158      1.0  0.75585  0.15800  0.04550  1.0000
  O   O159      1.0  0.40800  0.49415  0.29550  1.0000
  O   O160      1.0  0.09200  0.50585  0.79550  1.0000
  O   O161      1.0  0.50386  0.61538  0.94894  1.0000
  O   O162      1.0  0.99614  0.38462  0.44894  1.0000
  O   O163      1.0  0.13462  0.75386  0.19894  1.0000
  O   O164      1.0  0.36538  0.24614  0.69894  1.0000
  O   O165      1.0  0.00386  0.11538  0.44894  1.0000
  O   O166      1.0  0.49614  0.88462  0.94894  1.0000
  O   O167      1.0  0.63462  0.25386  0.69894  1.0000
  O   O168      1.0  0.86538  0.74614  0.19894  1.0000
  O   O169      1.0  0.49614  0.38462  0.05106  1.0000
  O   O170      1.0  0.00386  0.61538  0.55106  1.0000
  O   O171      1.0  0.86538  0.24614  0.80106  1.0000
  O   O172      1.0  0.63462  0.75386  0.30106  1.0000
  O   O173      1.0  0.99614  0.88462  0.55106  1.0000
  O   O174      1.0  0.50386  0.11538  0.05106  1.0000
  O   O175      1.0  0.36538  0.74614  0.30106  1.0000
  O   O176      1.0  0.13462  0.25386  0.80106  1.0000
  O   O177      1.0  0.43510  0.56700  0.94620  1.0000
  O   O178      1.0  0.06490  0.43300  0.44620  1.0000
  O   O179      1.0  0.18300  0.68510  0.19620  1.0000
  O   O180      1.0  0.31700  0.31490  0.69620  1.0000
  O   O181      1.0  0.93510  0.06700  0.44620  1.0000
  O   O182      1.0  0.56490  0.93300  0.94620  1.0000
  O   O183      1.0  0.68300  0.18510  0.69620  1.0000
  O   O184      1.0  0.81700  0.81490  0.19620  1.0000
  O   O185      1.0  0.56490  0.43300  0.05380  1.0000
  O   O186      1.0  0.93510  0.56700  0.55380  1.0000
  O   O187      1.0  0.81700  0.31490  0.80380  1.0000
  O   O188      1.0  0.68300  0.68510  0.30380  1.0000
  O   O189      1.0  0.06490  0.93300  0.55380  1.0000
  O   O190      1.0  0.43510  0.06700  0.05380  1.0000
  O   O191      1.0  0.31700  0.81490  0.30380  1.0000
  O   O192      1.0  0.18300  0.18510  0.80380  1.0000
  O   O193      1.0  0.59110  0.61840  0.02360  1.0000
  O   O194      1.0  0.90890  0.38160  0.52360  1.0000
  O   O195      1.0  0.13160  0.84110  0.27360  1.0000
  O   O196      1.0  0.36840  0.15890  0.77360  1.0000
  O   O197      1.0  0.09110  0.11840  0.52360  1.0000
  O   O198      1.0  0.40890  0.88160  0.02360  1.0000
  O   O199      1.0  0.63160  0.34110  0.77360  1.0000
  O   O200      1.0  0.86840  0.65890  0.27360  1.0000
  O   O201      1.0  0.40890  0.38160  0.97640  1.0000
  O   O202      1.0  0.09110  0.61840  0.47640  1.0000
  O   O203      1.0  0.86840  0.15890  0.72640  1.0000
  O   O204      1.0  0.63160  0.84110  0.22640  1.0000
  O   O205      1.0  0.90890  0.88160  0.47640  1.0000
  O   O206      1.0  0.59110  0.11840  0.97640  1.0000
  O   O207      1.0  0.36840  0.65890  0.22640  1.0000
  O   O208      1.0  0.13160  0.34110  0.72640  1.0000
  O   O209      1.0  0.57240  0.64390  0.09400  1.0000
  O   O210      1.0  0.92760  0.35610  0.59400  1.0000
  O   O211      1.0  0.10610  0.82240  0.34400  1.0000
  O   O212      1.0  0.39390  0.17760  0.84400  1.0000
  O   O213      1.0  0.07240  0.14390  0.59400  1.0000
  O   O214      1.0  0.42760  0.85610  0.09400  1.0000
  O   O215      1.0  0.60610  0.32240  0.84400  1.0000
  O   O216      1.0  0.89390  0.67760  0.34400  1.0000
  O   O217      1.0  0.42760  0.35610  0.90600  1.0000
  O   O218      1.0  0.07240  0.64390  0.40600  1.0000
  O   O219      1.0  0.89390  0.17760  0.65600  1.0000
  O   O220      1.0  0.60610  0.82240  0.15600  1.0000
  O   O221      1.0  0.92760  0.85610  0.40600  1.0000
  O   O222      1.0  0.57240  0.14390  0.90600  1.0000
  O   O223      1.0  0.39390  0.67760  0.15600  1.0000
  O   O224      1.0  0.10610  0.32240  0.65600  1.0000
  O   O225      1.0  0.58710  0.62224  0.86356  1.0000
  O   O226      1.0  0.91290  0.37776  0.36356  1.0000
  O   O227      1.0  0.12776  0.83710  0.11356  1.0000
  O   O228      1.0  0.37224  0.16290  0.61356  1.0000
  O   O229      1.0  0.08710  0.12224  0.36356  1.0000
  O   O230      1.0  0.41290  0.87776  0.86356  1.0000
  O   O231      1.0  0.62776  0.33710  0.61356  1.0000
  O   O232      1.0  0.87224  0.66290  0.11356  1.0000
  O   O233      1.0  0.41290  0.37776  0.13644  1.0000
  O   O234      1.0  0.08710  0.62224  0.63644  1.0000
  O   O235      1.0  0.87224  0.16290  0.88644  1.0000
  O   O236      1.0  0.62776  0.83710  0.38644  1.0000
  O   O237      1.0  0.91290  0.87776  0.63644  1.0000
  O   O238      1.0  0.58710  0.12224  0.13644  1.0000
  O   O239      1.0  0.37224  0.66290  0.38644  1.0000
  O   O240      1.0  0.12776  0.33710  0.88644  1.0000
  O   O241      1.0  0.57920  0.65310  0.79269  1.0000
  O   O242      1.0  0.92080  0.34690  0.29269  1.0000
  O   O243      1.0  0.09690  0.82920  0.04269  1.0000
  O   O244      1.0  0.40310  0.17080  0.54269  1.0000
  O   O245      1.0  0.07920  0.15310  0.29269  1.0000
  O   O246      1.0  0.42080  0.84690  0.79269  1.0000
  O   O247      1.0  0.59690  0.32920  0.54269  1.0000
  O   O248      1.0  0.90310  0.67080  0.04269  1.0000
  O   O249      1.0  0.42080  0.34690  0.20731  1.0000
  O   O250      1.0  0.07920  0.65310  0.70731  1.0000
  O   O251      1.0  0.90310  0.17080  0.95731  1.0000
  O   O252      1.0  0.59690  0.82920  0.45731  1.0000
  O   O253      1.0  0.92080  0.84690  0.70731  1.0000
  O   O254      1.0  0.57920  0.15310  0.20731  1.0000
  O   O255      1.0  0.40310  0.67080  0.45731  1.0000
  O   O256      1.0  0.09690  0.32920  0.95731  1.0000
  O   O257      1.0  0.78570  0.67310  0.06040  1.0000
  O   O258      1.0  0.71430  0.32690  0.56040  1.0000
  O   O259      1.0  0.07690  0.03570  0.31040  1.0000
  O   O260      1.0  0.42310  0.96430  0.81040  1.0000
  O   O261      1.0  0.28570  0.17310  0.56040  1.0000
  O   O262      1.0  0.21430  0.82690  0.06040  1.0000
  O   O263      1.0  0.57690  0.53570  0.81040  1.0000
  O   O264      1.0  0.92310  0.46430  0.31040  1.0000
  O   O265      1.0  0.21430  0.32690  0.93960  1.0000
  O   O266      1.0  0.28570  0.67310  0.43960  1.0000
  O   O267      1.0  0.92310  0.96430  0.68960  1.0000
  O   O268      1.0  0.57690  0.03570  0.18960  1.0000
  O   O269      1.0  0.71430  0.82690  0.43960  1.0000
  O   O270      1.0  0.78570  0.17310  0.93960  1.0000
  O   O271      1.0  0.42310  0.46430  0.18960  1.0000
  O   O272      1.0  0.07690  0.53570  0.68960  1.0000
  H   H1        1.0  0.80783  0.66807  0.07947  1.0000
  H   H2        1.0  0.69217  0.33193  0.57947  1.0000
  H   H3        1.0  0.08193  0.05783  0.32947  1.0000
  H   H4        1.0  0.41807  0.94217  0.82947  1.0000
  H   H5        1.0  0.30783  0.16807  0.57947  1.0000
  H   H6        1.0  0.19217  0.83193  0.07947  1.0000
  H   H7        1.0  0.58193  0.55783  0.82947  1.0000
  H   H8        1.0  0.91807  0.44217  0.32947  1.0000
  H   H9        1.0  0.19217  0.33193  0.92053  1.0000
  H   H10       1.0  0.30783  0.66807  0.42053  1.0000
  H   H11       1.0  0.91807  0.94217  0.67053  1.0000
  H   H12       1.0  0.58193  0.05783  0.17053  1.0000
  H   H13       1.0  0.69217  0.83193  0.42053  1.0000
  H   H14       1.0  0.80783  0.16807  0.92053  1.0000
  H   H15       1.0  0.41807  0.44217  0.17053  1.0000
  H   H16       1.0  0.08193  0.55783  0.67053  1.0000
  N   N1        1.0  0.93320  0.43200  0.96852  1.0000
  N   N2        1.0  0.56680  0.56800  0.46852  1.0000
  N   N3        1.0  0.31800  0.18320  0.21852  1.0000
  N   N4        1.0  0.18200  0.81680  0.71852  1.0000
  N   N5        1.0  0.43320  0.93200  0.46852  1.0000
  N   N6        1.0  0.06680  0.06800  0.96852  1.0000
  N   N7        1.0  0.81800  0.68320  0.71852  1.0000
  N   N8        1.0  0.68200  0.31680  0.21852  1.0000
  N   N9        1.0  0.06680  0.56800  0.03148  1.0000
  N   N10       1.0  0.43320  0.43200  0.53148  1.0000
  N   N11       1.0  0.68200  0.81680  0.78148  1.0000
  N   N12       1.0  0.81800  0.18320  0.28148  1.0000
  N   N13       1.0  0.56680  0.06800  0.53148  1.0000
  N   N14       1.0  0.93320  0.93200  0.03148  1.0000
  N   N15       1.0  0.18200  0.31680  0.28148  1.0000
  N   N16       1.0  0.31800  0.68320  0.78148  1.0000
  N   N17       1.0  0.94880  0.41740  0.05496  1.0000
  N   N18       1.0  0.55120  0.58260  0.55496  1.0000
  N   N19       1.0  0.33260  0.19880  0.30496  1.0000
  N   N20       1.0  0.16740  0.80120  0.80496  1.0000
  N   N21       1.0  0.44880  0.91740  0.55496  1.0000
  N   N22       1.0  0.05120  0.08260  0.05496  1.0000
  N   N23       1.0  0.83260  0.69880  0.80496  1.0000
  N   N24       1.0  0.66740  0.30120  0.30496  1.0000
  N   N25       1.0  0.05120  0.58260  0.94504  1.0000
  N   N26       1.0  0.44880  0.41740  0.44504  1.0000
  N   N27       1.0  0.66740  0.80120  0.69504  1.0000
  N   N28       1.0  0.83260  0.19880  0.19504  1.0000
  N   N29       1.0  0.55120  0.08260  0.44504  1.0000
  N   N30       1.0  0.94880  0.91740  0.94504  1.0000
  N   N31       1.0  0.16740  0.30120  0.19504  1.0000
  N   N32       1.0  0.33260  0.69880  0.69504  1.0000
  N   N33       1.0  0.77760  0.36850  0.02515  1.0000
  N   N34       1.0  0.72240  0.63150  0.52515  1.0000
  N   N35       1.0  0.38150  0.02760  0.27515  1.0000
  N   N36       1.0  0.11850  0.97240  0.77515  1.0000
  N   N37       1.0  0.27760  0.86850  0.52515  1.0000
  N   N38       1.0  0.22240  0.13150  0.02515  1.0000
  N   N39       1.0  0.88150  0.52760  0.77515  1.0000
  N   N40       1.0  0.61850  0.47240  0.27515  1.0000
  N   N41       1.0  0.22240  0.63150  0.97485  1.0000
  N   N42       1.0  0.27760  0.36850  0.47485  1.0000
  N   N43       1.0  0.61850  0.97240  0.72485  1.0000
  N   N44       1.0  0.88150  0.02760  0.22485  1.0000
  N   N45       1.0  0.72240  0.13150  0.47485  1.0000
  N   N46       1.0  0.77760  0.86850  0.97485  1.0000
  N   N47       1.0  0.11850  0.47240  0.22485  1.0000
  N   N48       1.0  0.38150  0.52760  0.72485  1.0000
  N   N49       1.0  0.77707  0.46735  0.03084  1.0000
  N   N50       1.0  0.72293  0.53265  0.53084  1.0000
  N   N51       1.0  0.28265  0.02707  0.28084  1.0000
  N   N52       1.0  0.21735  0.97293  0.78084  1.0000
  N   N53       1.0  0.27707  0.96735  0.53084  1.0000
  N   N54       1.0  0.22293  0.03265  0.03084  1.0000
  N   N55       1.0  0.78265  0.52707  0.78084  1.0000
  N   N56       1.0  0.71735  0.47293  0.28084  1.0000
  N   N57       1.0  0.22293  0.53265  0.96916  1.0000
  N   N58       1.0  0.27707  0.46735  0.46916  1.0000
  N   N59       1.0  0.71735  0.97293  0.71916  1.0000
  N   N60       1.0  0.78265  0.02707  0.21916  1.0000
  N   N61       1.0  0.72293  0.03265  0.46916  1.0000
  N   N62       1.0  0.77707  0.96735  0.96916  1.0000
  N   N63       1.0  0.21735  0.47293  0.21916  1.0000
  N   N64       1.0  0.28265  0.52707  0.71916  1.0000
  N   N65       1.0  0.66130  0.56740  0.93620  1.0000
  N   N66       1.0  0.83870  0.43260  0.43620  1.0000
  N   N67       1.0  0.18260  0.91130  0.18620  1.0000
  N   N68       1.0  0.31740  0.08870  0.68620  1.0000
  N   N69       1.0  0.16130  0.06740  0.43620  1.0000
  N   N70       1.0  0.33870  0.93260  0.93620  1.0000
  N   N71       1.0  0.68260  0.41130  0.68620  1.0000
  N   N72       1.0  0.81740  0.58870  0.18620  1.0000
  N   N73       1.0  0.33870  0.43260  0.06380  1.0000
  N   N74       1.0  0.16130  0.56740  0.56380  1.0000
  N   N75       1.0  0.81740  0.08870  0.81380  1.0000
  N   N76       1.0  0.68260  0.91130  0.31380  1.0000
  N   N77       1.0  0.83870  0.93260  0.56380  1.0000
  N   N78       1.0  0.66130  0.06740  0.06380  1.0000
  N   N79       1.0  0.31740  0.58870  0.31380  1.0000
  N   N80       1.0  0.18260  0.41130  0.81380  1.0000
  N   N81       1.0  0.56580  0.53850  0.93900  1.0000
  N   N82       1.0  0.93420  0.46150  0.43900  1.0000
  N   N83       1.0  0.21150  0.81580  0.18900  1.0000
  N   N84       1.0  0.28850  0.18420  0.68900  1.0000
  N   N85       1.0  0.06580  0.03850  0.43900  1.0000
  N   N86       1.0  0.43420  0.96150  0.93900  1.0000
  N   N87       1.0  0.71150  0.31580  0.68900  1.0000
  N   N88       1.0  0.78850  0.68420  0.18900  1.0000
  N   N89       1.0  0.43420  0.46150  0.06100  1.0000
  N   N90       1.0  0.06580  0.53850  0.56100  1.0000
  N   N91       1.0  0.78850  0.18420  0.81100  1.0000
  N   N92       1.0  0.71150  0.81580  0.31100  1.0000
  N   N93       1.0  0.93420  0.96150  0.56100  1.0000
  N   N94       1.0  0.56580  0.03850  0.06100  1.0000
  N   N95       1.0  0.28850  0.68420  0.31100  1.0000
  N   N96       1.0  0.21150  0.31580  0.81100  1.0000
  N   N97       1.0  0.57370  0.71010  0.99008  1.0000
  N   N98       1.0  0.92630  0.28990  0.49008  1.0000
  N   N99       1.0  0.03990  0.82370  0.24008  1.0000
  N   N100      1.0  0.46010  0.17630  0.74008  1.0000
  N   N101      1.0  0.07370  0.21010  0.49008  1.0000
  N   N102      1.0  0.42630  0.78990  0.99008  1.0000
  N   N103      1.0  0.53990  0.32370  0.74008  1.0000
  N   N104      1.0  0.96010  0.67630  0.24008  1.0000
  N   N105      1.0  0.42630  0.28990  0.00992  1.0000
  N   N106      1.0  0.07370  0.71010  0.50992  1.0000
  N   N107      1.0  0.96010  0.17630  0.75992  1.0000
  N   N108      1.0  0.53990  0.82370  0.25992  1.0000
  N   N109      1.0  0.92630  0.78990  0.50992  1.0000
  N   N110      1.0  0.57370  0.21010  0.00992  1.0000
  N   N111      1.0  0.46010  0.67630  0.25992  1.0000
  N   N112      1.0  0.03990  0.32370  0.75992  1.0000
  N   N113      1.0  0.57381  0.71200  0.90052  1.0000
  N   N114      1.0  0.92619  0.28800  0.40052  1.0000
  N   N115      1.0  0.03800  0.82381  0.15052  1.0000
  N   N116      1.0  0.46200  0.17619  0.65052  1.0000
  N   N117      1.0  0.07381  0.21200  0.40052  1.0000
  N   N118      1.0  0.42619  0.78800  0.90052  1.0000
  N   N119      1.0  0.53800  0.32381  0.65052  1.0000
  N   N120      1.0  0.96200  0.67619  0.15052  1.0000
  N   N121      1.0  0.42619  0.28800  0.09948  1.0000
  N   N122      1.0  0.07381  0.71200  0.59948  1.0000
  N   N123      1.0  0.96200  0.17619  0.84948  1.0000
  N   N124      1.0  0.53800  0.82381  0.34948  1.0000
  N   N125      1.0  0.92619  0.78800  0.59948  1.0000
  N   N126      1.0  0.57381  0.21200  0.09948  1.0000
  N   N127      1.0  0.46200  0.67619  0.34948  1.0000
  N   N128      1.0  0.03800  0.32381  0.84948  1.0000
  C   C1        1.0  0.92220  0.44120  0.92420  1.0000
  C   C2        1.0  0.57780  0.55880  0.42420  1.0000
  C   C3        1.0  0.30880  0.17220  0.17420  1.0000
  C   C4        1.0  0.19120  0.82780  0.67420  1.0000
  C   C5        1.0  0.42220  0.94120  0.42420  1.0000
  C   C6        1.0  0.07780  0.05880  0.92420  1.0000
  C   C7        1.0  0.80880  0.67220  0.67420  1.0000
  C   C8        1.0  0.69120  0.32780  0.17420  1.0000
  C   C9        1.0  0.07780  0.55880  0.07580  1.0000
  C   C10       1.0  0.42220  0.44120  0.57580  1.0000
  C   C11       1.0  0.69120  0.82780  0.82580  1.0000
  C   C12       1.0  0.80880  0.17220  0.32580  1.0000
  C   C13       1.0  0.57780  0.05880  0.57580  1.0000
  C   C14       1.0  0.92220  0.94120  0.07580  1.0000
  C   C15       1.0  0.19120  0.32780  0.32580  1.0000
  C   C16       1.0  0.30880  0.67220  0.82580  1.0000
  C   C17       1.0  0.95820  0.45270  0.89260  1.0000
  C   C18       1.0  0.54180  0.54730  0.39260  1.0000
  C   C19       1.0  0.29730  0.20820  0.14260  1.0000
  C   C20       1.0  0.20270  0.79180  0.64260  1.0000
  C   C21       1.0  0.45820  0.95270  0.39260  1.0000
  C   C22       1.0  0.04180  0.04730  0.89260  1.0000
  C   C23       1.0  0.79730  0.70820  0.64260  1.0000
  C   C24       1.0  0.70270  0.29180  0.14260  1.0000
  C   C25       1.0  0.04180  0.54730  0.10740  1.0000
  C   C26       1.0  0.45820  0.45270  0.60740  1.0000
  C   C27       1.0  0.70270  0.79180  0.85740  1.0000
  C   C28       1.0  0.79730  0.20820  0.35740  1.0000
  C   C29       1.0  0.54180  0.04730  0.60740  1.0000
  C   C30       1.0  0.95820  0.95270  0.10740  1.0000
  C   C31       1.0  0.20270  0.29180  0.35740  1.0000
  C   C32       1.0  0.29730  0.70820  0.85740  1.0000
  H   H17       1.0  0.94905  0.45990  0.86276  1.0000
  H   H18       1.0  0.55095  0.54010  0.36276  1.0000
  H   H19       1.0  0.29010  0.19905  0.11276  1.0000
  H   H20       1.0  0.20990  0.80095  0.61276  1.0000
  H   H21       1.0  0.44905  0.95990  0.36276  1.0000
  H   H22       1.0  0.05095  0.04010  0.86276  1.0000
  H   H23       1.0  0.79010  0.69905  0.61276  1.0000
  H   H24       1.0  0.70990  0.30095  0.11276  1.0000
  H   H25       1.0  0.05095  0.54010  0.13724  1.0000
  H   H26       1.0  0.44905  0.45990  0.63724  1.0000
  H   H27       1.0  0.70990  0.80095  0.88724  1.0000
  H   H28       1.0  0.79010  0.19905  0.38724  1.0000
  H   H29       1.0  0.55095  0.04010  0.63724  1.0000
  H   H30       1.0  0.94905  0.95990  0.13724  1.0000
  H   H31       1.0  0.20990  0.30095  0.38724  1.0000
  H   H32       1.0  0.29010  0.69905  0.88724  1.0000
  C   C33       1.0  0.00760  0.45360  0.90530  1.0000
  C   C34       1.0  0.49240  0.54640  0.40530  1.0000
  C   C35       1.0  0.29640  0.25760  0.15530  1.0000
  C   C36       1.0  0.20360  0.74240  0.65530  1.0000
  C   C37       1.0  0.50760  0.95360  0.40530  1.0000
  C   C38       1.0  0.99240  0.04640  0.90530  1.0000
  C   C39       1.0  0.79640  0.75760  0.65530  1.0000
  C   C40       1.0  0.70360  0.24240  0.15530  1.0000
  C   C41       1.0  0.99240  0.54640  0.09470  1.0000
  C   C42       1.0  0.50760  0.45360  0.59470  1.0000
  C   C43       1.0  0.70360  0.74240  0.84470  1.0000
  C   C44       1.0  0.79640  0.25760  0.34470  1.0000
  C   C45       1.0  0.49240  0.04640  0.59470  1.0000
  C   C46       1.0  0.00760  0.95360  0.09470  1.0000
  C   C47       1.0  0.20360  0.24240  0.34470  1.0000
  C   C48       1.0  0.29640  0.75760  0.84470  1.0000
  H   H33       1.0  0.03272  0.46023  0.88389  1.0000
  H   H34       1.0  0.46728  0.53977  0.38389  1.0000
  H   H35       1.0  0.28977  0.28272  0.13389  1.0000
  H   H36       1.0  0.21023  0.71728  0.63389  1.0000
  H   H37       1.0  0.53272  0.96023  0.38389  1.0000
  H   H38       1.0  0.96728  0.03977  0.88389  1.0000
  H   H39       1.0  0.78977  0.78272  0.63389  1.0000
  H   H40       1.0  0.71023  0.21728  0.13389  1.0000
  H   H41       1.0  0.96728  0.53977  0.11611  1.0000
  H   H42       1.0  0.53272  0.46023  0.61611  1.0000
  H   H43       1.0  0.71023  0.71728  0.86611  1.0000
  H   H44       1.0  0.78977  0.28272  0.36611  1.0000
  H   H45       1.0  0.46728  0.03977  0.61611  1.0000
  H   H46       1.0  0.03272  0.96023  0.11611  1.0000
  H   H47       1.0  0.21023  0.21728  0.36611  1.0000
  H   H48       1.0  0.28977  0.78272  0.86611  1.0000
  C   C49       1.0  0.02070  0.44490  0.94950  1.0000
  C   C50       1.0  0.47930  0.55510  0.44950  1.0000
  C   C51       1.0  0.30510  0.27070  0.19950  1.0000
  C   C52       1.0  0.19490  0.72930  0.69950  1.0000
  C   C53       1.0  0.52070  0.94490  0.44950  1.0000
  C   C54       1.0  0.97930  0.05510  0.94950  1.0000
  C   C55       1.0  0.80510  0.77070  0.69950  1.0000
  C   C56       1.0  0.69490  0.22930  0.19950  1.0000
  C   C57       1.0  0.97930  0.55510  0.05050  1.0000
  C   C58       1.0  0.52070  0.44490  0.55050  1.0000
  C   C59       1.0  0.69490  0.72930  0.80050  1.0000
  C   C60       1.0  0.80510  0.27070  0.30050  1.0000
  C   C61       1.0  0.47930  0.05510  0.55050  1.0000
  C   C62       1.0  0.02070  0.94490  0.05050  1.0000
  C   C63       1.0  0.19490  0.22930  0.30050  1.0000
  C   C64       1.0  0.30510  0.77070  0.80050  1.0000
  H   H49       1.0  0.05463  0.44563  0.95832  1.0000
  H   H50       1.0  0.44537  0.55437  0.45832  1.0000
  H   H51       1.0  0.30437  0.30463  0.20832  1.0000
  H   H52       1.0  0.19563  0.69537  0.70832  1.0000
  H   H53       1.0  0.55463  0.94563  0.45832  1.0000
  H   H54       1.0  0.94537  0.05437  0.95832  1.0000
  H   H55       1.0  0.80437  0.80463  0.70832  1.0000
  H   H56       1.0  0.69563  0.19537  0.20832  1.0000
  H   H57       1.0  0.94537  0.55437  0.04168  1.0000
  H   H58       1.0  0.55463  0.44563  0.54168  1.0000
  H   H59       1.0  0.69563  0.69537  0.79168  1.0000
  H   H60       1.0  0.80437  0.30463  0.29168  1.0000
  H   H61       1.0  0.44537  0.05437  0.54168  1.0000
  H   H62       1.0  0.05463  0.94563  0.04168  1.0000
  H   H63       1.0  0.19563  0.19537  0.29168  1.0000
  H   H64       1.0  0.30437  0.80463  0.79168  1.0000
  C   C65       1.0  0.98190  0.43450  0.98210  1.0000
  C   C66       1.0  0.51810  0.56550  0.48210  1.0000
  C   C67       1.0  0.31550  0.23190  0.23210  1.0000
  C   C68       1.0  0.18450  0.76810  0.73210  1.0000
  C   C69       1.0  0.48190  0.93450  0.48210  1.0000
  C   C70       1.0  0.01810  0.06550  0.98210  1.0000
  C   C71       1.0  0.81550  0.73190  0.73210  1.0000
  C   C72       1.0  0.68450  0.26810  0.23210  1.0000
  C   C73       1.0  0.01810  0.56550  0.01790  1.0000
  C   C74       1.0  0.48190  0.43450  0.51790  1.0000
  C   C75       1.0  0.68450  0.76810  0.76790  1.0000
  C   C76       1.0  0.81550  0.23190  0.26790  1.0000
  C   C77       1.0  0.51810  0.06550  0.51790  1.0000
  C   C78       1.0  0.98190  0.93450  0.01790  1.0000
  C   C79       1.0  0.18450  0.26810  0.26790  1.0000
  C   C80       1.0  0.31550  0.73190  0.76790  1.0000
  C   C81       1.0  0.99180  0.42470  0.03090  1.0000
  C   C82       1.0  0.50820  0.57530  0.53090  1.0000
  C   C83       1.0  0.32530  0.24180  0.28090  1.0000
  C   C84       1.0  0.17470  0.75820  0.78090  1.0000
  C   C85       1.0  0.49180  0.92470  0.53090  1.0000
  C   C86       1.0  0.00820  0.07530  0.03090  1.0000
  C   C87       1.0  0.82530  0.74180  0.78090  1.0000
  C   C88       1.0  0.67470  0.25820  0.28090  1.0000
  C   C89       1.0  0.00820  0.57530  0.96910  1.0000
  C   C90       1.0  0.49180  0.42470  0.46910  1.0000
  C   C91       1.0  0.67470  0.75820  0.71910  1.0000
  C   C92       1.0  0.82530  0.24180  0.21910  1.0000
  C   C93       1.0  0.50820  0.07530  0.46910  1.0000
  C   C94       1.0  0.99180  0.92470  0.96910  1.0000
  C   C95       1.0  0.17470  0.25820  0.21910  1.0000
  C   C96       1.0  0.32530  0.74180  0.71910  1.0000
  C   C97       1.0  0.03860  0.42430  0.05040  1.0000
  C   C98       1.0  0.46140  0.57570  0.55040  1.0000
  C   C99       1.0  0.32570  0.28860  0.30040  1.0000
  C   C100      1.0  0.17430  0.71140  0.80040  1.0000
  C   C101      1.0  0.53860  0.92430  0.55040  1.0000
  C   C102      1.0  0.96140  0.07570  0.05040  1.0000
  C   C103      1.0  0.82570  0.78860  0.80040  1.0000
  C   C104      1.0  0.67430  0.21140  0.30040  1.0000
  C   C105      1.0  0.96140  0.57570  0.94960  1.0000
  C   C106      1.0  0.53860  0.42430  0.44960  1.0000
  C   C107      1.0  0.67430  0.71140  0.69960  1.0000
  C   C108      1.0  0.82570  0.28860  0.19960  1.0000
  C   C109      1.0  0.46140  0.07570  0.44960  1.0000
  C   C110      1.0  0.03860  0.92430  0.94960  1.0000
  C   C111      1.0  0.17430  0.21140  0.19960  1.0000
  C   C112      1.0  0.32570  0.78860  0.69960  1.0000
  H   H65       1.0  0.06740  0.42988  0.03288  1.0000
  H   H66       1.0  0.43260  0.57012  0.53288  1.0000
  H   H67       1.0  0.32012  0.31740  0.28288  1.0000
  H   H68       1.0  0.17988  0.68260  0.78288  1.0000
  H   H69       1.0  0.56740  0.92988  0.53288  1.0000
  H   H70       1.0  0.93260  0.07012  0.03288  1.0000
  H   H71       1.0  0.82012  0.81740  0.78288  1.0000
  H   H72       1.0  0.67988  0.18260  0.28288  1.0000
  H   H73       1.0  0.93260  0.57012  0.96712  1.0000
  H   H74       1.0  0.56740  0.42988  0.46712  1.0000
  H   H75       1.0  0.67988  0.68260  0.71712  1.0000
  H   H76       1.0  0.82012  0.31740  0.21712  1.0000
  H   H77       1.0  0.43260  0.07012  0.46712  1.0000
  H   H78       1.0  0.06740  0.92988  0.96712  1.0000
  H   H79       1.0  0.17988  0.18260  0.21712  1.0000
  H   H80       1.0  0.32012  0.81740  0.71712  1.0000
  C   C113      1.0  0.04280  0.41550  0.09590  1.0000
  C   C114      1.0  0.45720  0.58450  0.59590  1.0000
  C   C115      1.0  0.33450  0.29280  0.34590  1.0000
  C   C116      1.0  0.16550  0.70720  0.84590  1.0000
  C   C117      1.0  0.54280  0.91550  0.59590  1.0000
  C   C118      1.0  0.95720  0.08450  0.09590  1.0000
  C   C119      1.0  0.83450  0.79280  0.84590  1.0000
  C   C120      1.0  0.66550  0.20720  0.34590  1.0000
  C   C121      1.0  0.95720  0.58450  0.90410  1.0000
  C   C122      1.0  0.54280  0.41550  0.40410  1.0000
  C   C123      1.0  0.66550  0.70720  0.65410  1.0000
  C   C124      1.0  0.83450  0.29280  0.15410  1.0000
  C   C125      1.0  0.45720  0.08450  0.40410  1.0000
  C   C126      1.0  0.04280  0.91550  0.90410  1.0000
  C   C127      1.0  0.16550  0.20720  0.15410  1.0000
  C   C128      1.0  0.33450  0.79280  0.65410  1.0000
  H   H81       1.0  0.07468  0.41515  0.10960  1.0000
  H   H82       1.0  0.42532  0.58485  0.60960  1.0000
  H   H83       1.0  0.33485  0.32468  0.35960  1.0000
  H   H84       1.0  0.16515  0.67532  0.85960  1.0000
  H   H85       1.0  0.57468  0.91515  0.60960  1.0000
  H   H86       1.0  0.92532  0.08485  0.10960  1.0000
  H   H87       1.0  0.83485  0.82468  0.85960  1.0000
  H   H88       1.0  0.66515  0.17532  0.35960  1.0000
  H   H89       1.0  0.92532  0.58485  0.89040  1.0000
  H   H90       1.0  0.57468  0.41515  0.39040  1.0000
  H   H91       1.0  0.66515  0.67532  0.64040  1.0000
  H   H92       1.0  0.83485  0.32468  0.14040  1.0000
  H   H93       1.0  0.42532  0.08485  0.39040  1.0000
  H   H94       1.0  0.07468  0.91515  0.89040  1.0000
  H   H95       1.0  0.16515  0.17532  0.14040  1.0000
  H   H96       1.0  0.33485  0.82468  0.64040  1.0000
  C   C129      1.0  0.99920  0.40710  0.12210  1.0000
  C   C130      1.0  0.50080  0.59290  0.62210  1.0000
  C   C131      1.0  0.34290  0.24920  0.37210  1.0000
  C   C132      1.0  0.15710  0.75080  0.87210  1.0000
  C   C133      1.0  0.49920  0.90710  0.62210  1.0000
  C   C134      1.0  0.00080  0.09290  0.12210  1.0000
  C   C135      1.0  0.84290  0.74920  0.87210  1.0000
  C   C136      1.0  0.65710  0.25080  0.37210  1.0000
  C   C137      1.0  0.00080  0.59290  0.87790  1.0000
  C   C138      1.0  0.49920  0.40710  0.37790  1.0000
  C   C139      1.0  0.65710  0.75080  0.62790  1.0000
  C   C140      1.0  0.84290  0.24920  0.12790  1.0000
  C   C141      1.0  0.50080  0.09290  0.37790  1.0000
  C   C142      1.0  0.99920  0.90710  0.87790  1.0000
  C   C143      1.0  0.15710  0.25080  0.12790  1.0000
  C   C144      1.0  0.34290  0.74920  0.62790  1.0000
  H   H97       1.0  0.00163  0.40065  0.15301  1.0000
  H   H98       1.0  0.49837  0.59935  0.65301  1.0000
  H   H99       1.0  0.34935  0.25163  0.40301  1.0000
  H   H100      1.0  0.15065  0.74837  0.90301  1.0000
  H   H101      1.0  0.50163  0.90065  0.65301  1.0000
  H   H102      1.0  0.99837  0.09935  0.15301  1.0000
  H   H103      1.0  0.84935  0.75163  0.90301  1.0000
  H   H104      1.0  0.65065  0.24837  0.40301  1.0000
  H   H105      1.0  0.99837  0.59935  0.84699  1.0000
  H   H106      1.0  0.50163  0.40065  0.34699  1.0000
  H   H107      1.0  0.65065  0.74837  0.59699  1.0000
  H   H108      1.0  0.84935  0.25163  0.09699  1.0000
  H   H109      1.0  0.49837  0.09935  0.34699  1.0000
  H   H110      1.0  0.00163  0.90065  0.84699  1.0000
  H   H111      1.0  0.15065  0.24837  0.09699  1.0000
  H   H112      1.0  0.34935  0.75163  0.59699  1.0000
  C   C145      1.0  0.95320  0.40850  0.10110  1.0000
  C   C146      1.0  0.54680  0.59150  0.60110  1.0000
  C   C147      1.0  0.34150  0.20320  0.35110  1.0000
  C   C148      1.0  0.15850  0.79680  0.85110  1.0000
  C   C149      1.0  0.45320  0.90850  0.60110  1.0000
  C   C150      1.0  0.04680  0.09150  0.10110  1.0000
  C   C151      1.0  0.84150  0.70320  0.85110  1.0000
  C   C152      1.0  0.65850  0.29680  0.35110  1.0000
  C   C153      1.0  0.04680  0.59150  0.89890  1.0000
  C   C154      1.0  0.45320  0.40850  0.39890  1.0000
  C   C155      1.0  0.65850  0.79680  0.64890  1.0000
  C   C156      1.0  0.84150  0.20320  0.14890  1.0000
  C   C157      1.0  0.54680  0.09150  0.39890  1.0000
  C   C158      1.0  0.95320  0.90850  0.89890  1.0000
  C   C159      1.0  0.15850  0.29680  0.14890  1.0000
  C   C160      1.0  0.34150  0.70320  0.64890  1.0000
  C   C161      1.0  0.86650  0.43760  0.91280  1.0000
  C   C162      1.0  0.63350  0.56240  0.41280  1.0000
  C   C163      1.0  0.31240  0.11650  0.16280  1.0000
  C   C164      1.0  0.18760  0.88350  0.66280  1.0000
  C   C165      1.0  0.36650  0.93760  0.41280  1.0000
  C   C166      1.0  0.13350  0.06240  0.91280  1.0000
  C   C167      1.0  0.81240  0.61650  0.66280  1.0000
  C   C168      1.0  0.68760  0.38350  0.16280  1.0000
  C   C169      1.0  0.13350  0.56240  0.08720  1.0000
  C   C170      1.0  0.36650  0.43760  0.58720  1.0000
  C   C171      1.0  0.68760  0.88350  0.83720  1.0000
  C   C172      1.0  0.81240  0.11650  0.33720  1.0000
  C   C173      1.0  0.63350  0.06240  0.58720  1.0000
  C   C174      1.0  0.86650  0.93760  0.08720  1.0000
  C   C175      1.0  0.18760  0.38350  0.33720  1.0000
  C   C176      1.0  0.31240  0.61650  0.83720  1.0000
  C   C177      1.0  0.90400  0.40030  0.12600  1.0000
  C   C178      1.0  0.59600  0.59970  0.62600  1.0000
  C   C179      1.0  0.34970  0.15400  0.37600  1.0000
  C   C180      1.0  0.15030  0.84600  0.87600  1.0000
  C   C181      1.0  0.40400  0.90030  0.62600  1.0000
  C   C182      1.0  0.09600  0.09970  0.12600  1.0000
  C   C183      1.0  0.84970  0.65400  0.87600  1.0000
  C   C184      1.0  0.65030  0.34600  0.37600  1.0000
  C   C185      1.0  0.09600  0.59970  0.87400  1.0000
  C   C186      1.0  0.40400  0.40030  0.37400  1.0000
  C   C187      1.0  0.65030  0.84600  0.62400  1.0000
  C   C188      1.0  0.84970  0.15400  0.12400  1.0000
  C   C189      1.0  0.59600  0.09970  0.37400  1.0000
  C   C190      1.0  0.90400  0.90030  0.87400  1.0000
  C   C191      1.0  0.15030  0.34600  0.12400  1.0000
  C   C192      1.0  0.34970  0.65400  0.62400  1.0000
  C   C193      1.0  0.78160  0.31830  0.02010  1.0000
  C   C194      1.0  0.71840  0.68170  0.52010  1.0000
  C   C195      1.0  0.43170  0.03160  0.27010  1.0000
  C   C196      1.0  0.06830  0.96840  0.77010  1.0000
  C   C197      1.0  0.28160  0.81830  0.52010  1.0000
  C   C198      1.0  0.21840  0.18170  0.02010  1.0000
  C   C199      1.0  0.93170  0.53160  0.77010  1.0000
  C   C200      1.0  0.56830  0.46840  0.27010  1.0000
  C   C201      1.0  0.21840  0.68170  0.97990  1.0000
  C   C202      1.0  0.28160  0.31830  0.47990  1.0000
  C   C203      1.0  0.56830  0.96840  0.72990  1.0000
  C   C204      1.0  0.93170  0.03160  0.22990  1.0000
  C   C205      1.0  0.71840  0.18170  0.47990  1.0000
  C   C206      1.0  0.78160  0.81830  0.97990  1.0000
  C   C207      1.0  0.06830  0.46840  0.22990  1.0000
  C   C208      1.0  0.43170  0.53160  0.72990  1.0000
  C   C209      1.0  0.74010  0.28700  0.02060  1.0000
  C   C210      1.0  0.75990  0.71300  0.52060  1.0000
  C   C211      1.0  0.46300  0.99010  0.27060  1.0000
  C   C212      1.0  0.03700  0.00990  0.77060  1.0000
  C   C213      1.0  0.24010  0.78700  0.52060  1.0000
  C   C214      1.0  0.25990  0.21300  0.02060  1.0000
  C   C215      1.0  0.96300  0.49010  0.77060  1.0000
  C   C216      1.0  0.53700  0.50990  0.27060  1.0000
  C   C217      1.0  0.25990  0.71300  0.97940  1.0000
  C   C218      1.0  0.24010  0.28700  0.47940  1.0000
  C   C219      1.0  0.53700  0.00990  0.72940  1.0000
  C   C220      1.0  0.96300  0.99010  0.22940  1.0000
  C   C221      1.0  0.75990  0.21300  0.47940  1.0000
  C   C222      1.0  0.74010  0.78700  0.97940  1.0000
  C   C223      1.0  0.03700  0.50990  0.22940  1.0000
  C   C224      1.0  0.46300  0.49010  0.72940  1.0000
  H   H113      1.0  0.74376  0.25189  0.01995  1.0000
  H   H114      1.0  0.75624  0.74811  0.51995  1.0000
  H   H115      1.0  0.49811  0.99376  0.26995  1.0000
  H   H116      1.0  0.00189  0.00624  0.76995  1.0000
  H   H117      1.0  0.24376  0.75189  0.51995  1.0000
  H   H118      1.0  0.25624  0.24811  0.01995  1.0000
  H   H119      1.0  0.99811  0.49376  0.76995  1.0000
  H   H120      1.0  0.50189  0.50624  0.26995  1.0000
  H   H121      1.0  0.25624  0.74811  0.98005  1.0000
  H   H122      1.0  0.24376  0.25189  0.48005  1.0000
  H   H123      1.0  0.50189  0.00624  0.73005  1.0000
  H   H124      1.0  0.99811  0.99376  0.23005  1.0000
  H   H125      1.0  0.75624  0.24811  0.48005  1.0000
  H   H126      1.0  0.74376  0.75189  0.98005  1.0000
  H   H127      1.0  0.00189  0.50624  0.23005  1.0000
  H   H128      1.0  0.49811  0.49376  0.73005  1.0000
  C   C225      1.0  0.69260  0.30930  0.02230  1.0000
  C   C226      1.0  0.80740  0.69070  0.52230  1.0000
  C   C227      1.0  0.44070  0.94260  0.27230  1.0000
  C   C228      1.0  0.05930  0.05740  0.77230  1.0000
  C   C229      1.0  0.19260  0.80930  0.52230  1.0000
  C   C230      1.0  0.30740  0.19070  0.02230  1.0000
  C   C231      1.0  0.94070  0.44260  0.77230  1.0000
  C   C232      1.0  0.55930  0.55740  0.27230  1.0000
  C   C233      1.0  0.30740  0.69070  0.97770  1.0000
  C   C234      1.0  0.19260  0.30930  0.47770  1.0000
  C   C235      1.0  0.55930  0.05740  0.72770  1.0000
  C   C236      1.0  0.94070  0.94260  0.22770  1.0000
  C   C237      1.0  0.80740  0.19070  0.47770  1.0000
  C   C238      1.0  0.69260  0.80930  0.97770  1.0000
  C   C239      1.0  0.05930  0.55740  0.22770  1.0000
  C   C240      1.0  0.44070  0.44260  0.72770  1.0000
  H   H129      1.0  0.66371  0.28911  0.02061  1.0000
  H   H130      1.0  0.83629  0.71089  0.52061  1.0000
  H   H131      1.0  0.46089  0.91371  0.27061  1.0000
  H   H132      1.0  0.03911  0.08629  0.77061  1.0000
  H   H133      1.0  0.16371  0.78911  0.52061  1.0000
  H   H134      1.0  0.33629  0.21089  0.02061  1.0000
  H   H135      1.0  0.96089  0.41371  0.77061  1.0000
  H   H136      1.0  0.53911  0.58629  0.27061  1.0000
  H   H137      1.0  0.33629  0.71089  0.97939  1.0000
  H   H138      1.0  0.16371  0.28911  0.47939  1.0000
  H   H139      1.0  0.53911  0.08629  0.72939  1.0000
  H   H140      1.0  0.96089  0.91371  0.22939  1.0000
  H   H141      1.0  0.83629  0.21089  0.47939  1.0000
  H   H142      1.0  0.66371  0.78911  0.97939  1.0000
  H   H143      1.0  0.03911  0.58629  0.22939  1.0000
  H   H144      1.0  0.46089  0.41371  0.72939  1.0000
  C   C241      1.0  0.68790  0.36090  0.02630  1.0000
  C   C242      1.0  0.81210  0.63910  0.52630  1.0000
  C   C243      1.0  0.38910  0.93790  0.27630  1.0000
  C   C244      1.0  0.11090  0.06210  0.77630  1.0000
  C   C245      1.0  0.18790  0.86090  0.52630  1.0000
  C   C246      1.0  0.31210  0.13910  0.02630  1.0000
  C   C247      1.0  0.88910  0.43790  0.77630  1.0000
  C   C248      1.0  0.61090  0.56210  0.27630  1.0000
  C   C249      1.0  0.31210  0.63910  0.97370  1.0000
  C   C250      1.0  0.18790  0.36090  0.47370  1.0000
  C   C251      1.0  0.61090  0.06210  0.72370  1.0000
  C   C252      1.0  0.88910  0.93790  0.22370  1.0000
  C   C253      1.0  0.81210  0.13910  0.47370  1.0000
  C   C254      1.0  0.68790  0.86090  0.97370  1.0000
  C   C255      1.0  0.11090  0.56210  0.22370  1.0000
  C   C256      1.0  0.38910  0.43790  0.72370  1.0000
  H   H145      1.0  0.65614  0.37623  0.02733  1.0000
  H   H146      1.0  0.84386  0.62377  0.52733  1.0000
  H   H147      1.0  0.37377  0.90614  0.27733  1.0000
  H   H148      1.0  0.12623  0.09386  0.77733  1.0000
  H   H149      1.0  0.15614  0.87623  0.52733  1.0000
  H   H150      1.0  0.34386  0.12377  0.02733  1.0000
  H   H151      1.0  0.87377  0.40614  0.77733  1.0000
  H   H152      1.0  0.62623  0.59386  0.27733  1.0000
  H   H153      1.0  0.34386  0.62377  0.97267  1.0000
  H   H154      1.0  0.15614  0.37623  0.47267  1.0000
  H   H155      1.0  0.62623  0.09386  0.72267  1.0000
  H   H156      1.0  0.87377  0.90614  0.22267  1.0000
  H   H157      1.0  0.84386  0.12377  0.47267  1.0000
  H   H158      1.0  0.65614  0.87623  0.97267  1.0000
  H   H159      1.0  0.12623  0.59386  0.22267  1.0000
  H   H160      1.0  0.37377  0.40614  0.72267  1.0000
  C   C257      1.0  0.73190  0.38950  0.02870  1.0000
  C   C258      1.0  0.76810  0.61050  0.52870  1.0000
  C   C259      1.0  0.36050  0.98190  0.27870  1.0000
  C   C260      1.0  0.13950  0.01810  0.77870  1.0000
  C   C261      1.0  0.23190  0.88950  0.52870  1.0000
  C   C262      1.0  0.26810  0.11050  0.02870  1.0000
  C   C263      1.0  0.86050  0.48190  0.77870  1.0000
  C   C264      1.0  0.63950  0.51810  0.27870  1.0000
  C   C265      1.0  0.26810  0.61050  0.97130  1.0000
  C   C266      1.0  0.23190  0.38950  0.47130  1.0000
  C   C267      1.0  0.63950  0.01810  0.72130  1.0000
  C   C268      1.0  0.86050  0.98190  0.22130  1.0000
  C   C269      1.0  0.76810  0.11050  0.47130  1.0000
  C   C270      1.0  0.73190  0.88950  0.97130  1.0000
  C   C271      1.0  0.13950  0.51810  0.22130  1.0000
  C   C272      1.0  0.36050  0.48190  0.72130  1.0000
  C   C273      1.0  0.73130  0.44500  0.03410  1.0000
  C   C274      1.0  0.76870  0.55500  0.53410  1.0000
  C   C275      1.0  0.30500  0.98130  0.28410  1.0000
  C   C276      1.0  0.19500  0.01870  0.78410  1.0000
  C   C277      1.0  0.23130  0.94500  0.53410  1.0000
  C   C278      1.0  0.26870  0.05500  0.03410  1.0000
  C   C279      1.0  0.80500  0.48130  0.78410  1.0000
  C   C280      1.0  0.69500  0.51870  0.28410  1.0000
  C   C281      1.0  0.26870  0.55500  0.96590  1.0000
  C   C282      1.0  0.23130  0.44500  0.46590  1.0000
  C   C283      1.0  0.69500  0.01870  0.71590  1.0000
  C   C284      1.0  0.80500  0.98130  0.21590  1.0000
  C   C285      1.0  0.76870  0.05500  0.46590  1.0000
  C   C286      1.0  0.73130  0.94500  0.96590  1.0000
  C   C287      1.0  0.19500  0.51870  0.21590  1.0000
  C   C288      1.0  0.30500  0.48130  0.71590  1.0000
  C   C289      1.0  0.68750  0.47410  0.04110  1.0000
  C   C290      1.0  0.81250  0.52590  0.54110  1.0000
  C   C291      1.0  0.27590  0.93750  0.29110  1.0000
  C   C292      1.0  0.22410  0.06250  0.79110  1.0000
  C   C293      1.0  0.18750  0.97410  0.54110  1.0000
  C   C294      1.0  0.31250  0.02590  0.04110  1.0000
  C   C295      1.0  0.77590  0.43750  0.79110  1.0000
  C   C296      1.0  0.72410  0.56250  0.29110  1.0000
  C   C297      1.0  0.31250  0.52590  0.95890  1.0000
  C   C298      1.0  0.18750  0.47410  0.45890  1.0000
  C   C299      1.0  0.72410  0.06250  0.70890  1.0000
  C   C300      1.0  0.77590  0.93750  0.20890  1.0000
  C   C301      1.0  0.81250  0.02590  0.45890  1.0000
  C   C302      1.0  0.68750  0.97410  0.95890  1.0000
  C   C303      1.0  0.22410  0.56250  0.20890  1.0000
  C   C304      1.0  0.27590  0.43750  0.70890  1.0000
  H   H161      1.0  0.65582  0.45871  0.04360  1.0000
  H   H162      1.0  0.84418  0.54129  0.54360  1.0000
  H   H163      1.0  0.29129  0.90582  0.29360  1.0000
  H   H164      1.0  0.20871  0.09418  0.79360  1.0000
  H   H165      1.0  0.15582  0.95871  0.54360  1.0000
  H   H166      1.0  0.34418  0.04129  0.04360  1.0000
  H   H167      1.0  0.79129  0.40582  0.79360  1.0000
  H   H168      1.0  0.70871  0.59418  0.29360  1.0000
  H   H169      1.0  0.34418  0.54129  0.95640  1.0000
  H   H170      1.0  0.15582  0.45871  0.45640  1.0000
  H   H171      1.0  0.70871  0.09418  0.70640  1.0000
  H   H172      1.0  0.79129  0.90582  0.20640  1.0000
  H   H173      1.0  0.84418  0.04129  0.45640  1.0000
  H   H174      1.0  0.65582  0.95871  0.95640  1.0000
  H   H175      1.0  0.20871  0.59418  0.20640  1.0000
  H   H176      1.0  0.29129  0.40582  0.70640  1.0000
  C   C305      1.0  0.69250  0.52540  0.04420  1.0000
  C   C306      1.0  0.80750  0.47460  0.54420  1.0000
  C   C307      1.0  0.22460  0.94250  0.29420  1.0000
  C   C308      1.0  0.27540  0.05750  0.79420  1.0000
  C   C309      1.0  0.19250  0.02540  0.54420  1.0000
  C   C310      1.0  0.30750  0.97460  0.04420  1.0000
  C   C311      1.0  0.72460  0.44250  0.79420  1.0000
  C   C312      1.0  0.77540  0.55750  0.29420  1.0000
  C   C313      1.0  0.30750  0.47460  0.95580  1.0000
  C   C314      1.0  0.19250  0.52540  0.45580  1.0000
  C   C315      1.0  0.77540  0.05750  0.70580  1.0000
  C   C316      1.0  0.72460  0.94250  0.20580  1.0000
  C   C317      1.0  0.80750  0.97460  0.45580  1.0000
  C   C318      1.0  0.69250  0.02540  0.95580  1.0000
  C   C319      1.0  0.27540  0.55750  0.20580  1.0000
  C   C320      1.0  0.22460  0.44250  0.70580  1.0000
  H   H177      1.0  0.66374  0.54496  0.04977  1.0000
  H   H178      1.0  0.83626  0.45504  0.54977  1.0000
  H   H179      1.0  0.20504  0.91374  0.29977  1.0000
  H   H180      1.0  0.29496  0.08626  0.79977  1.0000
  H   H181      1.0  0.16374  0.04496  0.54977  1.0000
  H   H182      1.0  0.33626  0.95504  0.04977  1.0000
  H   H183      1.0  0.70504  0.41374  0.79977  1.0000
  H   H184      1.0  0.79496  0.58626  0.29977  1.0000
  H   H185      1.0  0.33626  0.45504  0.95023  1.0000
  H   H186      1.0  0.16374  0.54496  0.45023  1.0000
  H   H187      1.0  0.79496  0.08626  0.70023  1.0000
  H   H188      1.0  0.70504  0.91374  0.20023  1.0000
  H   H189      1.0  0.83626  0.95504  0.45023  1.0000
  H   H190      1.0  0.66374  0.04496  0.95023  1.0000
  H   H191      1.0  0.29496  0.58626  0.20023  1.0000
  H   H192      1.0  0.20504  0.41374  0.70023  1.0000
  C   C321      1.0  0.73900  0.54940  0.03950  1.0000
  C   C322      1.0  0.76100  0.45060  0.53950  1.0000
  C   C323      1.0  0.20060  0.98900  0.28950  1.0000
  C   C324      1.0  0.29940  0.01100  0.78950  1.0000
  C   C325      1.0  0.23900  0.04940  0.53950  1.0000
  C   C326      1.0  0.26100  0.95060  0.03950  1.0000
  C   C327      1.0  0.70060  0.48900  0.78950  1.0000
  C   C328      1.0  0.79940  0.51100  0.28950  1.0000
  C   C329      1.0  0.26100  0.45060  0.96050  1.0000
  C   C330      1.0  0.23900  0.54940  0.46050  1.0000
  C   C331      1.0  0.79940  0.01100  0.71050  1.0000
  C   C332      1.0  0.70060  0.98900  0.21050  1.0000
  C   C333      1.0  0.76100  0.95060  0.46050  1.0000
  C   C334      1.0  0.73900  0.04940  0.96050  1.0000
  C   C335      1.0  0.29940  0.51100  0.21050  1.0000
  C   C336      1.0  0.20060  0.48900  0.71050  1.0000
  H   H193      1.0  0.74190  0.58458  0.04051  1.0000
  H   H194      1.0  0.75810  0.41542  0.54051  1.0000
  H   H195      1.0  0.16542  0.99190  0.29051  1.0000
  H   H196      1.0  0.33458  0.00810  0.79051  1.0000
  H   H197      1.0  0.24190  0.08458  0.54051  1.0000
  H   H198      1.0  0.25810  0.91542  0.04051  1.0000
  H   H199      1.0  0.66542  0.49190  0.79051  1.0000
  H   H200      1.0  0.83458  0.50810  0.29051  1.0000
  H   H201      1.0  0.25810  0.41542  0.95949  1.0000
  H   H202      1.0  0.24190  0.58458  0.45949  1.0000
  H   H203      1.0  0.83458  0.00810  0.70949  1.0000
  H   H204      1.0  0.66542  0.99190  0.20949  1.0000
  H   H205      1.0  0.75810  0.91542  0.45949  1.0000
  H   H206      1.0  0.74190  0.08458  0.95949  1.0000
  H   H207      1.0  0.33458  0.50810  0.20949  1.0000
  H   H208      1.0  0.16542  0.49190  0.70949  1.0000
  C   C337      1.0  0.78100  0.51860  0.03300  1.0000
  C   C338      1.0  0.71900  0.48140  0.53300  1.0000
  C   C339      1.0  0.23140  0.03100  0.28300  1.0000
  C   C340      1.0  0.26860  0.96900  0.78300  1.0000
  C   C341      1.0  0.28100  0.01860  0.53300  1.0000
  C   C342      1.0  0.21900  0.98140  0.03300  1.0000
  C   C343      1.0  0.73140  0.53100  0.78300  1.0000
  C   C344      1.0  0.76860  0.46900  0.28300  1.0000
  C   C345      1.0  0.21900  0.48140  0.96700  1.0000
  C   C346      1.0  0.28100  0.51860  0.46700  1.0000
  C   C347      1.0  0.76860  0.96900  0.71700  1.0000
  C   C348      1.0  0.73140  0.03100  0.21700  1.0000
  C   C349      1.0  0.71900  0.98140  0.46700  1.0000
  C   C350      1.0  0.78100  0.01860  0.96700  1.0000
  C   C351      1.0  0.26860  0.46900  0.21700  1.0000
  C   C352      1.0  0.23140  0.53100  0.71700  1.0000
  C   C353      1.0  0.83500  0.29790  0.01510  1.0000
  C   C354      1.0  0.66500  0.70210  0.51510  1.0000
  C   C355      1.0  0.45210  0.08500  0.26510  1.0000
  C   C356      1.0  0.04790  0.91500  0.76510  1.0000
  C   C357      1.0  0.33500  0.79790  0.51510  1.0000
  C   C358      1.0  0.16500  0.20210  0.01510  1.0000
  C   C359      1.0  0.95210  0.58500  0.76510  1.0000
  C   C360      1.0  0.54790  0.41500  0.26510  1.0000
  C   C361      1.0  0.16500  0.70210  0.98490  1.0000
  C   C362      1.0  0.33500  0.29790  0.48490  1.0000
  C   C363      1.0  0.54790  0.91500  0.73490  1.0000
  C   C364      1.0  0.95210  0.08500  0.23490  1.0000
  C   C365      1.0  0.66500  0.20210  0.48490  1.0000
  C   C366      1.0  0.83500  0.79790  0.98490  1.0000
  C   C367      1.0  0.04790  0.41500  0.23490  1.0000
  C   C368      1.0  0.45210  0.58500  0.73490  1.0000
  C   C369      1.0  0.83280  0.53800  0.02410  1.0000
  C   C370      1.0  0.66720  0.46200  0.52410  1.0000
  C   C371      1.0  0.21200  0.08280  0.27410  1.0000
  C   C372      1.0  0.28800  0.91720  0.77410  1.0000
  C   C373      1.0  0.33280  0.03800  0.52410  1.0000
  C   C374      1.0  0.16720  0.96200  0.02410  1.0000
  C   C375      1.0  0.71200  0.58280  0.77410  1.0000
  C   C376      1.0  0.78800  0.41720  0.27410  1.0000
  C   C377      1.0  0.16720  0.46200  0.97590  1.0000
  C   C378      1.0  0.33280  0.53800  0.47590  1.0000
  C   C379      1.0  0.78800  0.91720  0.72590  1.0000
  C   C380      1.0  0.71200  0.08280  0.22590  1.0000
  C   C381      1.0  0.66720  0.96200  0.47590  1.0000
  C   C382      1.0  0.83280  0.03800  0.97590  1.0000
  C   C383      1.0  0.28800  0.41720  0.22590  1.0000
  C   C384      1.0  0.21200  0.58280  0.72590  1.0000
  C   C385      1.0  0.70870  0.58520  0.93280  1.0000
  C   C386      1.0  0.79130  0.41480  0.43280  1.0000
  C   C387      1.0  0.16480  0.95870  0.18280  1.0000
  C   C388      1.0  0.33520  0.04130  0.68280  1.0000
  C   C389      1.0  0.20870  0.08520  0.43280  1.0000
  C   C390      1.0  0.29130  0.91480  0.93280  1.0000
  C   C391      1.0  0.66480  0.45870  0.68280  1.0000
  C   C392      1.0  0.83520  0.54130  0.18280  1.0000
  C   C393      1.0  0.29130  0.41480  0.06720  1.0000
  C   C394      1.0  0.20870  0.58520  0.56720  1.0000
  C   C395      1.0  0.83520  0.04130  0.81720  1.0000
  C   C396      1.0  0.66480  0.95870  0.31720  1.0000
  C   C397      1.0  0.79130  0.91480  0.56720  1.0000
  C   C398      1.0  0.70870  0.08520  0.06720  1.0000
  C   C399      1.0  0.33520  0.54130  0.31720  1.0000
  C   C400      1.0  0.16480  0.45870  0.81720  1.0000
  C   C401      1.0  0.74940  0.55560  0.91980  1.0000
  C   C402      1.0  0.75060  0.44440  0.41980  1.0000
  C   C403      1.0  0.19440  0.99940  0.16980  1.0000
  C   C404      1.0  0.30560  0.00060  0.66980  1.0000
  C   C405      1.0  0.24940  0.05560  0.41980  1.0000
  C   C406      1.0  0.25060  0.94440  0.91980  1.0000
  C   C407      1.0  0.69440  0.49940  0.66980  1.0000
  C   C408      1.0  0.80560  0.50060  0.16980  1.0000
  C   C409      1.0  0.25060  0.44440  0.08020  1.0000
  C   C410      1.0  0.24940  0.55560  0.58020  1.0000
  C   C411      1.0  0.80560  0.00060  0.83020  1.0000
  C   C412      1.0  0.69440  0.99940  0.33020  1.0000
  C   C413      1.0  0.75060  0.94440  0.58020  1.0000
  C   C414      1.0  0.74940  0.05560  0.08020  1.0000
  C   C415      1.0  0.30560  0.50060  0.33020  1.0000
  C   C416      1.0  0.19440  0.49940  0.83020  1.0000
  H   H209      1.0  0.78174  0.56941  0.91676  1.0000
  H   H210      1.0  0.71826  0.43059  0.41676  1.0000
  H   H211      1.0  0.18059  0.03174  0.16676  1.0000
  H   H212      1.0  0.31941  0.96826  0.66676  1.0000
  H   H213      1.0  0.28174  0.06941  0.41676  1.0000
  H   H214      1.0  0.21826  0.93059  0.91676  1.0000
  H   H215      1.0  0.68059  0.53174  0.66676  1.0000
  H   H216      1.0  0.81941  0.46826  0.16676  1.0000
  H   H217      1.0  0.21826  0.43059  0.08324  1.0000
  H   H218      1.0  0.28174  0.56941  0.58324  1.0000
  H   H219      1.0  0.81941  0.96826  0.83324  1.0000
  H   H220      1.0  0.68059  0.03174  0.33324  1.0000
  H   H221      1.0  0.71826  0.93059  0.58324  1.0000
  H   H222      1.0  0.78174  0.06941  0.08324  1.0000
  H   H223      1.0  0.31941  0.46826  0.33324  1.0000
  H   H224      1.0  0.18059  0.53174  0.83324  1.0000
  C   C417      1.0  0.74070  0.50550  0.91160  1.0000
  C   C418      1.0  0.75930  0.49450  0.41160  1.0000
  C   C419      1.0  0.24450  0.99070  0.16160  1.0000
  C   C420      1.0  0.25550  0.00930  0.66160  1.0000
  C   C421      1.0  0.24070  0.00550  0.41160  1.0000
  C   C422      1.0  0.25930  0.99450  0.91160  1.0000
  C   C423      1.0  0.74450  0.49070  0.66160  1.0000
  C   C424      1.0  0.75550  0.50930  0.16160  1.0000
  C   C425      1.0  0.25930  0.49450  0.08840  1.0000
  C   C426      1.0  0.24070  0.50550  0.58840  1.0000
  C   C427      1.0  0.75550  0.00930  0.83840  1.0000
  C   C428      1.0  0.74450  0.99070  0.33840  1.0000
  C   C429      1.0  0.75930  0.99450  0.58840  1.0000
  C   C430      1.0  0.74070  0.00550  0.08840  1.0000
  C   C431      1.0  0.25550  0.50930  0.33840  1.0000
  C   C432      1.0  0.24450  0.49070  0.83840  1.0000
  H   H225      1.0  0.76745  0.48450  0.90318  1.0000
  H   H226      1.0  0.73255  0.51550  0.40318  1.0000
  H   H227      1.0  0.26550  0.01745  0.15318  1.0000
  H   H228      1.0  0.23450  0.98255  0.65318  1.0000
  H   H229      1.0  0.26745  0.98450  0.40318  1.0000
  H   H230      1.0  0.23255  0.01550  0.90318  1.0000
  H   H231      1.0  0.76550  0.51745  0.65318  1.0000
  H   H232      1.0  0.73450  0.48255  0.15318  1.0000
  H   H233      1.0  0.23255  0.51550  0.09682  1.0000
  H   H234      1.0  0.26745  0.48450  0.59682  1.0000
  H   H235      1.0  0.73450  0.98255  0.84682  1.0000
  H   H236      1.0  0.76550  0.01745  0.34682  1.0000
  H   H237      1.0  0.73255  0.01550  0.59682  1.0000
  H   H238      1.0  0.76745  0.98450  0.09682  1.0000
  H   H239      1.0  0.23450  0.48255  0.34682  1.0000
  H   H240      1.0  0.26550  0.51745  0.84682  1.0000
  C   C433      1.0  0.69320  0.48600  0.91550  1.0000
  C   C434      1.0  0.80680  0.51400  0.41550  1.0000
  C   C435      1.0  0.26400  0.94320  0.16550  1.0000
  C   C436      1.0  0.23600  0.05680  0.66550  1.0000
  C   C437      1.0  0.19320  0.98600  0.41550  1.0000
  C   C438      1.0  0.30680  0.01400  0.91550  1.0000
  C   C439      1.0  0.76400  0.44320  0.66550  1.0000
  C   C440      1.0  0.73600  0.55680  0.16550  1.0000
  C   C441      1.0  0.30680  0.51400  0.08450  1.0000
  C   C442      1.0  0.19320  0.48600  0.58450  1.0000
  C   C443      1.0  0.73600  0.05680  0.83450  1.0000
  C   C444      1.0  0.76400  0.94320  0.33450  1.0000
  C   C445      1.0  0.80680  0.01400  0.58450  1.0000
  C   C446      1.0  0.69320  0.98600  0.08450  1.0000
  C   C447      1.0  0.23600  0.55680  0.33450  1.0000
  C   C448      1.0  0.26400  0.44320  0.83450  1.0000
  H   H241      1.0  0.68740  0.45177  0.90964  1.0000
  H   H242      1.0  0.81260  0.54823  0.40964  1.0000
  H   H243      1.0  0.29823  0.93740  0.15964  1.0000
  H   H244      1.0  0.20177  0.06260  0.65964  1.0000
  H   H245      1.0  0.18740  0.95177  0.40964  1.0000
  H   H246      1.0  0.31260  0.04823  0.90964  1.0000
  H   H247      1.0  0.79823  0.43740  0.65964  1.0000
  H   H248      1.0  0.70177  0.56260  0.15964  1.0000
  H   H249      1.0  0.31260  0.54823  0.09036  1.0000
  H   H250      1.0  0.18740  0.45177  0.59036  1.0000
  H   H251      1.0  0.70177  0.06260  0.84036  1.0000
  H   H252      1.0  0.79823  0.93740  0.34036  1.0000
  H   H253      1.0  0.81260  0.04823  0.59036  1.0000
  H   H254      1.0  0.68740  0.95177  0.09036  1.0000
  H   H255      1.0  0.20177  0.56260  0.34036  1.0000
  H   H256      1.0  0.29823  0.43740  0.84036  1.0000
  C   C449      1.0  0.65300  0.51760  0.92850  1.0000
  C   C450      1.0  0.84700  0.48240  0.42850  1.0000
  C   C451      1.0  0.23240  0.90300  0.17850  1.0000
  C   C452      1.0  0.26760  0.09700  0.67850  1.0000
  C   C453      1.0  0.15300  0.01760  0.42850  1.0000
  C   C454      1.0  0.34700  0.98240  0.92850  1.0000
  C   C455      1.0  0.73240  0.40300  0.67850  1.0000
  C   C456      1.0  0.76760  0.59700  0.17850  1.0000
  C   C457      1.0  0.34700  0.48240  0.07150  1.0000
  C   C458      1.0  0.15300  0.51760  0.57150  1.0000
  C   C459      1.0  0.76760  0.09700  0.82150  1.0000
  C   C460      1.0  0.73240  0.90300  0.32150  1.0000
  C   C461      1.0  0.84700  0.98240  0.57150  1.0000
  C   C462      1.0  0.65300  0.01760  0.07150  1.0000
  C   C463      1.0  0.26760  0.59700  0.32150  1.0000
  C   C464      1.0  0.23240  0.40300  0.82150  1.0000
  C   C465      1.0  0.59930  0.50130  0.93470  1.0000
  C   C466      1.0  0.90070  0.49870  0.43470  1.0000
  C   C467      1.0  0.24870  0.84930  0.18470  1.0000
  C   C468      1.0  0.25130  0.15070  0.68470  1.0000
  C   C469      1.0  0.09930  0.00130  0.43470  1.0000
  C   C470      1.0  0.40070  0.99870  0.93470  1.0000
  C   C471      1.0  0.74870  0.34930  0.68470  1.0000
  C   C472      1.0  0.75130  0.65070  0.18470  1.0000
  C   C473      1.0  0.40070  0.49870  0.06530  1.0000
  C   C474      1.0  0.09930  0.50130  0.56530  1.0000
  C   C475      1.0  0.75130  0.15070  0.81530  1.0000
  C   C476      1.0  0.74870  0.84930  0.31530  1.0000
  C   C477      1.0  0.90070  0.99870  0.56530  1.0000
  C   C478      1.0  0.59930  0.00130  0.06530  1.0000
  C   C479      1.0  0.25130  0.65070  0.31530  1.0000
  C   C480      1.0  0.24870  0.34930  0.81530  1.0000
  C   C481      1.0  0.58400  0.45100  0.93410  1.0000
  C   C482      1.0  0.91600  0.54900  0.43410  1.0000
  C   C483      1.0  0.29900  0.83400  0.18410  1.0000
  C   C484      1.0  0.20100  0.16600  0.68410  1.0000
  C   C485      1.0  0.08400  0.95100  0.43410  1.0000
  C   C486      1.0  0.41600  0.04900  0.93410  1.0000
  C   C487      1.0  0.79900  0.33400  0.68410  1.0000
  C   C488      1.0  0.70100  0.66600  0.18410  1.0000
  C   C489      1.0  0.41600  0.54900  0.06590  1.0000
  C   C490      1.0  0.08400  0.45100  0.56590  1.0000
  C   C491      1.0  0.70100  0.16600  0.81590  1.0000
  C   C492      1.0  0.79900  0.83400  0.31590  1.0000
  C   C493      1.0  0.91600  0.04900  0.56590  1.0000
  C   C494      1.0  0.58400  0.95100  0.06590  1.0000
  C   C495      1.0  0.20100  0.66600  0.31590  1.0000
  C   C496      1.0  0.29900  0.33400  0.81590  1.0000
  H   H257      1.0  0.60778  0.42508  0.93147  1.0000
  H   H258      1.0  0.89222  0.57492  0.43147  1.0000
  H   H259      1.0  0.32492  0.85778  0.18147  1.0000
  H   H260      1.0  0.17508  0.14222  0.68147  1.0000
  H   H261      1.0  0.10778  0.92508  0.43147  1.0000
  H   H262      1.0  0.39222  0.07492  0.93147  1.0000
  H   H263      1.0  0.82492  0.35778  0.68147  1.0000
  H   H264      1.0  0.67508  0.64222  0.18147  1.0000
  H   H265      1.0  0.39222  0.57492  0.06853  1.0000
  H   H266      1.0  0.10778  0.42508  0.56853  1.0000
  H   H267      1.0  0.67508  0.14222  0.81853  1.0000
  H   H268      1.0  0.82492  0.85778  0.31853  1.0000
  H   H269      1.0  0.89222  0.07492  0.56853  1.0000
  H   H270      1.0  0.60778  0.92508  0.06853  1.0000
  H   H271      1.0  0.17508  0.64222  0.31853  1.0000
  H   H272      1.0  0.32492  0.35778  0.81853  1.0000
  C   C497      1.0  0.53400  0.44030  0.93740  1.0000
  C   C498      1.0  0.96600  0.55970  0.43740  1.0000
  C   C499      1.0  0.30970  0.78400  0.18740  1.0000
  C   C500      1.0  0.19030  0.21600  0.68740  1.0000
  C   C501      1.0  0.03400  0.94030  0.43740  1.0000
  C   C502      1.0  0.46600  0.05970  0.93740  1.0000
  C   C503      1.0  0.80970  0.28400  0.68740  1.0000
  C   C504      1.0  0.69030  0.71600  0.18740  1.0000
  C   C505      1.0  0.46600  0.55970  0.06260  1.0000
  C   C506      1.0  0.03400  0.44030  0.56260  1.0000
  C   C507      1.0  0.69030  0.21600  0.81260  1.0000
  C   C508      1.0  0.80970  0.78400  0.31260  1.0000
  C   C509      1.0  0.96600  0.05970  0.56260  1.0000
  C   C510      1.0  0.53400  0.94030  0.06260  1.0000
  C   C511      1.0  0.19030  0.71600  0.31260  1.0000
  C   C512      1.0  0.30970  0.28400  0.81260  1.0000
  H   H273      1.0  0.52315  0.40672  0.93631  1.0000
  H   H274      1.0  0.97685  0.59328  0.43631  1.0000
  H   H275      1.0  0.34328  0.77315  0.18631  1.0000
  H   H276      1.0  0.15672  0.22685  0.68631  1.0000
  H   H277      1.0  0.02315  0.90672  0.43631  1.0000
  H   H278      1.0  0.47685  0.09328  0.93631  1.0000
  H   H279      1.0  0.84328  0.27315  0.68631  1.0000
  H   H280      1.0  0.65672  0.72685  0.18631  1.0000
  H   H281      1.0  0.47685  0.59328  0.06369  1.0000
  H   H282      1.0  0.02315  0.40672  0.56369  1.0000
  H   H283      1.0  0.65672  0.22685  0.81369  1.0000
  H   H284      1.0  0.84328  0.77315  0.31369  1.0000
  H   H285      1.0  0.97685  0.09328  0.56369  1.0000
  H   H286      1.0  0.52315  0.90672  0.06369  1.0000
  H   H287      1.0  0.15672  0.72685  0.31369  1.0000
  H   H288      1.0  0.34328  0.27315  0.81369  1.0000
  C   C513      1.0  0.49870  0.47890  0.94250  1.0000
  C   C514      1.0  0.00130  0.52110  0.44250  1.0000
  C   C515      1.0  0.27110  0.74870  0.19250  1.0000
  C   C516      1.0  0.22890  0.25130  0.69250  1.0000
  C   C517      1.0  0.99870  0.97890  0.44250  1.0000
  C   C518      1.0  0.50130  0.02110  0.94250  1.0000
  C   C519      1.0  0.77110  0.24870  0.69250  1.0000
  C   C520      1.0  0.72890  0.75130  0.19250  1.0000
  C   C521      1.0  0.50130  0.52110  0.05750  1.0000
  C   C522      1.0  0.99870  0.47890  0.55750  1.0000
  C   C523      1.0  0.72890  0.25130  0.80750  1.0000
  C   C524      1.0  0.77110  0.74870  0.30750  1.0000
  C   C525      1.0  0.00130  0.02110  0.55750  1.0000
  C   C526      1.0  0.49870  0.97890  0.05750  1.0000
  C   C527      1.0  0.22890  0.75130  0.30750  1.0000
  C   C528      1.0  0.27110  0.24870  0.80750  1.0000
  H   H289      1.0  0.46421  0.47188  0.94540  1.0000
  H   H290      1.0  0.03579  0.52812  0.44540  1.0000
  H   H291      1.0  0.27812  0.71421  0.19540  1.0000
  H   H292      1.0  0.22188  0.28579  0.69540  1.0000
  H   H293      1.0  0.96421  0.97188  0.44540  1.0000
  H   H294      1.0  0.53579  0.02812  0.94540  1.0000
  H   H295      1.0  0.77812  0.21421  0.69540  1.0000
  H   H296      1.0  0.72188  0.78579  0.19540  1.0000
  H   H297      1.0  0.53579  0.52812  0.05460  1.0000
  H   H298      1.0  0.96421  0.47188  0.55460  1.0000
  H   H299      1.0  0.72188  0.28579  0.80460  1.0000
  H   H300      1.0  0.77812  0.71421  0.30460  1.0000
  H   H301      1.0  0.03579  0.02812  0.55460  1.0000
  H   H302      1.0  0.46421  0.97188  0.05460  1.0000
  H   H303      1.0  0.22188  0.78579  0.30460  1.0000
  H   H304      1.0  0.27812  0.21421  0.80460  1.0000
  C   C529      1.0  0.51600  0.52720  0.94310  1.0000
  C   C530      1.0  0.98400  0.47280  0.44310  1.0000
  C   C531      1.0  0.22280  0.76600  0.19310  1.0000
  C   C532      1.0  0.27720  0.23400  0.69310  1.0000
  C   C533      1.0  0.01600  0.02720  0.44310  1.0000
  C   C534      1.0  0.48400  0.97280  0.94310  1.0000
  C   C535      1.0  0.72280  0.26600  0.69310  1.0000
  C   C536      1.0  0.77720  0.73400  0.19310  1.0000
  C   C537      1.0  0.48400  0.47280  0.05690  1.0000
  C   C538      1.0  0.01600  0.52720  0.55690  1.0000
  C   C539      1.0  0.77720  0.23400  0.80690  1.0000
  C   C540      1.0  0.72280  0.76600  0.30690  1.0000
  C   C541      1.0  0.98400  0.97280  0.55690  1.0000
  C   C542      1.0  0.51600  0.02720  0.05690  1.0000
  C   C543      1.0  0.27720  0.73400  0.30690  1.0000
  C   C544      1.0  0.22280  0.26600  0.80690  1.0000
  C   C545      1.0  0.71330  0.64140  0.94540  1.0000
  C   C546      1.0  0.78670  0.35860  0.44540  1.0000
  C   C547      1.0  0.10860  0.96330  0.19540  1.0000
  C   C548      1.0  0.39140  0.03670  0.69540  1.0000
  C   C549      1.0  0.21330  0.14140  0.44540  1.0000
  C   C550      1.0  0.28670  0.85860  0.94540  1.0000
  C   C551      1.0  0.60860  0.46330  0.69540  1.0000
  C   C552      1.0  0.89140  0.53670  0.19540  1.0000
  C   C553      1.0  0.28670  0.35860  0.05460  1.0000
  C   C554      1.0  0.21330  0.64140  0.55460  1.0000
  C   C555      1.0  0.89140  0.03670  0.80460  1.0000
  C   C556      1.0  0.60860  0.96330  0.30460  1.0000
  C   C557      1.0  0.78670  0.85860  0.55460  1.0000
  C   C558      1.0  0.71330  0.14140  0.05460  1.0000
  C   C559      1.0  0.39140  0.53670  0.30460  1.0000
  C   C560      1.0  0.10860  0.46330  0.80460  1.0000
  C   C561      1.0  0.48090  0.57280  0.94600  1.0000
  C   C562      1.0  0.01910  0.42720  0.44600  1.0000
  C   C563      1.0  0.17720  0.73090  0.19600  1.0000
  C   C564      1.0  0.32280  0.26910  0.69600  1.0000
  C   C565      1.0  0.98090  0.07280  0.44600  1.0000
  C   C566      1.0  0.51910  0.92720  0.94600  1.0000
  C   C567      1.0  0.67720  0.23090  0.69600  1.0000
  C   C568      1.0  0.82280  0.76910  0.19600  1.0000
  C   C569      1.0  0.51910  0.42720  0.05400  1.0000
  C   C570      1.0  0.98090  0.57280  0.55400  1.0000
  C   C571      1.0  0.82280  0.26910  0.80400  1.0000
  C   C572      1.0  0.67720  0.73090  0.30400  1.0000
  C   C573      1.0  0.01910  0.92720  0.55400  1.0000
  C   C574      1.0  0.48090  0.07280  0.05400  1.0000
  C   C575      1.0  0.32280  0.76910  0.30400  1.0000
  C   C576      1.0  0.17720  0.23090  0.80400  1.0000
  C   C577      1.0  0.57400  0.70510  0.03580  1.0000
  C   C578      1.0  0.92600  0.29490  0.53580  1.0000
  C   C579      1.0  0.04490  0.82400  0.28580  1.0000
  C   C580      1.0  0.45510  0.17600  0.78580  1.0000
  C   C581      1.0  0.07400  0.20510  0.53580  1.0000
  C   C582      1.0  0.42600  0.79490  0.03580  1.0000
  C   C583      1.0  0.54490  0.32400  0.78580  1.0000
  C   C584      1.0  0.95510  0.67600  0.28580  1.0000
  C   C585      1.0  0.42600  0.29490  0.96420  1.0000
  C   C586      1.0  0.07400  0.70510  0.46420  1.0000
  C   C587      1.0  0.95510  0.17600  0.71420  1.0000
  C   C588      1.0  0.54490  0.82400  0.21420  1.0000
  C   C589      1.0  0.92600  0.79490  0.46420  1.0000
  C   C590      1.0  0.57400  0.20510  0.96420  1.0000
  C   C591      1.0  0.45510  0.67600  0.21420  1.0000
  C   C592      1.0  0.04490  0.32400  0.71420  1.0000
  C   C593      1.0  0.56970  0.74620  0.06470  1.0000
  C   C594      1.0  0.93030  0.25380  0.56470  1.0000
  C   C595      1.0  0.00380  0.81970  0.31470  1.0000
  C   C596      1.0  0.49620  0.18030  0.81470  1.0000
  C   C597      1.0  0.06970  0.24620  0.56470  1.0000
  C   C598      1.0  0.43030  0.75380  0.06470  1.0000
  C   C599      1.0  0.50380  0.31970  0.81470  1.0000
  C   C600      1.0  0.99620  0.68030  0.31470  1.0000
  C   C601      1.0  0.43030  0.25380  0.93530  1.0000
  C   C602      1.0  0.06970  0.74620  0.43530  1.0000
  C   C603      1.0  0.99620  0.18030  0.68530  1.0000
  C   C604      1.0  0.50380  0.81970  0.18530  1.0000
  C   C605      1.0  0.93030  0.75380  0.43530  1.0000
  C   C606      1.0  0.56970  0.24620  0.93530  1.0000
  C   C607      1.0  0.49620  0.68030  0.18530  1.0000
  C   C608      1.0  0.00380  0.31970  0.68530  1.0000
  H   H305      1.0  0.57045  0.74180  0.09602  1.0000
  H   H306      1.0  0.92955  0.25820  0.59602  1.0000
  H   H307      1.0  0.00820  0.82045  0.34602  1.0000
  H   H308      1.0  0.49180  0.17955  0.84602  1.0000
  H   H309      1.0  0.07045  0.24180  0.59602  1.0000
  H   H310      1.0  0.42955  0.75820  0.09602  1.0000
  H   H311      1.0  0.50820  0.32045  0.84602  1.0000
  H   H312      1.0  0.99180  0.67955  0.34602  1.0000
  H   H313      1.0  0.42955  0.25820  0.90398  1.0000
  H   H314      1.0  0.07045  0.74180  0.40398  1.0000
  H   H315      1.0  0.99180  0.17955  0.65398  1.0000
  H   H316      1.0  0.50820  0.82045  0.15398  1.0000
  H   H317      1.0  0.92955  0.75820  0.40398  1.0000
  H   H318      1.0  0.57045  0.24180  0.90398  1.0000
  H   H319      1.0  0.49180  0.67955  0.15398  1.0000
  H   H320      1.0  0.00820  0.32045  0.65398  1.0000
  C   C609      1.0  0.56420  0.79390  0.04610  1.0000
  C   C610      1.0  0.93580  0.20610  0.54610  1.0000
  C   C611      1.0  0.95610  0.81420  0.29610  1.0000
  C   C612      1.0  0.54390  0.18580  0.79610  1.0000
  C   C613      1.0  0.06420  0.29390  0.54610  1.0000
  C   C614      1.0  0.43580  0.70610  0.04610  1.0000
  C   C615      1.0  0.45610  0.31420  0.79610  1.0000
  C   C616      1.0  0.04390  0.68580  0.29610  1.0000
  C   C617      1.0  0.43580  0.20610  0.95390  1.0000
  C   C618      1.0  0.06420  0.79390  0.45390  1.0000
  C   C619      1.0  0.04390  0.18580  0.70390  1.0000
  C   C620      1.0  0.45610  0.81420  0.20390  1.0000
  C   C621      1.0  0.93580  0.70610  0.45390  1.0000
  C   C622      1.0  0.56420  0.29390  0.95390  1.0000
  C   C623      1.0  0.54390  0.68580  0.20390  1.0000
  C   C624      1.0  0.95610  0.31420  0.70390  1.0000
  H   H321      1.0  0.56201  0.82232  0.06473  1.0000
  H   H322      1.0  0.93799  0.17768  0.56473  1.0000
  H   H323      1.0  0.92768  0.81201  0.31473  1.0000
  H   H324      1.0  0.57232  0.18799  0.81473  1.0000
  H   H325      1.0  0.06201  0.32232  0.56473  1.0000
  H   H326      1.0  0.43799  0.67768  0.06473  1.0000
  H   H327      1.0  0.42768  0.31201  0.81473  1.0000
  H   H328      1.0  0.07232  0.68799  0.31473  1.0000
  H   H329      1.0  0.43799  0.17768  0.93527  1.0000
  H   H330      1.0  0.06201  0.82232  0.43527  1.0000
  H   H331      1.0  0.07232  0.18799  0.68527  1.0000
  H   H332      1.0  0.42768  0.81201  0.18527  1.0000
  H   H333      1.0  0.93799  0.67768  0.43527  1.0000
  H   H334      1.0  0.56201  0.32232  0.93527  1.0000
  H   H335      1.0  0.57232  0.68799  0.18527  1.0000
  H   H336      1.0  0.92768  0.31201  0.68527  1.0000
  C   C625      1.0  0.56190  0.79900  0.99920  1.0000
  C   C626      1.0  0.93810  0.20100  0.49920  1.0000
  C   C627      1.0  0.95100  0.81190  0.24920  1.0000
  C   C628      1.0  0.54900  0.18810  0.74920  1.0000
  C   C629      1.0  0.06190  0.29900  0.49920  1.0000
  C   C630      1.0  0.43810  0.70100  0.99920  1.0000
  C   C631      1.0  0.45100  0.31190  0.74920  1.0000
  C   C632      1.0  0.04900  0.68810  0.24920  1.0000
  C   C633      1.0  0.43810  0.20100  0.00080  1.0000
  C   C634      1.0  0.06190  0.79900  0.50080  1.0000
  C   C635      1.0  0.04900  0.18810  0.75080  1.0000
  C   C636      1.0  0.45100  0.81190  0.25080  1.0000
  C   C637      1.0  0.93810  0.70100  0.50080  1.0000
  C   C638      1.0  0.56190  0.29900  0.00080  1.0000
  C   C639      1.0  0.54900  0.68810  0.25080  1.0000
  C   C640      1.0  0.95100  0.31190  0.75080  1.0000
  H   H337      1.0  0.55684  0.83078  0.98614  1.0000
  H   H338      1.0  0.94316  0.16922  0.48614  1.0000
  H   H339      1.0  0.91922  0.80684  0.23614  1.0000
  H   H340      1.0  0.58078  0.19316  0.73614  1.0000
  H   H341      1.0  0.05684  0.33078  0.48614  1.0000
  H   H342      1.0  0.44316  0.66922  0.98614  1.0000
  H   H343      1.0  0.41922  0.30684  0.73614  1.0000
  H   H344      1.0  0.08078  0.69316  0.23614  1.0000
  H   H345      1.0  0.44316  0.16922  0.01386  1.0000
  H   H346      1.0  0.05684  0.83078  0.51386  1.0000
  H   H347      1.0  0.08078  0.19316  0.76386  1.0000
  H   H348      1.0  0.41922  0.80684  0.26386  1.0000
  H   H349      1.0  0.94316  0.66922  0.51386  1.0000
  H   H350      1.0  0.55684  0.33078  0.01386  1.0000
  H   H351      1.0  0.58078  0.69316  0.26386  1.0000
  H   H352      1.0  0.91922  0.30684  0.76386  1.0000
  C   C641      1.0  0.56720  0.75580  0.97160  1.0000
  C   C642      1.0  0.93280  0.24420  0.47160  1.0000
  C   C643      1.0  0.99420  0.81720  0.22160  1.0000
  C   C644      1.0  0.50580  0.18280  0.72160  1.0000
  C   C645      1.0  0.06720  0.25580  0.47160  1.0000
  C   C646      1.0  0.43280  0.74420  0.97160  1.0000
  C   C647      1.0  0.49420  0.31720  0.72160  1.0000
  C   C648      1.0  0.00580  0.68280  0.22160  1.0000
  C   C649      1.0  0.43280  0.24420  0.02840  1.0000
  C   C650      1.0  0.06720  0.75580  0.52840  1.0000
  C   C651      1.0  0.00580  0.18280  0.77840  1.0000
  C   C652      1.0  0.49420  0.81720  0.27840  1.0000
  C   C653      1.0  0.93280  0.74420  0.52840  1.0000
  C   C654      1.0  0.56720  0.25580  0.02840  1.0000
  C   C655      1.0  0.50580  0.68280  0.27840  1.0000
  C   C656      1.0  0.99420  0.31720  0.77840  1.0000
  C   C657      1.0  0.56800  0.75780  0.92130  1.0000
  C   C658      1.0  0.93200  0.24220  0.42130  1.0000
  C   C659      1.0  0.99220  0.81800  0.17130  1.0000
  C   C660      1.0  0.50780  0.18200  0.67130  1.0000
  C   C661      1.0  0.06800  0.25780  0.42130  1.0000
  C   C662      1.0  0.43200  0.74220  0.92130  1.0000
  C   C663      1.0  0.49220  0.31800  0.67130  1.0000
  C   C664      1.0  0.00780  0.68200  0.17130  1.0000
  C   C665      1.0  0.43200  0.24220  0.07870  1.0000
  C   C666      1.0  0.06800  0.75780  0.57870  1.0000
  C   C667      1.0  0.00780  0.18200  0.82870  1.0000
  C   C668      1.0  0.49220  0.81800  0.32870  1.0000
  C   C669      1.0  0.93200  0.74220  0.57870  1.0000
  C   C670      1.0  0.56800  0.25780  0.07870  1.0000
  C   C671      1.0  0.50780  0.68200  0.32870  1.0000
  C   C672      1.0  0.99220  0.31800  0.82870  1.0000
  C   C673      1.0  0.56370  0.80140  0.89550  1.0000
  C   C674      1.0  0.93630  0.19860  0.39550  1.0000
  C   C675      1.0  0.94860  0.81370  0.14550  1.0000
  C   C676      1.0  0.55140  0.18630  0.64550  1.0000
  C   C677      1.0  0.06370  0.30140  0.39550  1.0000
  C   C678      1.0  0.43630  0.69860  0.89550  1.0000
  C   C679      1.0  0.44860  0.31370  0.64550  1.0000
  C   C680      1.0  0.05140  0.68630  0.14550  1.0000
  C   C681      1.0  0.43630  0.19860  0.10450  1.0000
  C   C682      1.0  0.06370  0.80140  0.60450  1.0000
  C   C683      1.0  0.05140  0.18630  0.85450  1.0000
  C   C684      1.0  0.44860  0.81370  0.35450  1.0000
  C   C685      1.0  0.93630  0.69860  0.60450  1.0000
  C   C686      1.0  0.56370  0.30140  0.10450  1.0000
  C   C687      1.0  0.55140  0.68630  0.35450  1.0000
  C   C688      1.0  0.94860  0.31370  0.85450  1.0000
  H   H353      1.0  0.56083  0.83264  0.90989  1.0000
  H   H354      1.0  0.93917  0.16736  0.40989  1.0000
  H   H355      1.0  0.91736  0.81083  0.15989  1.0000
  H   H356      1.0  0.58264  0.18917  0.65989  1.0000
  H   H357      1.0  0.06083  0.33264  0.40989  1.0000
  H   H358      1.0  0.43917  0.66736  0.90989  1.0000
  H   H359      1.0  0.41736  0.31083  0.65989  1.0000
  H   H360      1.0  0.08264  0.68917  0.15989  1.0000
  H   H361      1.0  0.43917  0.16736  0.09011  1.0000
  H   H362      1.0  0.06083  0.83264  0.59011  1.0000
  H   H363      1.0  0.08264  0.18917  0.84011  1.0000
  H   H364      1.0  0.41736  0.81083  0.34011  1.0000
  H   H365      1.0  0.93917  0.66736  0.59011  1.0000
  H   H366      1.0  0.56083  0.33264  0.09011  1.0000
  H   H367      1.0  0.58264  0.68917  0.34011  1.0000
  H   H368      1.0  0.91736  0.31083  0.84011  1.0000
  C   C689      1.0  0.56340  0.79920  0.84900  1.0000
  C   C690      1.0  0.93660  0.20080  0.34900  1.0000
  C   C691      1.0  0.95080  0.81340  0.09900  1.0000
  C   C692      1.0  0.54920  0.18660  0.59900  1.0000
  C   C693      1.0  0.06340  0.29920  0.34900  1.0000
  C   C694      1.0  0.43660  0.70080  0.84900  1.0000
  C   C695      1.0  0.45080  0.31340  0.59900  1.0000
  C   C696      1.0  0.04920  0.68660  0.09900  1.0000
  C   C697      1.0  0.43660  0.20080  0.15100  1.0000
  C   C698      1.0  0.06340  0.79920  0.65100  1.0000
  C   C699      1.0  0.04920  0.18660  0.90100  1.0000
  C   C700      1.0  0.45080  0.81340  0.40100  1.0000
  C   C701      1.0  0.93660  0.70080  0.65100  1.0000
  C   C702      1.0  0.56340  0.29920  0.15100  1.0000
  C   C703      1.0  0.54920  0.68660  0.40100  1.0000
  C   C704      1.0  0.95080  0.31340  0.90100  1.0000
  H   H369      1.0  0.55980  0.82880  0.83203  1.0000
  H   H370      1.0  0.94020  0.17120  0.33203  1.0000
  H   H371      1.0  0.92120  0.80980  0.08203  1.0000
  H   H372      1.0  0.57880  0.19020  0.58203  1.0000
  H   H373      1.0  0.05980  0.32880  0.33203  1.0000
  H   H374      1.0  0.44020  0.67120  0.83203  1.0000
  H   H375      1.0  0.42120  0.30980  0.58203  1.0000
  H   H376      1.0  0.07880  0.69020  0.08203  1.0000
  H   H377      1.0  0.44020  0.17120  0.16797  1.0000
  H   H378      1.0  0.05980  0.82880  0.66797  1.0000
  H   H379      1.0  0.07880  0.19020  0.91797  1.0000
  H   H380      1.0  0.42120  0.80980  0.41797  1.0000
  H   H381      1.0  0.94020  0.67120  0.66797  1.0000
  H   H382      1.0  0.55980  0.32880  0.16797  1.0000
  H   H383      1.0  0.57880  0.69020  0.41797  1.0000
  H   H384      1.0  0.92120  0.30980  0.91797  1.0000
  C   C705      1.0  0.56870  0.75290  0.82740  1.0000
  C   C706      1.0  0.93130  0.24710  0.32740  1.0000
  C   C707      1.0  0.99710  0.81870  0.07740  1.0000
  C   C708      1.0  0.50290  0.18130  0.57740  1.0000
  C   C709      1.0  0.06870  0.25290  0.32740  1.0000
  C   C710      1.0  0.43130  0.74710  0.82740  1.0000
  C   C711      1.0  0.49710  0.31870  0.57740  1.0000
  C   C712      1.0  0.00290  0.68130  0.07740  1.0000
  C   C713      1.0  0.43130  0.24710  0.17260  1.0000
  C   C714      1.0  0.06870  0.75290  0.67260  1.0000
  C   C715      1.0  0.00290  0.18130  0.92260  1.0000
  C   C716      1.0  0.49710  0.81870  0.42260  1.0000
  C   C717      1.0  0.93130  0.74710  0.67260  1.0000
  C   C718      1.0  0.56870  0.25290  0.17260  1.0000
  C   C719      1.0  0.50290  0.68130  0.42260  1.0000
  C   C720      1.0  0.99710  0.31870  0.92260  1.0000
  H   H385      1.0  0.56905  0.75048  0.79594  1.0000
  H   H386      1.0  0.93095  0.24952  0.29594  1.0000
  H   H387      1.0  0.99952  0.81905  0.04594  1.0000
  H   H388      1.0  0.50048  0.18095  0.54594  1.0000
  H   H389      1.0  0.06905  0.25048  0.29594  1.0000
  H   H390      1.0  0.43095  0.74952  0.79594  1.0000
  H   H391      1.0  0.49952  0.31905  0.54594  1.0000
  H   H392      1.0  0.00048  0.68095  0.04594  1.0000
  H   H393      1.0  0.43095  0.24952  0.20406  1.0000
  H   H394      1.0  0.06905  0.75048  0.70406  1.0000
  H   H395      1.0  0.00048  0.18095  0.95406  1.0000
  H   H396      1.0  0.49952  0.81905  0.45406  1.0000
  H   H397      1.0  0.93095  0.74952  0.70406  1.0000
  H   H398      1.0  0.56905  0.25048  0.20406  1.0000
  H   H399      1.0  0.50048  0.68095  0.45406  1.0000
  H   H400      1.0  0.99952  0.31905  0.95406  1.0000
  C   C721      1.0  0.57340  0.71020  0.85470  1.0000
  C   C722      1.0  0.92660  0.28980  0.35470  1.0000
  C   C723      1.0  0.03980  0.82340  0.10470  1.0000
  C   C724      1.0  0.46020  0.17660  0.60470  1.0000
  C   C725      1.0  0.07340  0.21020  0.35470  1.0000
  C   C726      1.0  0.42660  0.78980  0.85470  1.0000
  C   C727      1.0  0.53980  0.32340  0.60470  1.0000
  C   C728      1.0  0.96020  0.67660  0.10470  1.0000
  C   C729      1.0  0.42660  0.28980  0.14530  1.0000
  C   C730      1.0  0.07340  0.71020  0.64530  1.0000
  C   C731      1.0  0.96020  0.17660  0.89530  1.0000
  C   C732      1.0  0.53980  0.82340  0.39530  1.0000
  C   C733      1.0  0.92660  0.78980  0.64530  1.0000
  C   C734      1.0  0.57340  0.21020  0.14530  1.0000
  C   C735      1.0  0.46020  0.67660  0.39530  1.0000
  C   C736      1.0  0.03980  0.32340  0.89530  1.0000
  C   C737      1.0  0.57930  0.65130  0.05370  1.0000
  C   C738      1.0  0.92070  0.34870  0.55370  1.0000
  C   C739      1.0  0.09870  0.82930  0.30370  1.0000
  C   C740      1.0  0.40130  0.17070  0.80370  1.0000
  C   C741      1.0  0.07930  0.15130  0.55370  1.0000
  C   C742      1.0  0.42070  0.84870  0.05370  1.0000
  C   C743      1.0  0.59870  0.32930  0.80370  1.0000
  C   C744      1.0  0.90130  0.67070  0.30370  1.0000
  C   C745      1.0  0.42070  0.34870  0.94630  1.0000
  C   C746      1.0  0.07930  0.65130  0.44630  1.0000
  C   C747      1.0  0.90130  0.17070  0.69630  1.0000
  C   C748      1.0  0.59870  0.82930  0.19630  1.0000
  C   C749      1.0  0.92070  0.84870  0.44630  1.0000
  C   C750      1.0  0.57930  0.15130  0.94630  1.0000
  C   C751      1.0  0.40130  0.67070  0.19630  1.0000
  C   C752      1.0  0.09870  0.32930  0.69630  1.0000
  C   C753      1.0  0.57970  0.65760  0.83470  1.0000
  C   C754      1.0  0.92030  0.34240  0.33470  1.0000
  C   C755      1.0  0.09240  0.82970  0.08470  1.0000
  C   C756      1.0  0.40760  0.17030  0.58470  1.0000
  C   C757      1.0  0.07970  0.15760  0.33470  1.0000
  C   C758      1.0  0.42030  0.84240  0.83470  1.0000
  C   C759      1.0  0.59240  0.32970  0.58470  1.0000
  C   C760      1.0  0.90760  0.67030  0.08470  1.0000
  C   C761      1.0  0.42030  0.34240  0.16530  1.0000
  C   C762      1.0  0.07970  0.65760  0.66530  1.0000
  C   C763      1.0  0.90760  0.17030  0.91530  1.0000
  C   C764      1.0  0.59240  0.82970  0.41530  1.0000
  C   C765      1.0  0.92030  0.84240  0.66530  1.0000
  C   C766      1.0  0.57970  0.15760  0.16530  1.0000
  C   C767      1.0  0.40760  0.67030  0.41530  1.0000
  C   C768      1.0  0.09240  0.32970  0.91530  1.0000
  C   C769      1.0  0.75500  0.71130  0.07460  1.0000
  C   C770      1.0  0.74500  0.28870  0.57460  1.0000
  C   C771      1.0  0.03870  0.00500  0.32460  1.0000
  C   C772      1.0  0.46130  0.99500  0.82460  1.0000
  C   C773      1.0  0.25500  0.21130  0.57460  1.0000
  C   C774      1.0  0.24500  0.78870  0.07460  1.0000
  C   C775      1.0  0.53870  0.50500  0.82460  1.0000
  C   C776      1.0  0.96130  0.49500  0.32460  1.0000
  C   C777      1.0  0.24500  0.28870  0.92540  1.0000
  C   C778      1.0  0.25500  0.71130  0.42540  1.0000
  C   C779      1.0  0.96130  0.99500  0.67540  1.0000
  C   C780      1.0  0.53870  0.00500  0.17540  1.0000
  C   C781      1.0  0.74500  0.78870  0.42540  1.0000
  C   C782      1.0  0.75500  0.21130  0.92540  1.0000
  C   C783      1.0  0.46130  0.49500  0.17540  1.0000
  C   C784      1.0  0.03870  0.50500  0.67540  1.0000
  H   H401      1.0  0.76378  0.74234  0.05874  1.0000
  H   H402      1.0  0.73622  0.25766  0.55874  1.0000
  H   H403      1.0  0.00766  0.01378  0.30874  1.0000
  H   H404      1.0  0.49234  0.98622  0.80874  1.0000
  H   H405      1.0  0.26378  0.24234  0.55874  1.0000
  H   H406      1.0  0.23622  0.75766  0.05874  1.0000
  H   H407      1.0  0.50766  0.51378  0.80874  1.0000
  H   H408      1.0  0.99234  0.48622  0.30874  1.0000
  H   H409      1.0  0.23622  0.25766  0.94126  1.0000
  H   H410      1.0  0.26378  0.74234  0.44126  1.0000
  H   H411      1.0  0.99234  0.98622  0.69126  1.0000
  H   H412      1.0  0.50766  0.01378  0.19126  1.0000
  H   H413      1.0  0.73622  0.75766  0.44126  1.0000
  H   H414      1.0  0.76378  0.24234  0.94126  1.0000
  H   H415      1.0  0.49234  0.48622  0.19126  1.0000
  H   H416      1.0  0.00766  0.51378  0.69126  1.0000
  H   H417      1.0  0.75994  0.71689  0.10681  1.0000
  H   H418      1.0  0.74006  0.28311  0.60681  1.0000
  H   H419      1.0  0.03311  0.00994  0.35681  1.0000
  H   H420      1.0  0.46689  0.99006  0.85681  1.0000
  H   H421      1.0  0.25994  0.21689  0.60681  1.0000
  H   H422      1.0  0.24006  0.78311  0.10681  1.0000
  H   H423      1.0  0.53311  0.50994  0.85681  1.0000
  H   H424      1.0  0.96689  0.49006  0.35681  1.0000
  H   H425      1.0  0.24006  0.28311  0.89319  1.0000
  H   H426      1.0  0.25994  0.71689  0.39319  1.0000
  H   H427      1.0  0.96689  0.99006  0.64319  1.0000
  H   H428      1.0  0.53311  0.00994  0.14319  1.0000
  H   H429      1.0  0.74006  0.78311  0.39319  1.0000
  H   H430      1.0  0.75994  0.21689  0.89319  1.0000
  H   H431      1.0  0.46689  0.49006  0.14319  1.0000
  H   H432      1.0  0.03311  0.50994  0.64319  1.0000
  C   C785      1.0  0.69820  0.69810  0.06540  1.0000
  C   C786      1.0  0.80180  0.30190  0.56540  1.0000
  C   C787      1.0  0.05190  0.94820  0.31540  1.0000
  C   C788      1.0  0.44810  0.05180  0.81540  1.0000
  C   C789      1.0  0.19820  0.19810  0.56540  1.0000
  C   C790      1.0  0.30180  0.80190  0.06540  1.0000
  C   C791      1.0  0.55190  0.44820  0.81540  1.0000
  C   C792      1.0  0.94810  0.55180  0.31540  1.0000
  C   C793      1.0  0.30180  0.30190  0.93460  1.0000
  C   C794      1.0  0.19820  0.69810  0.43460  1.0000
  C   C795      1.0  0.94810  0.05180  0.68460  1.0000
  C   C796      1.0  0.55190  0.94820  0.18460  1.0000
  C   C797      1.0  0.80180  0.80190  0.43460  1.0000
  C   C798      1.0  0.69820  0.19810  0.93460  1.0000
  C   C799      1.0  0.44810  0.55180  0.18460  1.0000
  C   C800      1.0  0.05190  0.44820  0.68460  1.0000
  H   H433      1.0  0.67711  0.72553  0.07563  1.0000
  H   H434      1.0  0.82289  0.27447  0.57563  1.0000
  H   H435      1.0  0.02447  0.92711  0.32563  1.0000
  H   H436      1.0  0.47553  0.07289  0.82563  1.0000
  H   H437      1.0  0.17711  0.22553  0.57563  1.0000
  H   H438      1.0  0.32289  0.77447  0.07563  1.0000
  H   H439      1.0  0.52447  0.42711  0.82563  1.0000
  H   H440      1.0  0.97553  0.57289  0.32563  1.0000
  H   H441      1.0  0.32289  0.27447  0.92437  1.0000
  H   H442      1.0  0.17711  0.72553  0.42437  1.0000
  H   H443      1.0  0.97553  0.07289  0.67437  1.0000
  H   H444      1.0  0.52447  0.92711  0.17437  1.0000
  H   H445      1.0  0.82289  0.77447  0.42437  1.0000
  H   H446      1.0  0.67711  0.22553  0.92437  1.0000
  H   H447      1.0  0.47553  0.57289  0.17437  1.0000
  H   H448      1.0  0.02447  0.42711  0.67437  1.0000
  H   H449      1.0  0.69320  0.69305  0.03343  1.0000
  H   H450      1.0  0.80680  0.30695  0.53343  1.0000
  H   H451      1.0  0.05695  0.94320  0.28343  1.0000
  H   H452      1.0  0.44305  0.05680  0.78343  1.0000
  H   H453      1.0  0.19320  0.19305  0.53343  1.0000
  H   H454      1.0  0.30680  0.80695  0.03343  1.0000
  H   H455      1.0  0.55695  0.44320  0.78343  1.0000
  H   H456      1.0  0.94305  0.55680  0.28343  1.0000
  H   H457      1.0  0.30680  0.30695  0.96657  1.0000
  H   H458      1.0  0.19320  0.69305  0.46657  1.0000
  H   H459      1.0  0.94305  0.05680  0.71657  1.0000
  H   H460      1.0  0.55695  0.94320  0.21657  1.0000
  H   H461      1.0  0.80680  0.80695  0.46657  1.0000
  H   H462      1.0  0.69320  0.19305  0.96657  1.0000
  H   H463      1.0  0.44305  0.55680  0.21657  1.0000
  H   H464      1.0  0.05695  0.44320  0.71657  1.0000
  H   H465      1.0  0.68936  0.66765  0.08142  1.0000
  H   H466      1.0  0.81064  0.33235  0.58142  1.0000
  H   H467      1.0  0.08235  0.93936  0.33142  1.0000
  H   H468      1.0  0.41765  0.06064  0.83142  1.0000
  H   H469      1.0  0.18936  0.16765  0.58142  1.0000
  H   H470      1.0  0.31064  0.83235  0.08142  1.0000
  H   H471      1.0  0.58235  0.43936  0.83142  1.0000
  H   H472      1.0  0.91765  0.56064  0.33142  1.0000
  H   H473      1.0  0.31064  0.33235  0.91858  1.0000
  H   H474      1.0  0.18936  0.66765  0.41858  1.0000
  H   H475      1.0  0.91765  0.06064  0.66858  1.0000
  H   H476      1.0  0.58235  0.93936  0.16858  1.0000
  H   H477      1.0  0.81064  0.83235  0.41858  1.0000
  H   H478      1.0  0.68936  0.16765  0.91858  1.0000
  H   H479      1.0  0.41765  0.56064  0.16858  1.0000
  H   H480      1.0  0.08235  0.43936  0.66858  1.0000
