data_image0
_chemical_formula_structural       Tb32K16O272H16N128C32H16C16H16C16H16C48H16C16H16C16H16C80H16C16H16C16H16C48H16C16H16C16H16C80H16C16H16C16H16C48H16C16H16C16H16C80H16C16H16C16H16C48H16C16H16C16H16C64H32C16H48
_chemical_formula_sum              "Tb32 K16 O272 H480 N128 C800"
_cell_length_a       26.3404
_cell_length_b       26.3404
_cell_length_c       29.2169
_cell_angle_alpha    90
_cell_angle_beta     90
_cell_angle_gamma    90

_space_group_name_H-M_alt    "P 1"
_space_group_IT_number       1

loop_
  _space_group_symop_operation_xyz
  'x, y, z'

loop_
  _atom_site_type_symbol
  _atom_site_label
  _atom_site_symmetry_multiplicity
  _atom_site_fract_x
  _atom_site_fract_y
  _atom_site_fract_z
  _atom_site_occupancy
  Tb  Tb1       1.0  0.35919  0.91838  0.02092  1.0000
  Tb  Tb2       1.0  0.14081  0.08162  0.52092  1.0000
  Tb  Tb3       1.0  0.83162  0.60919  0.27092  1.0000
  Tb  Tb4       1.0  0.66838  0.39081  0.77092  1.0000
  Tb  Tb5       1.0  0.85919  0.41838  0.52092  1.0000
  Tb  Tb6       1.0  0.64081  0.58162  0.02092  1.0000
  Tb  Tb7       1.0  0.33162  0.10919  0.77092  1.0000
  Tb  Tb8       1.0  0.16838  0.89081  0.27092  1.0000
  Tb  Tb9       1.0  0.64081  0.08162  0.97908  1.0000
  Tb  Tb10      1.0  0.85919  0.91838  0.47908  1.0000
  Tb  Tb11      1.0  0.16838  0.39081  0.72908  1.0000
  Tb  Tb12      1.0  0.33162  0.60919  0.22908  1.0000
  Tb  Tb13      1.0  0.14081  0.58162  0.47908  1.0000
  Tb  Tb14      1.0  0.35919  0.41838  0.97908  1.0000
  Tb  Tb15      1.0  0.66838  0.89081  0.22908  1.0000
  Tb  Tb16      1.0  0.83162  0.10919  0.72908  1.0000
  Tb  Tb17      1.0  0.09034  0.63047  0.05469  1.0000
  Tb  Tb18      1.0  0.40966  0.36953  0.55469  1.0000
  Tb  Tb19      1.0  0.11953  0.34034  0.30469  1.0000
  Tb  Tb20      1.0  0.38047  0.65966  0.80469  1.0000
  Tb  Tb21      1.0  0.59034  0.13047  0.55469  1.0000
  Tb  Tb22      1.0  0.90966  0.86953  0.05469  1.0000
  Tb  Tb23      1.0  0.61953  0.84034  0.80469  1.0000
  Tb  Tb24      1.0  0.88047  0.15966  0.30469  1.0000
  Tb  Tb25      1.0  0.90966  0.36953  0.94531  1.0000
  Tb  Tb26      1.0  0.59034  0.63047  0.44531  1.0000
  Tb  Tb27      1.0  0.88047  0.65966  0.69531  1.0000
  Tb  Tb28      1.0  0.61953  0.34034  0.19531  1.0000
  Tb  Tb29      1.0  0.40966  0.86953  0.44531  1.0000
  Tb  Tb30      1.0  0.09034  0.13047  0.94531  1.0000
  Tb  Tb31      1.0  0.38047  0.15966  0.19531  1.0000
  Tb  Tb32      1.0  0.11953  0.84034  0.69531  1.0000
  K   K1        1.0  0.33623  0.66520  0.00942  1.0000
  K   K2        1.0  0.16377  0.33480  0.50942  1.0000
  K   K3        1.0  0.08480  0.58623  0.25942  1.0000
  K   K4        1.0  0.41520  0.41377  0.75942  1.0000
  K   K5        1.0  0.83623  0.16520  0.50942  1.0000
  K   K6        1.0  0.66377  0.83480  0.00942  1.0000
  K   K7        1.0  0.58480  0.08623  0.75942  1.0000
  K   K8        1.0  0.91520  0.91377  0.25942  1.0000
  K   K9        1.0  0.66377  0.33480  0.99058  1.0000
  K   K10       1.0  0.83623  0.66520  0.49058  1.0000
  K   K11       1.0  0.91520  0.41377  0.74058  1.0000
  K   K12       1.0  0.58480  0.58623  0.24058  1.0000
  K   K13       1.0  0.16377  0.83480  0.49058  1.0000
  K   K14       1.0  0.33623  0.16520  0.99058  1.0000
  K   K15       1.0  0.41520  0.91377  0.24058  1.0000
  K   K16       1.0  0.08480  0.08623  0.74058  1.0000
  O   O1        1.0  0.37040  0.83046  0.01140  1.0000
  O   O2        1.0  0.12960  0.16954  0.51140  1.0000
  O   O3        1.0  0.91954  0.62040  0.26140  1.0000
  O   O4        1.0  0.58046  0.37960  0.76140  1.0000
  O   O5        1.0  0.87040  0.33046  0.51140  1.0000
  O   O6        1.0  0.62960  0.66954  0.01140  1.0000
  O   O7        1.0  0.41954  0.12040  0.76140  1.0000
  O   O8        1.0  0.08046  0.87960  0.26140  1.0000
  O   O9        1.0  0.62960  0.16954  0.98860  1.0000
  O   O10       1.0  0.87040  0.83046  0.48860  1.0000
  O   O11       1.0  0.08046  0.37960  0.73860  1.0000
  O   O12       1.0  0.41954  0.62040  0.23860  1.0000
  O   O13       1.0  0.12960  0.66954  0.48860  1.0000
  O   O14       1.0  0.37040  0.33046  0.98860  1.0000
  O   O15       1.0  0.58046  0.87960  0.23860  1.0000
  O   O16       1.0  0.91954  0.12040  0.73860  1.0000
  O   O17       1.0  0.34110  0.75124  0.01218  1.0000
  O   O18       1.0  0.15890  0.24876  0.51218  1.0000
  O   O19       1.0  0.99876  0.59110  0.26218  1.0000
  O   O20       1.0  0.50124  0.40890  0.76218  1.0000
  O   O21       1.0  0.84110  0.25124  0.51218  1.0000
  O   O22       1.0  0.65890  0.74876  0.01218  1.0000
  O   O23       1.0  0.49876  0.09110  0.76218  1.0000
  O   O24       1.0  0.00124  0.90890  0.26218  1.0000
  O   O25       1.0  0.65890  0.24876  0.98782  1.0000
  O   O26       1.0  0.84110  0.75124  0.48782  1.0000
  O   O27       1.0  0.00124  0.40890  0.73782  1.0000
  O   O28       1.0  0.49876  0.59110  0.23782  1.0000
  O   O29       1.0  0.15890  0.74876  0.48782  1.0000
  O   O30       1.0  0.34110  0.25124  0.98782  1.0000
  O   O31       1.0  0.50124  0.90890  0.23782  1.0000
  O   O32       1.0  0.99876  0.09110  0.73782  1.0000
  O   O33       1.0  0.36986  0.00646  0.02575  1.0000
  O   O34       1.0  0.13014  0.99354  0.52575  1.0000
  O   O35       1.0  0.74354  0.61986  0.27575  1.0000
  O   O36       1.0  0.75646  0.38014  0.77575  1.0000
  O   O37       1.0  0.86986  0.50646  0.52575  1.0000
  O   O38       1.0  0.63014  0.49354  0.02575  1.0000
  O   O39       1.0  0.24354  0.11986  0.77575  1.0000
  O   O40       1.0  0.25646  0.88014  0.27575  1.0000
  O   O41       1.0  0.63014  0.99354  0.97425  1.0000
  O   O42       1.0  0.86986  0.00646  0.47425  1.0000
  O   O43       1.0  0.25646  0.38014  0.72425  1.0000
  O   O44       1.0  0.24354  0.61986  0.22425  1.0000
  O   O45       1.0  0.13014  0.49354  0.47425  1.0000
  O   O46       1.0  0.36986  0.50646  0.97425  1.0000
  O   O47       1.0  0.75646  0.88014  0.22425  1.0000
  O   O48       1.0  0.74354  0.11986  0.72425  1.0000
  O   O49       1.0  0.33980  0.08340  0.01240  1.0000
  O   O50       1.0  0.16020  0.91660  0.51240  1.0000
  O   O51       1.0  0.66660  0.58980  0.26240  1.0000
  O   O52       1.0  0.83340  0.41020  0.76240  1.0000
  O   O53       1.0  0.83980  0.58340  0.51240  1.0000
  O   O54       1.0  0.66020  0.41660  0.01240  1.0000
  O   O55       1.0  0.16660  0.08980  0.76240  1.0000
  O   O56       1.0  0.33340  0.91020  0.26240  1.0000
  O   O57       1.0  0.66020  0.91660  0.98760  1.0000
  O   O58       1.0  0.83980  0.08340  0.48760  1.0000
  O   O59       1.0  0.33340  0.41020  0.73760  1.0000
  O   O60       1.0  0.16660  0.58980  0.23760  1.0000
  O   O61       1.0  0.16020  0.41660  0.48760  1.0000
  O   O62       1.0  0.33980  0.58340  0.98760  1.0000
  O   O63       1.0  0.83340  0.91020  0.23760  1.0000
  O   O64       1.0  0.66660  0.08980  0.73760  1.0000
  O   O65       1.0  0.33591  0.92360  0.94460  1.0000
  O   O66       1.0  0.16409  0.07640  0.44460  1.0000
  O   O67       1.0  0.82640  0.58591  0.19460  1.0000
  O   O68       1.0  0.67360  0.41409  0.69460  1.0000
  O   O69       1.0  0.83591  0.42360  0.44460  1.0000
  O   O70       1.0  0.66409  0.57640  0.94460  1.0000
  O   O71       1.0  0.32640  0.08591  0.69460  1.0000
  O   O72       1.0  0.17360  0.91409  0.19460  1.0000
  O   O73       1.0  0.66409  0.07640  0.05540  1.0000
  O   O74       1.0  0.83591  0.92360  0.55540  1.0000
  O   O75       1.0  0.17360  0.41409  0.80540  1.0000
  O   O76       1.0  0.32640  0.58591  0.30540  1.0000
  O   O77       1.0  0.16409  0.57640  0.55540  1.0000
  O   O78       1.0  0.33591  0.42360  0.05540  1.0000
  O   O79       1.0  0.67360  0.91409  0.30540  1.0000
  O   O80       1.0  0.82640  0.08591  0.80540  1.0000
  O   O81       1.0  0.35080  0.94540  0.87270  1.0000
  O   O82       1.0  0.14920  0.05460  0.37270  1.0000
  O   O83       1.0  0.80460  0.60080  0.12270  1.0000
  O   O84       1.0  0.69540  0.39920  0.62270  1.0000
  O   O85       1.0  0.85080  0.44540  0.37270  1.0000
  O   O86       1.0  0.64920  0.55460  0.87270  1.0000
  O   O87       1.0  0.30460  0.10080  0.62270  1.0000
  O   O88       1.0  0.19540  0.89920  0.12270  1.0000
  O   O89       1.0  0.64920  0.05460  0.12730  1.0000
  O   O90       1.0  0.85080  0.94540  0.62730  1.0000
  O   O91       1.0  0.19540  0.39920  0.87730  1.0000
  O   O92       1.0  0.30460  0.60080  0.37730  1.0000
  O   O93       1.0  0.14920  0.55460  0.62730  1.0000
  O   O94       1.0  0.35080  0.44540  0.12730  1.0000
  O   O95       1.0  0.69540  0.89920  0.37730  1.0000
  O   O96       1.0  0.80460  0.10080  0.87730  1.0000
  O   O97       1.0  0.36217  0.90433  0.10104  1.0000
  O   O98       1.0  0.13783  0.09567  0.60104  1.0000
  O   O99       1.0  0.84567  0.61217  0.35104  1.0000
  O   O100      1.0  0.65433  0.38783  0.85104  1.0000
  O   O101      1.0  0.86217  0.40433  0.60104  1.0000
  O   O102      1.0  0.63783  0.59567  0.10104  1.0000
  O   O103      1.0  0.34567  0.11217  0.85104  1.0000
  O   O104      1.0  0.15433  0.88783  0.35104  1.0000
  O   O105      1.0  0.63783  0.09567  0.89896  1.0000
  O   O106      1.0  0.86217  0.90433  0.39896  1.0000
  O   O107      1.0  0.15433  0.38783  0.64896  1.0000
  O   O108      1.0  0.34567  0.61217  0.14896  1.0000
  O   O109      1.0  0.13783  0.59567  0.39896  1.0000
  O   O110      1.0  0.36217  0.40433  0.89896  1.0000
  O   O111      1.0  0.65433  0.88783  0.14896  1.0000
  O   O112      1.0  0.84567  0.11217  0.64896  1.0000
  O   O113      1.0  0.40370  0.89020  0.16630  1.0000
  O   O114      1.0  0.09630  0.10980  0.66630  1.0000
  O   O115      1.0  0.85980  0.65370  0.41630  1.0000
  O   O116      1.0  0.64020  0.34630  0.91630  1.0000
  O   O117      1.0  0.90370  0.39020  0.66630  1.0000
  O   O118      1.0  0.59630  0.60980  0.16630  1.0000
  O   O119      1.0  0.35980  0.15370  0.91630  1.0000
  O   O120      1.0  0.14020  0.84630  0.41630  1.0000
  O   O121      1.0  0.59630  0.10980  0.83370  1.0000
  O   O122      1.0  0.90370  0.89020  0.33370  1.0000
  O   O123      1.0  0.14020  0.34630  0.58370  1.0000
  O   O124      1.0  0.35980  0.65370  0.08370  1.0000
  O   O125      1.0  0.09630  0.60980  0.33370  1.0000
  O   O126      1.0  0.40370  0.39020  0.83370  1.0000
  O   O127      1.0  0.64020  0.84630  0.08370  1.0000
  O   O128      1.0  0.85980  0.15370  0.58370  1.0000
  O   O129      1.0  0.17236  0.66672  0.05366  1.0000
  O   O130      1.0  0.32764  0.33328  0.55366  1.0000
  O   O131      1.0  0.08328  0.42236  0.30366  1.0000
  O   O132      1.0  0.41672  0.57764  0.80366  1.0000
  O   O133      1.0  0.67236  0.16672  0.55366  1.0000
  O   O134      1.0  0.82764  0.83328  0.05366  1.0000
  O   O135      1.0  0.58328  0.92236  0.80366  1.0000
  O   O136      1.0  0.91672  0.07764  0.30366  1.0000
  O   O137      1.0  0.82764  0.33328  0.94634  1.0000
  O   O138      1.0  0.67236  0.66672  0.44634  1.0000
  O   O139      1.0  0.91672  0.57764  0.69634  1.0000
  O   O140      1.0  0.58328  0.42236  0.19634  1.0000
  O   O141      1.0  0.32764  0.83328  0.44634  1.0000
  O   O142      1.0  0.17236  0.16672  0.94634  1.0000
  O   O143      1.0  0.41672  0.07764  0.19634  1.0000
  O   O144      1.0  0.08328  0.92236  0.69634  1.0000
  O   O145      1.0  0.25620  0.65830  0.04570  1.0000
  O   O146      1.0  0.24380  0.34170  0.54570  1.0000
  O   O147      1.0  0.09170  0.50620  0.29570  1.0000
  O   O148      1.0  0.40830  0.49380  0.79570  1.0000
  O   O149      1.0  0.75620  0.15830  0.54570  1.0000
  O   O150      1.0  0.74380  0.84170  0.04570  1.0000
  O   O151      1.0  0.59170  0.00620  0.79570  1.0000
  O   O152      1.0  0.90830  0.99380  0.29570  1.0000
  O   O153      1.0  0.74380  0.34170  0.95430  1.0000
  O   O154      1.0  0.75620  0.65830  0.45430  1.0000
  O   O155      1.0  0.90830  0.49380  0.70430  1.0000
  O   O156      1.0  0.59170  0.50620  0.20430  1.0000
  O   O157      1.0  0.24380  0.84170  0.45430  1.0000
  O   O158      1.0  0.25620  0.15830  0.95430  1.0000
  O   O159      1.0  0.40830  0.99380  0.20430  1.0000
  O   O160      1.0  0.09170  0.00620  0.70430  1.0000
  O   O161      1.0  0.00360  0.61590  0.05002  1.0000
  O   O162      1.0  0.49640  0.38410  0.55002  1.0000
  O   O163      1.0  0.13410  0.25360  0.30002  1.0000
  O   O164      1.0  0.36590  0.74640  0.80002  1.0000
  O   O165      1.0  0.50360  0.11590  0.55002  1.0000
  O   O166      1.0  0.99640  0.88410  0.05002  1.0000
  O   O167      1.0  0.63410  0.75360  0.80002  1.0000
  O   O168      1.0  0.86590  0.24640  0.30002  1.0000
  O   O169      1.0  0.99640  0.38410  0.94998  1.0000
  O   O170      1.0  0.50360  0.61590  0.44998  1.0000
  O   O171      1.0  0.86590  0.74640  0.69998  1.0000
  O   O172      1.0  0.63410  0.25360  0.19998  1.0000
  O   O173      1.0  0.49640  0.88410  0.44998  1.0000
  O   O174      1.0  0.00360  0.11590  0.94998  1.0000
  O   O175      1.0  0.36590  0.24640  0.19998  1.0000
  O   O176      1.0  0.13410  0.75360  0.69998  1.0000
  O   O177      1.0  0.93440  0.56700  0.05620  1.0000
  O   O178      1.0  0.56560  0.43300  0.55620  1.0000
  O   O179      1.0  0.18300  0.18440  0.30620  1.0000
  O   O180      1.0  0.31700  0.81560  0.80620  1.0000
  O   O181      1.0  0.43440  0.06700  0.55620  1.0000
  O   O182      1.0  0.06560  0.93300  0.05620  1.0000
  O   O183      1.0  0.68300  0.68440  0.80620  1.0000
  O   O184      1.0  0.81700  0.31560  0.30620  1.0000
  O   O185      1.0  0.06560  0.43300  0.94380  1.0000
  O   O186      1.0  0.43440  0.56700  0.44380  1.0000
  O   O187      1.0  0.81700  0.81560  0.69380  1.0000
  O   O188      1.0  0.68300  0.18440  0.19380  1.0000
  O   O189      1.0  0.56560  0.93300  0.44380  1.0000
  O   O190      1.0  0.93440  0.06700  0.94380  1.0000
  O   O191      1.0  0.31700  0.31560  0.19380  1.0000
  O   O192      1.0  0.18300  0.68440  0.69380  1.0000
  O   O193      1.0  0.09110  0.61670  0.97558  1.0000
  O   O194      1.0  0.40890  0.38330  0.47558  1.0000
  O   O195      1.0  0.13330  0.34110  0.22558  1.0000
  O   O196      1.0  0.36670  0.65890  0.72558  1.0000
  O   O197      1.0  0.59110  0.11670  0.47558  1.0000
  O   O198      1.0  0.90890  0.88330  0.97558  1.0000
  O   O199      1.0  0.63330  0.84110  0.72558  1.0000
  O   O200      1.0  0.86670  0.15890  0.22558  1.0000
  O   O201      1.0  0.90890  0.38330  0.02442  1.0000
  O   O202      1.0  0.59110  0.61670  0.52442  1.0000
  O   O203      1.0  0.86670  0.65890  0.77442  1.0000
  O   O204      1.0  0.63330  0.34110  0.27442  1.0000
  O   O205      1.0  0.40890  0.88330  0.52442  1.0000
  O   O206      1.0  0.09110  0.11670  0.02442  1.0000
  O   O207      1.0  0.36670  0.15890  0.27442  1.0000
  O   O208      1.0  0.13330  0.84110  0.77442  1.0000
  O   O209      1.0  0.07290  0.64280  0.90430  1.0000
  O   O210      1.0  0.42710  0.35720  0.40430  1.0000
  O   O211      1.0  0.10720  0.32290  0.15430  1.0000
  O   O212      1.0  0.39280  0.67710  0.65430  1.0000
  O   O213      1.0  0.57290  0.14280  0.40430  1.0000
  O   O214      1.0  0.92710  0.85720  0.90430  1.0000
  O   O215      1.0  0.60720  0.82290  0.65430  1.0000
  O   O216      1.0  0.89280  0.17710  0.15430  1.0000
  O   O217      1.0  0.92710  0.35720  0.09570  1.0000
  O   O218      1.0  0.57290  0.64280  0.59570  1.0000
  O   O219      1.0  0.89280  0.67710  0.84570  1.0000
  O   O220      1.0  0.60720  0.32290  0.34570  1.0000
  O   O221      1.0  0.42710  0.85720  0.59570  1.0000
  O   O222      1.0  0.07290  0.14280  0.09570  1.0000
  O   O223      1.0  0.39280  0.17710  0.34570  1.0000
  O   O224      1.0  0.10720  0.82290  0.84570  1.0000
  O   O225      1.0  0.08710  0.62127  0.13561  1.0000
  O   O226      1.0  0.41290  0.37873  0.63561  1.0000
  O   O227      1.0  0.12873  0.33710  0.38561  1.0000
  O   O228      1.0  0.37127  0.66290  0.88561  1.0000
  O   O229      1.0  0.58710  0.12127  0.63561  1.0000
  O   O230      1.0  0.91290  0.87873  0.13561  1.0000
  O   O231      1.0  0.62873  0.83710  0.88561  1.0000
  O   O232      1.0  0.87127  0.16290  0.38561  1.0000
  O   O233      1.0  0.91290  0.37873  0.86439  1.0000
  O   O234      1.0  0.58710  0.62127  0.36439  1.0000
  O   O235      1.0  0.87127  0.66290  0.61439  1.0000
  O   O236      1.0  0.62873  0.33710  0.11439  1.0000
  O   O237      1.0  0.41290  0.87873  0.36439  1.0000
  O   O238      1.0  0.08710  0.12127  0.86439  1.0000
  O   O239      1.0  0.37127  0.16290  0.11439  1.0000
  O   O240      1.0  0.12873  0.83710  0.61439  1.0000
  O   O241      1.0  0.07870  0.65240  0.20655  1.0000
  O   O242      1.0  0.42130  0.34760  0.70655  1.0000
  O   O243      1.0  0.09760  0.32870  0.45655  1.0000
  O   O244      1.0  0.40240  0.67130  0.95655  1.0000
  O   O245      1.0  0.57870  0.15240  0.70655  1.0000
  O   O246      1.0  0.92130  0.84760  0.20655  1.0000
  O   O247      1.0  0.59760  0.82870  0.95655  1.0000
  O   O248      1.0  0.90240  0.17130  0.45655  1.0000
  O   O249      1.0  0.92130  0.34760  0.79345  1.0000
  O   O250      1.0  0.57870  0.65240  0.29345  1.0000
  O   O251      1.0  0.90240  0.67130  0.54345  1.0000
  O   O252      1.0  0.59760  0.32870  0.04345  1.0000
  O   O253      1.0  0.42130  0.84760  0.29345  1.0000
  O   O254      1.0  0.07870  0.15240  0.79345  1.0000
  O   O255      1.0  0.40240  0.17130  0.04345  1.0000
  O   O256      1.0  0.09760  0.82870  0.54345  1.0000
  O   O257      1.0  0.28630  0.67250  0.94031  1.0000
  O   O258      1.0  0.21370  0.32750  0.44031  1.0000
  O   O259      1.0  0.07750  0.53630  0.19031  1.0000
  O   O260      1.0  0.42250  0.46370  0.69031  1.0000
  O   O261      1.0  0.78630  0.17250  0.44031  1.0000
  O   O262      1.0  0.71370  0.82750  0.94031  1.0000
  O   O263      1.0  0.57750  0.03630  0.69031  1.0000
  O   O264      1.0  0.92250  0.96370  0.19031  1.0000
  O   O265      1.0  0.71370  0.32750  0.05969  1.0000
  O   O266      1.0  0.78630  0.67250  0.55969  1.0000
  O   O267      1.0  0.92250  0.46370  0.80969  1.0000
  O   O268      1.0  0.57750  0.53630  0.30969  1.0000
  O   O269      1.0  0.21370  0.82750  0.55969  1.0000
  O   O270      1.0  0.28630  0.17250  0.05969  1.0000
  O   O271      1.0  0.42250  0.96370  0.30969  1.0000
  O   O272      1.0  0.07750  0.03630  0.80969  1.0000
  H   H1        1.0  0.28797  0.64394  0.92050  1.0000
  H   H2        1.0  0.21203  0.35606  0.42050  1.0000
  H   H3        1.0  0.10606  0.53797  0.17050  1.0000
  H   H4        1.0  0.39394  0.46203  0.67050  1.0000
  H   H5        1.0  0.78797  0.14394  0.42050  1.0000
  H   H6        1.0  0.71203  0.85606  0.92050  1.0000
  H   H7        1.0  0.60606  0.03797  0.67050  1.0000
  H   H8        1.0  0.89394  0.96203  0.17050  1.0000
  H   H9        1.0  0.71203  0.35606  0.07950  1.0000
  H   H10       1.0  0.78797  0.64394  0.57950  1.0000
  H   H11       1.0  0.89394  0.46203  0.82950  1.0000
  H   H12       1.0  0.60606  0.53797  0.32950  1.0000
  H   H13       1.0  0.21203  0.85606  0.57950  1.0000
  H   H14       1.0  0.28797  0.14394  0.07950  1.0000
  H   H15       1.0  0.39394  0.96203  0.32950  1.0000
  H   H16       1.0  0.10606  0.03797  0.82950  1.0000
  N   N1        1.0  0.27760  0.86890  0.02374  1.0000
  N   N2        1.0  0.22240  0.13110  0.52374  1.0000
  N   N3        1.0  0.88110  0.52760  0.27374  1.0000
  N   N4        1.0  0.61890  0.47240  0.77374  1.0000
  N   N5        1.0  0.77760  0.36890  0.52374  1.0000
  N   N6        1.0  0.72240  0.63110  0.02374  1.0000
  N   N7        1.0  0.38110  0.02760  0.77374  1.0000
  N   N8        1.0  0.11890  0.97240  0.27374  1.0000
  N   N9        1.0  0.72240  0.13110  0.97626  1.0000
  N   N10       1.0  0.77760  0.86890  0.47626  1.0000
  N   N11       1.0  0.11890  0.47240  0.72626  1.0000
  N   N12       1.0  0.38110  0.52760  0.22626  1.0000
  N   N13       1.0  0.22240  0.63110  0.47626  1.0000
  N   N14       1.0  0.27760  0.36890  0.97626  1.0000
  N   N15       1.0  0.61890  0.97240  0.22626  1.0000
  N   N16       1.0  0.88110  0.02760  0.72626  1.0000
  N   N17       1.0  0.27750  0.96780  0.02994  1.0000
  N   N18       1.0  0.22250  0.03220  0.52994  1.0000
  N   N19       1.0  0.78220  0.52750  0.27994  1.0000
  N   N20       1.0  0.71780  0.47250  0.77994  1.0000
  N   N21       1.0  0.77750  0.46780  0.52994  1.0000
  N   N22       1.0  0.72250  0.53220  0.02994  1.0000
  N   N23       1.0  0.28220  0.02750  0.77994  1.0000
  N   N24       1.0  0.21780  0.97250  0.27994  1.0000
  N   N25       1.0  0.72250  0.03220  0.97006  1.0000
  N   N26       1.0  0.77750  0.96780  0.47006  1.0000
  N   N27       1.0  0.21780  0.47250  0.72006  1.0000
  N   N28       1.0  0.28220  0.52750  0.22006  1.0000
  N   N29       1.0  0.22250  0.53220  0.47006  1.0000
  N   N30       1.0  0.27750  0.46780  0.97006  1.0000
  N   N31       1.0  0.71780  0.97250  0.22006  1.0000
  N   N32       1.0  0.78220  0.02750  0.72006  1.0000
  N   N33       1.0  0.44745  0.91778  0.05467  1.0000
  N   N34       1.0  0.05255  0.08222  0.55467  1.0000
  N   N35       1.0  0.83222  0.69745  0.30467  1.0000
  N   N36       1.0  0.66778  0.30255  0.80467  1.0000
  N   N37       1.0  0.94745  0.41778  0.55467  1.0000
  N   N38       1.0  0.55255  0.58222  0.05467  1.0000
  N   N39       1.0  0.33222  0.19745  0.80467  1.0000
  N   N40       1.0  0.16778  0.80255  0.30467  1.0000
  N   N41       1.0  0.55255  0.08222  0.94533  1.0000
  N   N42       1.0  0.94745  0.91778  0.44533  1.0000
  N   N43       1.0  0.16778  0.30255  0.69533  1.0000
  N   N44       1.0  0.33222  0.69745  0.19533  1.0000
  N   N45       1.0  0.05255  0.58222  0.44533  1.0000
  N   N46       1.0  0.44745  0.41778  0.94533  1.0000
  N   N47       1.0  0.66778  0.80255  0.19533  1.0000
  N   N48       1.0  0.83222  0.19745  0.69533  1.0000
  N   N49       1.0  0.43290  0.93160  0.96690  1.0000
  N   N50       1.0  0.06710  0.06840  0.46690  1.0000
  N   N51       1.0  0.81840  0.68290  0.21690  1.0000
  N   N52       1.0  0.68160  0.31710  0.71690  1.0000
  N   N53       1.0  0.93290  0.43160  0.46690  1.0000
  N   N54       1.0  0.56710  0.56840  0.96690  1.0000
  N   N55       1.0  0.31840  0.18290  0.71690  1.0000
  N   N56       1.0  0.18160  0.81710  0.21690  1.0000
  N   N57       1.0  0.56710  0.06840  0.03310  1.0000
  N   N58       1.0  0.93290  0.93160  0.53310  1.0000
  N   N59       1.0  0.18160  0.31710  0.78310  1.0000
  N   N60       1.0  0.31840  0.68290  0.28310  1.0000
  N   N61       1.0  0.06710  0.56840  0.53310  1.0000
  N   N62       1.0  0.43290  0.43160  0.03310  1.0000
  N   N63       1.0  0.68160  0.81710  0.28310  1.0000
  N   N64       1.0  0.81840  0.18290  0.78310  1.0000
  N   N65       1.0  0.16100  0.56690  0.06370  1.0000
  N   N66       1.0  0.33900  0.43310  0.56370  1.0000
  N   N67       1.0  0.18310  0.41100  0.31370  1.0000
  N   N68       1.0  0.31690  0.58900  0.81370  1.0000
  N   N69       1.0  0.66100  0.06690  0.56370  1.0000
  N   N70       1.0  0.83900  0.93310  0.06370  1.0000
  N   N71       1.0  0.68310  0.91100  0.81370  1.0000
  N   N72       1.0  0.81690  0.08900  0.31370  1.0000
  N   N73       1.0  0.83900  0.43310  0.93630  1.0000
  N   N74       1.0  0.66100  0.56690  0.43630  1.0000
  N   N75       1.0  0.81690  0.58900  0.68630  1.0000
  N   N76       1.0  0.68310  0.41100  0.18630  1.0000
  N   N77       1.0  0.33900  0.93310  0.43630  1.0000
  N   N78       1.0  0.16100  0.06690  0.93630  1.0000
  N   N79       1.0  0.31690  0.08900  0.18630  1.0000
  N   N80       1.0  0.18310  0.91100  0.68630  1.0000
  N   N81       1.0  0.06530  0.53850  0.06040  1.0000
  N   N82       1.0  0.43470  0.46150  0.56040  1.0000
  N   N83       1.0  0.21150  0.31530  0.31040  1.0000
  N   N84       1.0  0.28850  0.68470  0.81040  1.0000
  N   N85       1.0  0.56530  0.03850  0.56040  1.0000
  N   N86       1.0  0.93470  0.96150  0.06040  1.0000
  N   N87       1.0  0.71150  0.81530  0.81040  1.0000
  N   N88       1.0  0.78850  0.18470  0.31040  1.0000
  N   N89       1.0  0.93470  0.46150  0.93960  1.0000
  N   N90       1.0  0.56530  0.53850  0.43960  1.0000
  N   N91       1.0  0.78850  0.68470  0.68960  1.0000
  N   N92       1.0  0.71150  0.31530  0.18960  1.0000
  N   N93       1.0  0.43470  0.96150  0.43960  1.0000
  N   N94       1.0  0.06530  0.03850  0.93960  1.0000
  N   N95       1.0  0.28850  0.18470  0.18960  1.0000
  N   N96       1.0  0.21150  0.81530  0.68960  1.0000
  N   N97       1.0  0.07340  0.70900  0.00870  1.0000
  N   N98       1.0  0.42660  0.29100  0.50870  1.0000
  N   N99       1.0  0.04100  0.32340  0.25870  1.0000
  N   N100      1.0  0.45900  0.67660  0.75870  1.0000
  N   N101      1.0  0.57340  0.20900  0.50870  1.0000
  N   N102      1.0  0.92660  0.79100  0.00870  1.0000
  N   N103      1.0  0.54100  0.82340  0.75870  1.0000
  N   N104      1.0  0.95900  0.17660  0.25870  1.0000
  N   N105      1.0  0.92660  0.29100  0.99130  1.0000
  N   N106      1.0  0.57340  0.70900  0.49130  1.0000
  N   N107      1.0  0.95900  0.67660  0.74130  1.0000
  N   N108      1.0  0.54100  0.32340  0.24130  1.0000
  N   N109      1.0  0.42660  0.79100  0.49130  1.0000
  N   N110      1.0  0.07340  0.20900  0.99130  1.0000
  N   N111      1.0  0.45900  0.17660  0.24130  1.0000
  N   N112      1.0  0.04100  0.82340  0.74130  1.0000
  N   N113      1.0  0.07335  0.71160  0.09870  1.0000
  N   N114      1.0  0.42665  0.28840  0.59870  1.0000
  N   N115      1.0  0.03840  0.32335  0.34870  1.0000
  N   N116      1.0  0.46160  0.67665  0.84870  1.0000
  N   N117      1.0  0.57335  0.21160  0.59870  1.0000
  N   N118      1.0  0.92665  0.78840  0.09870  1.0000
  N   N119      1.0  0.53840  0.82335  0.84870  1.0000
  N   N120      1.0  0.96160  0.17665  0.34870  1.0000
  N   N121      1.0  0.92665  0.28840  0.90130  1.0000
  N   N122      1.0  0.57335  0.71160  0.40130  1.0000
  N   N123      1.0  0.96160  0.67665  0.65130  1.0000
  N   N124      1.0  0.53840  0.32335  0.15130  1.0000
  N   N125      1.0  0.42665  0.78840  0.40130  1.0000
  N   N126      1.0  0.07335  0.21160  0.90130  1.0000
  N   N127      1.0  0.46160  0.17665  0.15130  1.0000
  N   N128      1.0  0.03840  0.82335  0.65130  1.0000
  C   C1        1.0  0.28180  0.81850  0.01920  1.0000
  C   C2        1.0  0.21820  0.18150  0.51920  1.0000
  C   C3        1.0  0.93150  0.53180  0.26920  1.0000
  C   C4        1.0  0.56850  0.46820  0.76920  1.0000
  C   C5        1.0  0.78180  0.31850  0.51920  1.0000
  C   C6        1.0  0.71820  0.68150  0.01920  1.0000
  C   C7        1.0  0.43150  0.03180  0.76920  1.0000
  C   C8        1.0  0.06850  0.96820  0.26920  1.0000
  C   C9        1.0  0.71820  0.18150  0.98080  1.0000
  C   C10       1.0  0.78180  0.81850  0.48080  1.0000
  C   C11       1.0  0.06850  0.46820  0.73080  1.0000
  C   C12       1.0  0.43150  0.53180  0.23080  1.0000
  C   C13       1.0  0.21820  0.68150  0.48080  1.0000
  C   C14       1.0  0.28180  0.31850  0.98080  1.0000
  C   C15       1.0  0.56850  0.96820  0.23080  1.0000
  C   C16       1.0  0.93150  0.03180  0.73080  1.0000
  C   C17       1.0  0.23920  0.78640  0.01890  1.0000
  C   C18       1.0  0.26080  0.21360  0.51890  1.0000
  C   C19       1.0  0.96360  0.48920  0.26890  1.0000
  C   C20       1.0  0.53640  0.51080  0.76890  1.0000
  C   C21       1.0  0.73920  0.28640  0.51890  1.0000
  C   C22       1.0  0.76080  0.71360  0.01890  1.0000
  C   C23       1.0  0.46360  0.98920  0.76890  1.0000
  C   C24       1.0  0.03640  0.01080  0.26890  1.0000
  C   C25       1.0  0.76080  0.21360  0.98110  1.0000
  C   C26       1.0  0.73920  0.78640  0.48110  1.0000
  C   C27       1.0  0.03640  0.51080  0.73110  1.0000
  C   C28       1.0  0.46360  0.48920  0.23110  1.0000
  C   C29       1.0  0.26080  0.71360  0.48110  1.0000
  C   C30       1.0  0.23920  0.28640  0.98110  1.0000
  C   C31       1.0  0.53640  0.01080  0.23110  1.0000
  C   C32       1.0  0.96360  0.98920  0.73110  1.0000
  H   H17       1.0  0.24279  0.75056  0.01748  1.0000
  H   H18       1.0  0.25721  0.24944  0.51748  1.0000
  H   H19       1.0  0.99944  0.49279  0.26748  1.0000
  H   H20       1.0  0.50056  0.50721  0.76748  1.0000
  H   H21       1.0  0.74279  0.25056  0.51748  1.0000
  H   H22       1.0  0.75721  0.74944  0.01748  1.0000
  H   H23       1.0  0.49944  0.99279  0.76748  1.0000
  H   H24       1.0  0.00056  0.00721  0.26748  1.0000
  H   H25       1.0  0.75721  0.24944  0.98252  1.0000
  H   H26       1.0  0.74279  0.75056  0.48252  1.0000
  H   H27       1.0  0.00056  0.50721  0.73252  1.0000
  H   H28       1.0  0.49944  0.49279  0.23252  1.0000
  H   H29       1.0  0.25721  0.74944  0.48252  1.0000
  H   H30       1.0  0.24279  0.25056  0.98252  1.0000
  H   H31       1.0  0.50056  0.00721  0.23252  1.0000
  H   H32       1.0  0.99944  0.99279  0.73252  1.0000
  C   C33       1.0  0.19200  0.80910  0.02090  1.0000
  C   C34       1.0  0.30800  0.19090  0.52090  1.0000
  C   C35       1.0  0.94090  0.44200  0.27090  1.0000
  C   C36       1.0  0.55910  0.55800  0.77090  1.0000
  C   C37       1.0  0.69200  0.30910  0.52090  1.0000
  C   C38       1.0  0.80800  0.69090  0.02090  1.0000
  C   C39       1.0  0.44090  0.94200  0.77090  1.0000
  C   C40       1.0  0.05910  0.05800  0.27090  1.0000
  C   C41       1.0  0.80800  0.19090  0.97910  1.0000
  C   C42       1.0  0.69200  0.80910  0.47910  1.0000
  C   C43       1.0  0.05910  0.55800  0.72910  1.0000
  C   C44       1.0  0.44090  0.44200  0.22910  1.0000
  C   C45       1.0  0.30800  0.69090  0.47910  1.0000
  C   C46       1.0  0.19200  0.30910  0.97910  1.0000
  C   C47       1.0  0.55910  0.05800  0.22910  1.0000
  C   C48       1.0  0.94090  0.94200  0.72910  1.0000
  H   H33       1.0  0.16238  0.78863  0.01952  1.0000
  H   H34       1.0  0.33762  0.21137  0.51952  1.0000
  H   H35       1.0  0.96137  0.41238  0.26952  1.0000
  H   H36       1.0  0.53863  0.58762  0.76952  1.0000
  H   H37       1.0  0.66238  0.28863  0.51952  1.0000
  H   H38       1.0  0.83762  0.71137  0.01952  1.0000
  H   H39       1.0  0.46137  0.91238  0.76952  1.0000
  H   H40       1.0  0.03863  0.08762  0.26952  1.0000
  H   H41       1.0  0.83762  0.21137  0.98048  1.0000
  H   H42       1.0  0.66238  0.78863  0.48048  1.0000
  H   H43       1.0  0.03863  0.58762  0.73048  1.0000
  H   H44       1.0  0.46137  0.41238  0.23048  1.0000
  H   H45       1.0  0.33762  0.71137  0.48048  1.0000
  H   H46       1.0  0.16238  0.28863  0.98048  1.0000
  H   H47       1.0  0.53863  0.08762  0.23048  1.0000
  H   H48       1.0  0.96137  0.91238  0.73048  1.0000
  C   C49       1.0  0.18740  0.86080  0.02490  1.0000
  C   C50       1.0  0.31260  0.13920  0.52490  1.0000
  C   C51       1.0  0.88920  0.43740  0.27490  1.0000
  C   C52       1.0  0.61080  0.56260  0.77490  1.0000
  C   C53       1.0  0.68740  0.36080  0.52490  1.0000
  C   C54       1.0  0.81260  0.63920  0.02490  1.0000
  C   C55       1.0  0.38920  0.93740  0.77490  1.0000
  C   C56       1.0  0.11080  0.06260  0.27490  1.0000
  C   C57       1.0  0.81260  0.13920  0.97510  1.0000
  C   C58       1.0  0.68740  0.86080  0.47510  1.0000
  C   C59       1.0  0.11080  0.56260  0.72510  1.0000
  C   C60       1.0  0.38920  0.43740  0.22510  1.0000
  C   C61       1.0  0.31260  0.63920  0.47510  1.0000
  C   C62       1.0  0.18740  0.36080  0.97510  1.0000
  C   C63       1.0  0.61080  0.06260  0.22510  1.0000
  C   C64       1.0  0.88920  0.93740  0.72510  1.0000
  H   H49       1.0  0.15483  0.87623  0.02626  1.0000
  H   H50       1.0  0.34517  0.12377  0.52626  1.0000
  H   H51       1.0  0.87377  0.40483  0.27626  1.0000
  H   H52       1.0  0.62623  0.59517  0.77626  1.0000
  H   H53       1.0  0.65483  0.37623  0.52626  1.0000
  H   H54       1.0  0.84517  0.62377  0.02626  1.0000
  H   H55       1.0  0.37377  0.90483  0.77626  1.0000
  H   H56       1.0  0.12623  0.09517  0.27626  1.0000
  H   H57       1.0  0.84517  0.12377  0.97374  1.0000
  H   H58       1.0  0.65483  0.87623  0.47374  1.0000
  H   H59       1.0  0.12623  0.59517  0.72374  1.0000
  H   H60       1.0  0.37377  0.40483  0.22374  1.0000
  H   H61       1.0  0.34517  0.62377  0.47374  1.0000
  H   H62       1.0  0.15483  0.37623  0.97374  1.0000
  H   H63       1.0  0.62623  0.09517  0.22374  1.0000
  H   H64       1.0  0.87377  0.90483  0.72374  1.0000
  C   C65       1.0  0.23130  0.89030  0.02690  1.0000
  C   C66       1.0  0.26870  0.10970  0.52690  1.0000
  C   C67       1.0  0.85970  0.48130  0.27690  1.0000
  C   C68       1.0  0.64030  0.51870  0.77690  1.0000
  C   C69       1.0  0.73130  0.39030  0.52690  1.0000
  C   C70       1.0  0.76870  0.60970  0.02690  1.0000
  C   C71       1.0  0.35970  0.98130  0.77690  1.0000
  C   C72       1.0  0.14030  0.01870  0.27690  1.0000
  C   C73       1.0  0.76870  0.10970  0.97310  1.0000
  C   C74       1.0  0.73130  0.89030  0.47310  1.0000
  C   C75       1.0  0.14030  0.51870  0.72310  1.0000
  C   C76       1.0  0.35970  0.48130  0.22310  1.0000
  C   C77       1.0  0.26870  0.60970  0.47310  1.0000
  C   C78       1.0  0.23130  0.39030  0.97310  1.0000
  C   C79       1.0  0.64030  0.01870  0.22310  1.0000
  C   C80       1.0  0.85970  0.98130  0.72310  1.0000
  C   C81       1.0  0.23140  0.94630  0.03290  1.0000
  C   C82       1.0  0.26860  0.05370  0.53290  1.0000
  C   C83       1.0  0.80370  0.48140  0.28290  1.0000
  C   C84       1.0  0.69630  0.51860  0.78290  1.0000
  C   C85       1.0  0.73140  0.44630  0.53290  1.0000
  C   C86       1.0  0.76860  0.55370  0.03290  1.0000
  C   C87       1.0  0.30370  0.98140  0.78290  1.0000
  C   C88       1.0  0.19630  0.01860  0.28290  1.0000
  C   C89       1.0  0.76860  0.05370  0.96710  1.0000
  C   C90       1.0  0.73140  0.94630  0.46710  1.0000
  C   C91       1.0  0.19630  0.51860  0.71710  1.0000
  C   C92       1.0  0.30370  0.48140  0.21710  1.0000
  C   C93       1.0  0.26860  0.55370  0.46710  1.0000
  C   C94       1.0  0.23140  0.44630  0.96710  1.0000
  C   C95       1.0  0.69630  0.01860  0.21710  1.0000
  C   C96       1.0  0.80370  0.98140  0.71710  1.0000
  C   C97       1.0  0.18800  0.97470  0.04060  1.0000
  C   C98       1.0  0.31200  0.02530  0.54060  1.0000
  C   C99       1.0  0.77530  0.43800  0.29060  1.0000
  C   C100      1.0  0.72470  0.56200  0.79060  1.0000
  C   C101      1.0  0.68800  0.47470  0.54060  1.0000
  C   C102      1.0  0.81200  0.52530  0.04060  1.0000
  C   C103      1.0  0.27530  0.93800  0.79060  1.0000
  C   C104      1.0  0.22470  0.06200  0.29060  1.0000
  C   C105      1.0  0.81200  0.02530  0.95940  1.0000
  C   C106      1.0  0.68800  0.97470  0.45940  1.0000
  C   C107      1.0  0.22470  0.56200  0.70940  1.0000
  C   C108      1.0  0.27530  0.43800  0.20940  1.0000
  C   C109      1.0  0.31200  0.52530  0.45940  1.0000
  C   C110      1.0  0.18800  0.47470  0.95940  1.0000
  C   C111      1.0  0.72470  0.06200  0.20940  1.0000
  C   C112      1.0  0.77530  0.93800  0.70940  1.0000
  H   H65       1.0  0.15577  0.95876  0.04328  1.0000
  H   H66       1.0  0.34423  0.04124  0.54328  1.0000
  H   H67       1.0  0.79124  0.40577  0.29328  1.0000
  H   H68       1.0  0.70876  0.59423  0.79328  1.0000
  H   H69       1.0  0.65577  0.45876  0.54328  1.0000
  H   H70       1.0  0.84423  0.54124  0.04328  1.0000
  H   H71       1.0  0.29124  0.90577  0.79328  1.0000
  H   H72       1.0  0.20876  0.09423  0.29328  1.0000
  H   H73       1.0  0.84423  0.04124  0.95672  1.0000
  H   H74       1.0  0.65577  0.95876  0.45672  1.0000
  H   H75       1.0  0.20876  0.59423  0.70672  1.0000
  H   H76       1.0  0.29124  0.40577  0.20672  1.0000
  H   H77       1.0  0.34423  0.54124  0.45672  1.0000
  H   H78       1.0  0.15577  0.45876  0.95672  1.0000
  H   H79       1.0  0.70876  0.09423  0.20672  1.0000
  H   H80       1.0  0.79124  0.90577  0.70672  1.0000
  C   C113      1.0  0.19270  0.02730  0.04440  1.0000
  C   C114      1.0  0.30730  0.97270  0.54440  1.0000
  C   C115      1.0  0.72270  0.44270  0.29440  1.0000
  C   C116      1.0  0.77730  0.55730  0.79440  1.0000
  C   C117      1.0  0.69270  0.52730  0.54440  1.0000
  C   C118      1.0  0.80730  0.47270  0.04440  1.0000
  C   C119      1.0  0.22270  0.94270  0.79440  1.0000
  C   C120      1.0  0.27730  0.05730  0.29440  1.0000
  C   C121      1.0  0.80730  0.97270  0.95560  1.0000
  C   C122      1.0  0.69270  0.02730  0.45560  1.0000
  C   C123      1.0  0.27730  0.55730  0.70560  1.0000
  C   C124      1.0  0.22270  0.44270  0.20560  1.0000
  C   C125      1.0  0.30730  0.47270  0.45560  1.0000
  C   C126      1.0  0.19270  0.52730  0.95560  1.0000
  C   C127      1.0  0.77730  0.05730  0.20560  1.0000
  C   C128      1.0  0.72270  0.94270  0.70560  1.0000
  H   H81       1.0  0.16362  0.04756  0.05047  1.0000
  H   H82       1.0  0.33638  0.95244  0.55047  1.0000
  H   H83       1.0  0.70244  0.41362  0.30047  1.0000
  H   H84       1.0  0.79756  0.58638  0.80047  1.0000
  H   H85       1.0  0.66362  0.54756  0.55047  1.0000
  H   H86       1.0  0.83638  0.45244  0.05047  1.0000
  H   H87       1.0  0.20244  0.91362  0.80047  1.0000
  H   H88       1.0  0.29756  0.08638  0.30047  1.0000
  H   H89       1.0  0.83638  0.95244  0.94953  1.0000
  H   H90       1.0  0.66362  0.04756  0.44953  1.0000
  H   H91       1.0  0.29756  0.58638  0.69953  1.0000
  H   H92       1.0  0.20244  0.41362  0.19953  1.0000
  H   H93       1.0  0.33638  0.45244  0.44953  1.0000
  H   H94       1.0  0.16362  0.54756  0.94953  1.0000
  H   H95       1.0  0.79756  0.08638  0.19953  1.0000
  H   H96       1.0  0.70244  0.91362  0.69953  1.0000
  C   C129      1.0  0.23990  0.04980  0.03940  1.0000
  C   C130      1.0  0.26010  0.95020  0.53940  1.0000
  C   C131      1.0  0.70020  0.48990  0.28940  1.0000
  C   C132      1.0  0.79980  0.51010  0.78940  1.0000
  C   C133      1.0  0.73990  0.54980  0.53940  1.0000
  C   C134      1.0  0.76010  0.45020  0.03940  1.0000
  C   C135      1.0  0.20020  0.98990  0.78940  1.0000
  C   C136      1.0  0.29980  0.01010  0.28940  1.0000
  C   C137      1.0  0.76010  0.95020  0.96060  1.0000
  C   C138      1.0  0.73990  0.04980  0.46060  1.0000
  C   C139      1.0  0.29980  0.51010  0.71060  1.0000
  C   C140      1.0  0.20020  0.48990  0.21060  1.0000
  C   C141      1.0  0.26010  0.45020  0.46060  1.0000
  C   C142      1.0  0.23990  0.54980  0.96060  1.0000
  C   C143      1.0  0.79980  0.01010  0.21060  1.0000
  C   C144      1.0  0.70020  0.98990  0.71060  1.0000
  H   H97       1.0  0.24369  0.08566  0.04091  1.0000
  H   H98       1.0  0.25631  0.91434  0.54091  1.0000
  H   H99       1.0  0.66434  0.49369  0.29091  1.0000
  H   H100      1.0  0.83566  0.50631  0.79091  1.0000
  H   H101      1.0  0.74369  0.58566  0.54091  1.0000
  H   H102      1.0  0.75631  0.41434  0.04091  1.0000
  H   H103      1.0  0.16434  0.99369  0.79091  1.0000
  H   H104      1.0  0.33566  0.00631  0.29091  1.0000
  H   H105      1.0  0.75631  0.91434  0.95909  1.0000
  H   H106      1.0  0.74369  0.08566  0.45909  1.0000
  H   H107      1.0  0.33566  0.50631  0.70909  1.0000
  H   H108      1.0  0.16434  0.49369  0.20909  1.0000
  H   H109      1.0  0.25631  0.41434  0.45909  1.0000
  H   H110      1.0  0.24369  0.58566  0.95909  1.0000
  H   H111      1.0  0.83566  0.00631  0.20909  1.0000
  H   H112      1.0  0.66434  0.99369  0.70909  1.0000
  C   C145      1.0  0.28110  0.01870  0.03210  1.0000
  C   C146      1.0  0.21890  0.98130  0.53210  1.0000
  C   C147      1.0  0.73130  0.53110  0.28210  1.0000
  C   C148      1.0  0.76870  0.46890  0.78210  1.0000
  C   C149      1.0  0.78110  0.51870  0.53210  1.0000
  C   C150      1.0  0.71890  0.48130  0.03210  1.0000
  C   C151      1.0  0.23130  0.03110  0.78210  1.0000
  C   C152      1.0  0.26870  0.96890  0.28210  1.0000
  C   C153      1.0  0.71890  0.98130  0.96790  1.0000
  C   C154      1.0  0.78110  0.01870  0.46790  1.0000
  C   C155      1.0  0.26870  0.46890  0.71790  1.0000
  C   C156      1.0  0.23130  0.53110  0.21790  1.0000
  C   C157      1.0  0.21890  0.48130  0.46790  1.0000
  C   C158      1.0  0.28110  0.51870  0.96790  1.0000
  C   C159      1.0  0.76870  0.96890  0.21790  1.0000
  C   C160      1.0  0.73130  0.03110  0.71790  1.0000
  C   C161      1.0  0.33510  0.79860  0.01390  1.0000
  C   C162      1.0  0.16490  0.20140  0.51390  1.0000
  C   C163      1.0  0.95140  0.58510  0.26390  1.0000
  C   C164      1.0  0.54860  0.41490  0.76390  1.0000
  C   C165      1.0  0.83510  0.29860  0.51390  1.0000
  C   C166      1.0  0.66490  0.70140  0.01390  1.0000
  C   C167      1.0  0.45140  0.08510  0.76390  1.0000
  C   C168      1.0  0.04860  0.91490  0.26390  1.0000
  C   C169      1.0  0.66490  0.20140  0.98610  1.0000
  C   C170      1.0  0.83510  0.79860  0.48610  1.0000
  C   C171      1.0  0.04860  0.41490  0.73610  1.0000
  C   C172      1.0  0.45140  0.58510  0.23610  1.0000
  C   C173      1.0  0.16490  0.70140  0.48610  1.0000
  C   C174      1.0  0.33510  0.29860  0.98610  1.0000
  C   C175      1.0  0.54860  0.91490  0.23610  1.0000
  C   C176      1.0  0.95140  0.08510  0.73610  1.0000
  C   C177      1.0  0.33420  0.03790  0.02290  1.0000
  C   C178      1.0  0.16580  0.96210  0.52290  1.0000
  C   C179      1.0  0.71210  0.58420  0.27290  1.0000
  C   C180      1.0  0.78790  0.41580  0.77290  1.0000
  C   C181      1.0  0.83420  0.53790  0.52290  1.0000
  C   C182      1.0  0.66580  0.46210  0.02290  1.0000
  C   C183      1.0  0.21210  0.08420  0.77290  1.0000
  C   C184      1.0  0.28790  0.91580  0.27290  1.0000
  C   C185      1.0  0.66580  0.96210  0.97710  1.0000
  C   C186      1.0  0.83420  0.03790  0.47710  1.0000
  C   C187      1.0  0.28790  0.41580  0.72710  1.0000
  C   C188      1.0  0.21210  0.58420  0.22710  1.0000
  C   C189      1.0  0.16580  0.46210  0.47710  1.0000
  C   C190      1.0  0.33420  0.53790  0.97710  1.0000
  C   C191      1.0  0.78790  0.91580  0.22710  1.0000
  C   C192      1.0  0.71210  0.08420  0.72710  1.0000
  C   C193      1.0  0.45230  0.90940  0.09980  1.0000
  C   C194      1.0  0.04770  0.09060  0.59980  1.0000
  C   C195      1.0  0.84060  0.70230  0.34980  1.0000
  C   C196      1.0  0.65940  0.29770  0.84980  1.0000
  C   C197      1.0  0.95230  0.40940  0.59980  1.0000
  C   C198      1.0  0.54770  0.59060  0.09980  1.0000
  C   C199      1.0  0.34060  0.20230  0.84980  1.0000
  C   C200      1.0  0.15940  0.79770  0.34980  1.0000
  C   C201      1.0  0.54770  0.09060  0.90020  1.0000
  C   C202      1.0  0.95230  0.90940  0.40020  1.0000
  C   C203      1.0  0.15940  0.29770  0.65020  1.0000
  C   C204      1.0  0.34060  0.70230  0.15020  1.0000
  C   C205      1.0  0.04770  0.59060  0.40020  1.0000
  C   C206      1.0  0.45230  0.40940  0.90020  1.0000
  C   C207      1.0  0.65940  0.79770  0.15020  1.0000
  C   C208      1.0  0.84060  0.20230  0.65020  1.0000
  C   C209      1.0  0.49830  0.90840  0.12190  1.0000
  C   C210      1.0  0.00170  0.09160  0.62190  1.0000
  C   C211      1.0  0.84160  0.74830  0.37190  1.0000
  C   C212      1.0  0.65840  0.25170  0.87190  1.0000
  C   C213      1.0  0.99830  0.40840  0.62190  1.0000
  C   C214      1.0  0.50170  0.59160  0.12190  1.0000
  C   C215      1.0  0.34160  0.24830  0.87190  1.0000
  C   C216      1.0  0.15840  0.75170  0.37190  1.0000
  C   C217      1.0  0.50170  0.09160  0.87810  1.0000
  C   C218      1.0  0.99830  0.90840  0.37810  1.0000
  C   C219      1.0  0.15840  0.25170  0.62810  1.0000
  C   C220      1.0  0.34160  0.74830  0.12810  1.0000
  C   C221      1.0  0.00170  0.59160  0.37810  1.0000
  C   C222      1.0  0.49830  0.40840  0.87810  1.0000
  C   C223      1.0  0.65840  0.75170  0.12810  1.0000
  C   C224      1.0  0.84160  0.24830  0.62810  1.0000
  H   H113      1.0  0.50025  0.90187  0.15381  1.0000
  H   H114      1.0  0.99975  0.09813  0.65381  1.0000
  H   H115      1.0  0.84813  0.75025  0.40381  1.0000
  H   H116      1.0  0.65187  0.24975  0.90381  1.0000
  H   H117      1.0  0.00025  0.40187  0.65381  1.0000
  H   H118      1.0  0.49975  0.59813  0.15381  1.0000
  H   H119      1.0  0.34813  0.25025  0.90381  1.0000
  H   H120      1.0  0.15187  0.74975  0.40381  1.0000
  H   H121      1.0  0.49975  0.09813  0.84619  1.0000
  H   H122      1.0  0.00025  0.90187  0.34619  1.0000
  H   H123      1.0  0.15187  0.24975  0.59619  1.0000
  H   H124      1.0  0.34813  0.75025  0.09619  1.0000
  H   H125      1.0  0.99975  0.59813  0.34619  1.0000
  H   H126      1.0  0.50025  0.40187  0.84619  1.0000
  H   H127      1.0  0.65187  0.74975  0.09619  1.0000
  H   H128      1.0  0.84813  0.25025  0.59619  1.0000
  C   C225      1.0  0.54180  0.91690  0.09660  1.0000
  C   C226      1.0  0.95820  0.08310  0.59660  1.0000
  C   C227      1.0  0.83310  0.79180  0.34660  1.0000
  C   C228      1.0  0.66690  0.20820  0.84660  1.0000
  C   C229      1.0  0.04180  0.41690  0.59660  1.0000
  C   C230      1.0  0.45820  0.58310  0.09660  1.0000
  C   C231      1.0  0.33310  0.29180  0.84660  1.0000
  C   C232      1.0  0.16690  0.70820  0.34660  1.0000
  C   C233      1.0  0.45820  0.08310  0.90340  1.0000
  C   C234      1.0  0.04180  0.91690  0.40340  1.0000
  C   C235      1.0  0.16690  0.20820  0.65340  1.0000
  C   C236      1.0  0.33310  0.79180  0.15340  1.0000
  C   C237      1.0  0.95820  0.58310  0.40340  1.0000
  C   C238      1.0  0.54180  0.41690  0.90340  1.0000
  C   C239      1.0  0.66690  0.70820  0.15340  1.0000
  C   C240      1.0  0.83310  0.29180  0.65340  1.0000
  H   H129      1.0  0.57402  0.91677  0.11113  1.0000
  H   H130      1.0  0.92598  0.08323  0.61113  1.0000
  H   H131      1.0  0.83323  0.82402  0.36113  1.0000
  H   H132      1.0  0.66677  0.17598  0.86113  1.0000
  H   H133      1.0  0.07402  0.41677  0.61113  1.0000
  H   H134      1.0  0.42598  0.58323  0.11113  1.0000
  H   H135      1.0  0.33323  0.32402  0.86113  1.0000
  H   H136      1.0  0.16677  0.67598  0.36113  1.0000
  H   H137      1.0  0.42598  0.08323  0.88887  1.0000
  H   H138      1.0  0.07402  0.91677  0.38887  1.0000
  H   H139      1.0  0.16677  0.17598  0.63887  1.0000
  H   H140      1.0  0.33323  0.82402  0.13887  1.0000
  H   H141      1.0  0.92598  0.58323  0.38887  1.0000
  H   H142      1.0  0.57402  0.41677  0.88887  1.0000
  H   H143      1.0  0.66677  0.67598  0.13887  1.0000
  H   H144      1.0  0.83323  0.32402  0.63887  1.0000
  C   C241      1.0  0.53830  0.92570  0.05010  1.0000
  C   C242      1.0  0.96170  0.07430  0.55010  1.0000
  C   C243      1.0  0.82430  0.78830  0.30010  1.0000
  C   C244      1.0  0.67570  0.21170  0.80010  1.0000
  C   C245      1.0  0.03830  0.42570  0.55010  1.0000
  C   C246      1.0  0.46170  0.57430  0.05010  1.0000
  C   C247      1.0  0.32430  0.28830  0.80010  1.0000
  C   C248      1.0  0.17570  0.71170  0.30010  1.0000
  C   C249      1.0  0.46170  0.07430  0.94990  1.0000
  C   C250      1.0  0.03830  0.92570  0.44990  1.0000
  C   C251      1.0  0.17570  0.21170  0.69990  1.0000
  C   C252      1.0  0.32430  0.78830  0.19990  1.0000
  C   C253      1.0  0.96170  0.57430  0.44990  1.0000
  C   C254      1.0  0.53830  0.42570  0.94990  1.0000
  C   C255      1.0  0.67570  0.71170  0.19990  1.0000
  C   C256      1.0  0.82430  0.28830  0.69990  1.0000
  H   H145      1.0  0.56791  0.93139  0.03216  1.0000
  H   H146      1.0  0.93209  0.06861  0.53216  1.0000
  H   H147      1.0  0.81861  0.81791  0.28216  1.0000
  H   H148      1.0  0.68139  0.18209  0.78216  1.0000
  H   H149      1.0  0.06791  0.43139  0.53216  1.0000
  H   H150      1.0  0.43209  0.56861  0.03216  1.0000
  H   H151      1.0  0.31861  0.31791  0.78216  1.0000
  H   H152      1.0  0.18139  0.68209  0.28216  1.0000
  H   H153      1.0  0.43209  0.06861  0.96784  1.0000
  H   H154      1.0  0.06791  0.93139  0.46784  1.0000
  H   H155      1.0  0.18139  0.18209  0.71784  1.0000
  H   H156      1.0  0.31861  0.81791  0.21784  1.0000
  H   H157      1.0  0.93209  0.56861  0.46784  1.0000
  H   H158      1.0  0.56791  0.43139  0.96784  1.0000
  H   H159      1.0  0.68139  0.68209  0.21784  1.0000
  H   H160      1.0  0.81861  0.31791  0.71784  1.0000
  C   C257      1.0  0.49010  0.92590  0.03010  1.0000
  C   C258      1.0  0.00990  0.07410  0.53010  1.0000
  C   C259      1.0  0.82410  0.74010  0.28010  1.0000
  C   C260      1.0  0.67590  0.25990  0.78010  1.0000
  C   C261      1.0  0.99010  0.42590  0.53010  1.0000
  C   C262      1.0  0.50990  0.57410  0.03010  1.0000
  C   C263      1.0  0.32410  0.24010  0.78010  1.0000
  C   C264      1.0  0.17590  0.75990  0.28010  1.0000
  C   C265      1.0  0.50990  0.07410  0.96990  1.0000
  C   C266      1.0  0.99010  0.92590  0.46990  1.0000
  C   C267      1.0  0.17590  0.25990  0.71990  1.0000
  C   C268      1.0  0.32410  0.74010  0.21990  1.0000
  C   C269      1.0  0.00990  0.57410  0.46990  1.0000
  C   C270      1.0  0.49010  0.42590  0.96990  1.0000
  C   C271      1.0  0.67590  0.75990  0.21990  1.0000
  C   C272      1.0  0.82410  0.24010  0.71990  1.0000
  C   C273      1.0  0.48140  0.93440  0.98040  1.0000
  C   C274      1.0  0.01860  0.06560  0.48040  1.0000
  C   C275      1.0  0.81560  0.73140  0.23040  1.0000
  C   C276      1.0  0.68440  0.26860  0.73040  1.0000
  C   C277      1.0  0.98140  0.43440  0.48040  1.0000
  C   C278      1.0  0.51860  0.56560  0.98040  1.0000
  C   C279      1.0  0.31560  0.23140  0.73040  1.0000
  C   C280      1.0  0.18440  0.76860  0.23040  1.0000
  C   C281      1.0  0.51860  0.06560  0.01960  1.0000
  C   C282      1.0  0.98140  0.93440  0.51960  1.0000
  C   C283      1.0  0.18440  0.26860  0.76960  1.0000
  C   C284      1.0  0.31560  0.73140  0.26960  1.0000
  C   C285      1.0  0.01860  0.56560  0.51960  1.0000
  C   C286      1.0  0.48140  0.43440  0.01960  1.0000
  C   C287      1.0  0.68440  0.76860  0.26960  1.0000
  C   C288      1.0  0.81560  0.23140  0.76960  1.0000
  C   C289      1.0  0.52060  0.94550  0.94920  1.0000
  C   C290      1.0  0.97940  0.05450  0.44920  1.0000
  C   C291      1.0  0.80450  0.77060  0.19920  1.0000
  C   C292      1.0  0.69550  0.22940  0.69920  1.0000
  C   C293      1.0  0.02060  0.44550  0.44920  1.0000
  C   C294      1.0  0.47940  0.55450  0.94920  1.0000
  C   C295      1.0  0.30450  0.27060  0.69920  1.0000
  C   C296      1.0  0.19550  0.72940  0.19920  1.0000
  C   C297      1.0  0.47940  0.05450  0.05080  1.0000
  C   C298      1.0  0.02060  0.94550  0.55080  1.0000
  C   C299      1.0  0.19550  0.22940  0.80080  1.0000
  C   C300      1.0  0.30450  0.77060  0.30080  1.0000
  C   C301      1.0  0.97940  0.55450  0.55080  1.0000
  C   C302      1.0  0.52060  0.44550  0.05080  1.0000
  C   C303      1.0  0.69550  0.72940  0.30080  1.0000
  C   C304      1.0  0.80450  0.27060  0.80080  1.0000
  H   H161      1.0  0.55493  0.94699  0.95896  1.0000
  H   H162      1.0  0.94507  0.05301  0.45896  1.0000
  H   H163      1.0  0.80301  0.80493  0.20896  1.0000
  H   H164      1.0  0.69699  0.19507  0.70896  1.0000
  H   H165      1.0  0.05493  0.44699  0.45896  1.0000
  H   H166      1.0  0.44507  0.55301  0.95896  1.0000
  H   H167      1.0  0.30301  0.30493  0.70896  1.0000
  H   H168      1.0  0.19699  0.69507  0.20896  1.0000
  H   H169      1.0  0.44507  0.05301  0.04104  1.0000
  H   H170      1.0  0.05493  0.94699  0.54104  1.0000
  H   H171      1.0  0.19699  0.19507  0.79104  1.0000
  H   H172      1.0  0.30301  0.80493  0.29104  1.0000
  H   H173      1.0  0.94507  0.55301  0.54104  1.0000
  H   H174      1.0  0.55493  0.44699  0.04104  1.0000
  H   H175      1.0  0.69699  0.69507  0.29104  1.0000
  H   H176      1.0  0.80301  0.30493  0.79104  1.0000
  C   C305      1.0  0.50800  0.95390  0.90430  1.0000
  C   C306      1.0  0.99200  0.04610  0.40430  1.0000
  C   C307      1.0  0.79610  0.75800  0.15430  1.0000
  C   C308      1.0  0.70390  0.24200  0.65430  1.0000
  C   C309      1.0  0.00800  0.45390  0.40430  1.0000
  C   C310      1.0  0.49200  0.54610  0.90430  1.0000
  C   C311      1.0  0.29610  0.25800  0.65430  1.0000
  C   C312      1.0  0.20390  0.74200  0.15430  1.0000
  C   C313      1.0  0.49200  0.04610  0.09570  1.0000
  C   C314      1.0  0.00800  0.95390  0.59570  1.0000
  C   C315      1.0  0.20390  0.24200  0.84570  1.0000
  C   C316      1.0  0.29610  0.75800  0.34570  1.0000
  C   C317      1.0  0.99200  0.54610  0.59570  1.0000
  C   C318      1.0  0.50800  0.45390  0.09570  1.0000
  C   C319      1.0  0.70390  0.74200  0.34570  1.0000
  C   C320      1.0  0.79610  0.25800  0.84570  1.0000
  H   H177      1.0  0.53385  0.96100  0.88253  1.0000
  H   H178      1.0  0.96615  0.03900  0.38253  1.0000
  H   H179      1.0  0.78900  0.78385  0.13253  1.0000
  H   H180      1.0  0.71100  0.21615  0.63253  1.0000
  H   H181      1.0  0.03385  0.46100  0.38253  1.0000
  H   H182      1.0  0.46615  0.53900  0.88253  1.0000
  H   H183      1.0  0.28900  0.28385  0.63253  1.0000
  H   H184      1.0  0.21100  0.71615  0.13253  1.0000
  H   H185      1.0  0.46615  0.03900  0.11747  1.0000
  H   H186      1.0  0.03385  0.96100  0.61747  1.0000
  H   H187      1.0  0.21100  0.21615  0.86747  1.0000
  H   H188      1.0  0.28900  0.78385  0.36747  1.0000
  H   H189      1.0  0.96615  0.53900  0.61747  1.0000
  H   H190      1.0  0.53385  0.46100  0.11747  1.0000
  H   H191      1.0  0.71100  0.71615  0.36747  1.0000
  H   H192      1.0  0.78900  0.28385  0.86747  1.0000
  C   C321      1.0  0.45780  0.95220  0.89080  1.0000
  C   C322      1.0  0.04220  0.04780  0.39080  1.0000
  C   C323      1.0  0.79780  0.70780  0.14080  1.0000
  C   C324      1.0  0.70220  0.29220  0.64080  1.0000
  C   C325      1.0  0.95780  0.45220  0.39080  1.0000
  C   C326      1.0  0.54220  0.54780  0.89080  1.0000
  C   C327      1.0  0.29780  0.20780  0.64080  1.0000
  C   C328      1.0  0.20220  0.79220  0.14080  1.0000
  C   C329      1.0  0.54220  0.04780  0.10920  1.0000
  C   C330      1.0  0.95780  0.95220  0.60920  1.0000
  C   C331      1.0  0.20220  0.29220  0.85920  1.0000
  C   C332      1.0  0.29780  0.70780  0.35920  1.0000
  C   C333      1.0  0.04220  0.54780  0.60920  1.0000
  C   C334      1.0  0.45780  0.45220  0.10920  1.0000
  C   C335      1.0  0.70220  0.79220  0.35920  1.0000
  C   C336      1.0  0.79780  0.20780  0.85920  1.0000
  H   H193      1.0  0.44846  0.95890  0.86003  1.0000
  H   H194      1.0  0.05154  0.04110  0.36003  1.0000
  H   H195      1.0  0.79110  0.69846  0.11003  1.0000
  H   H196      1.0  0.70890  0.30154  0.61003  1.0000
  H   H197      1.0  0.94846  0.45890  0.36003  1.0000
  H   H198      1.0  0.55154  0.54110  0.86003  1.0000
  H   H199      1.0  0.29110  0.19846  0.61003  1.0000
  H   H200      1.0  0.20890  0.80154  0.11003  1.0000
  H   H201      1.0  0.55154  0.04110  0.13997  1.0000
  H   H202      1.0  0.94846  0.95890  0.63997  1.0000
  H   H203      1.0  0.20890  0.30154  0.88997  1.0000
  H   H204      1.0  0.29110  0.69846  0.38997  1.0000
  H   H205      1.0  0.05154  0.54110  0.63997  1.0000
  H   H206      1.0  0.44846  0.45890  0.13997  1.0000
  H   H207      1.0  0.70890  0.80154  0.38997  1.0000
  H   H208      1.0  0.79110  0.19846  0.88997  1.0000
  C   C337      1.0  0.42130  0.94030  0.92340  1.0000
  C   C338      1.0  0.07870  0.05970  0.42340  1.0000
  C   C339      1.0  0.80970  0.67130  0.17340  1.0000
  C   C340      1.0  0.69030  0.32870  0.67340  1.0000
  C   C341      1.0  0.92130  0.44030  0.42340  1.0000
  C   C342      1.0  0.57870  0.55970  0.92340  1.0000
  C   C343      1.0  0.30970  0.17130  0.67340  1.0000
  C   C344      1.0  0.19030  0.82870  0.17340  1.0000
  C   C345      1.0  0.57870  0.05970  0.07660  1.0000
  C   C346      1.0  0.92130  0.94030  0.57660  1.0000
  C   C347      1.0  0.19030  0.32870  0.82660  1.0000
  C   C348      1.0  0.30970  0.67130  0.32660  1.0000
  C   C349      1.0  0.07870  0.55970  0.57660  1.0000
  C   C350      1.0  0.42130  0.44030  0.07660  1.0000
  C   C351      1.0  0.69030  0.82870  0.32660  1.0000
  C   C352      1.0  0.80970  0.17130  0.82660  1.0000
  C   C353      1.0  0.36510  0.93640  0.91140  1.0000
  C   C354      1.0  0.13490  0.06360  0.41140  1.0000
  C   C355      1.0  0.81360  0.61510  0.16140  1.0000
  C   C356      1.0  0.68640  0.38490  0.66140  1.0000
  C   C357      1.0  0.86510  0.43640  0.41140  1.0000
  C   C358      1.0  0.63490  0.56360  0.91140  1.0000
  C   C359      1.0  0.31360  0.11510  0.66140  1.0000
  C   C360      1.0  0.18640  0.88490  0.16140  1.0000
  C   C361      1.0  0.63490  0.06360  0.08860  1.0000
  C   C362      1.0  0.86510  0.93640  0.58860  1.0000
  C   C363      1.0  0.18640  0.38490  0.83860  1.0000
  C   C364      1.0  0.31360  0.61510  0.33860  1.0000
  C   C365      1.0  0.13490  0.56360  0.58860  1.0000
  C   C366      1.0  0.36510  0.43640  0.08860  1.0000
  C   C367      1.0  0.68640  0.88490  0.33860  1.0000
  C   C368      1.0  0.81360  0.11510  0.83860  1.0000
  C   C369      1.0  0.40160  0.90070  0.12450  1.0000
  C   C370      1.0  0.09840  0.09930  0.62450  1.0000
  C   C371      1.0  0.84930  0.65160  0.37450  1.0000
  C   C372      1.0  0.65070  0.34840  0.87450  1.0000
  C   C373      1.0  0.90160  0.40070  0.62450  1.0000
  C   C374      1.0  0.59840  0.59930  0.12450  1.0000
  C   C375      1.0  0.34930  0.15160  0.87450  1.0000
  C   C376      1.0  0.15070  0.84840  0.37450  1.0000
  C   C377      1.0  0.59840  0.09930  0.87550  1.0000
  C   C378      1.0  0.90160  0.90070  0.37550  1.0000
  C   C379      1.0  0.15070  0.34840  0.62550  1.0000
  C   C380      1.0  0.34930  0.65160  0.12550  1.0000
  C   C381      1.0  0.09840  0.59930  0.37550  1.0000
  C   C382      1.0  0.40160  0.40070  0.87550  1.0000
  C   C383      1.0  0.65070  0.84840  0.12550  1.0000
  C   C384      1.0  0.84930  0.15160  0.62550  1.0000
  C   C385      1.0  0.20880  0.58550  0.06680  1.0000
  C   C386      1.0  0.29120  0.41450  0.56680  1.0000
  C   C387      1.0  0.16450  0.45880  0.31680  1.0000
  C   C388      1.0  0.33550  0.54120  0.81680  1.0000
  C   C389      1.0  0.70880  0.08550  0.56680  1.0000
  C   C390      1.0  0.79120  0.91450  0.06680  1.0000
  C   C391      1.0  0.66450  0.95880  0.81680  1.0000
  C   C392      1.0  0.83550  0.04120  0.31680  1.0000
  C   C393      1.0  0.79120  0.41450  0.93320  1.0000
  C   C394      1.0  0.70880  0.58550  0.43320  1.0000
  C   C395      1.0  0.83550  0.54120  0.68320  1.0000
  C   C396      1.0  0.66450  0.45880  0.18320  1.0000
  C   C397      1.0  0.29120  0.91450  0.43320  1.0000
  C   C398      1.0  0.20880  0.08550  0.93320  1.0000
  C   C399      1.0  0.33550  0.04120  0.18320  1.0000
  C   C400      1.0  0.16450  0.95880  0.68320  1.0000
  C   C401      1.0  0.24920  0.55580  0.07980  1.0000
  C   C402      1.0  0.25080  0.44420  0.57980  1.0000
  C   C403      1.0  0.19420  0.49920  0.32980  1.0000
  C   C404      1.0  0.30580  0.50080  0.82980  1.0000
  C   C405      1.0  0.74920  0.05580  0.57980  1.0000
  C   C406      1.0  0.75080  0.94420  0.07980  1.0000
  C   C407      1.0  0.69420  0.99920  0.82980  1.0000
  C   C408      1.0  0.80580  0.00080  0.32980  1.0000
  C   C409      1.0  0.75080  0.44420  0.92020  1.0000
  C   C410      1.0  0.74920  0.55580  0.42020  1.0000
  C   C411      1.0  0.80580  0.50080  0.67020  1.0000
  C   C412      1.0  0.69420  0.49920  0.17020  1.0000
  C   C413      1.0  0.25080  0.94420  0.42020  1.0000
  C   C414      1.0  0.24920  0.05580  0.92020  1.0000
  C   C415      1.0  0.30580  0.00080  0.17020  1.0000
  C   C416      1.0  0.19420  0.99920  0.67020  1.0000
  H   H209      1.0  0.28225  0.56987  0.08276  1.0000
  H   H210      1.0  0.21775  0.43013  0.58276  1.0000
  H   H211      1.0  0.18013  0.53225  0.33276  1.0000
  H   H212      1.0  0.31987  0.46775  0.83276  1.0000
  H   H213      1.0  0.78225  0.06987  0.58276  1.0000
  H   H214      1.0  0.71775  0.93013  0.08276  1.0000
  H   H215      1.0  0.68013  0.03225  0.83276  1.0000
  H   H216      1.0  0.81987  0.96775  0.33276  1.0000
  H   H217      1.0  0.71775  0.43013  0.91724  1.0000
  H   H218      1.0  0.78225  0.56987  0.41724  1.0000
  H   H219      1.0  0.81987  0.46775  0.66724  1.0000
  H   H220      1.0  0.68013  0.53225  0.16724  1.0000
  H   H221      1.0  0.21775  0.93013  0.41724  1.0000
  H   H222      1.0  0.28225  0.06987  0.91724  1.0000
  H   H223      1.0  0.31987  0.96775  0.16724  1.0000
  H   H224      1.0  0.18013  0.03225  0.66724  1.0000
  C   C417      1.0  0.24050  0.50490  0.08850  1.0000
  C   C418      1.0  0.25950  0.49510  0.58850  1.0000
  C   C419      1.0  0.24510  0.49050  0.33850  1.0000
  C   C420      1.0  0.25490  0.50950  0.83850  1.0000
  C   C421      1.0  0.74050  0.00490  0.58850  1.0000
  C   C422      1.0  0.75950  0.99510  0.08850  1.0000
  C   C423      1.0  0.74510  0.99050  0.83850  1.0000
  C   C424      1.0  0.75490  0.00950  0.33850  1.0000
  C   C425      1.0  0.75950  0.49510  0.91150  1.0000
  C   C426      1.0  0.74050  0.50490  0.41150  1.0000
  C   C427      1.0  0.75490  0.50950  0.66150  1.0000
  C   C428      1.0  0.74510  0.49050  0.16150  1.0000
  C   C429      1.0  0.25950  0.99510  0.41150  1.0000
  C   C430      1.0  0.24050  0.00490  0.91150  1.0000
  C   C431      1.0  0.25490  0.00950  0.16150  1.0000
  C   C432      1.0  0.24510  0.99050  0.66150  1.0000
  H   H225      1.0  0.26776  0.48352  0.09761  1.0000
  H   H226      1.0  0.23224  0.51648  0.59761  1.0000
  H   H227      1.0  0.26648  0.51776  0.34761  1.0000
  H   H228      1.0  0.23352  0.48224  0.84761  1.0000
  H   H229      1.0  0.76776  0.98352  0.59761  1.0000
  H   H230      1.0  0.73224  0.01648  0.09761  1.0000
  H   H231      1.0  0.76648  0.01776  0.84761  1.0000
  H   H232      1.0  0.73352  0.98224  0.34761  1.0000
  H   H233      1.0  0.73224  0.51648  0.90239  1.0000
  H   H234      1.0  0.76776  0.48352  0.40239  1.0000
  H   H235      1.0  0.73352  0.48224  0.65239  1.0000
  H   H236      1.0  0.76648  0.51776  0.15239  1.0000
  H   H237      1.0  0.23224  0.01648  0.40239  1.0000
  H   H238      1.0  0.26776  0.98352  0.90239  1.0000
  H   H239      1.0  0.23352  0.98224  0.15239  1.0000
  H   H240      1.0  0.26648  0.01776  0.65239  1.0000
  C   C433      1.0  0.19200  0.48510  0.08400  1.0000
  C   C434      1.0  0.30800  0.51490  0.58400  1.0000
  C   C435      1.0  0.26490  0.44200  0.33400  1.0000
  C   C436      1.0  0.23510  0.55800  0.83400  1.0000
  C   C437      1.0  0.69200  0.98510  0.58400  1.0000
  C   C438      1.0  0.80800  0.01490  0.08400  1.0000
  C   C439      1.0  0.76490  0.94200  0.83400  1.0000
  C   C440      1.0  0.73510  0.05800  0.33400  1.0000
  C   C441      1.0  0.80800  0.51490  0.91600  1.0000
  C   C442      1.0  0.69200  0.48510  0.41600  1.0000
  C   C443      1.0  0.73510  0.55800  0.66600  1.0000
  C   C444      1.0  0.76490  0.44200  0.16600  1.0000
  C   C445      1.0  0.30800  0.01490  0.41600  1.0000
  C   C446      1.0  0.19200  0.98510  0.91600  1.0000
  C   C447      1.0  0.23510  0.05800  0.16600  1.0000
  C   C448      1.0  0.26490  0.94200  0.66600  1.0000
  H   H241      1.0  0.18573  0.45012  0.08934  1.0000
  H   H242      1.0  0.31427  0.54988  0.58934  1.0000
  H   H243      1.0  0.29988  0.43573  0.33934  1.0000
  H   H244      1.0  0.20012  0.56427  0.83934  1.0000
  H   H245      1.0  0.68573  0.95012  0.58934  1.0000
  H   H246      1.0  0.81427  0.04988  0.08934  1.0000
  H   H247      1.0  0.79988  0.93573  0.83934  1.0000
  H   H248      1.0  0.70012  0.06427  0.33934  1.0000
  H   H249      1.0  0.81427  0.54988  0.91066  1.0000
  H   H250      1.0  0.68573  0.45012  0.41066  1.0000
  H   H251      1.0  0.70012  0.56427  0.66066  1.0000
  H   H252      1.0  0.79988  0.43573  0.16066  1.0000
  H   H253      1.0  0.31427  0.04988  0.41066  1.0000
  H   H254      1.0  0.18573  0.95012  0.91066  1.0000
  H   H255      1.0  0.20012  0.06427  0.16066  1.0000
  H   H256      1.0  0.29988  0.93573  0.66066  1.0000
  C   C449      1.0  0.15260  0.51750  0.07150  1.0000
  C   C450      1.0  0.34740  0.48250  0.57150  1.0000
  C   C451      1.0  0.23250  0.40260  0.32150  1.0000
  C   C452      1.0  0.26750  0.59740  0.82150  1.0000
  C   C453      1.0  0.65260  0.01750  0.57150  1.0000
  C   C454      1.0  0.84740  0.98250  0.07150  1.0000
  C   C455      1.0  0.73250  0.90260  0.82150  1.0000
  C   C456      1.0  0.76750  0.09740  0.32150  1.0000
  C   C457      1.0  0.84740  0.48250  0.92850  1.0000
  C   C458      1.0  0.65260  0.51750  0.42850  1.0000
  C   C459      1.0  0.76750  0.59740  0.67850  1.0000
  C   C460      1.0  0.73250  0.40260  0.17850  1.0000
  C   C461      1.0  0.34740  0.98250  0.42850  1.0000
  C   C462      1.0  0.15260  0.01750  0.92850  1.0000
  C   C463      1.0  0.26750  0.09740  0.17850  1.0000
  C   C464      1.0  0.23250  0.90260  0.67850  1.0000
  C   C465      1.0  0.09880  0.50080  0.06580  1.0000
  C   C466      1.0  0.40120  0.49920  0.56580  1.0000
  C   C467      1.0  0.24920  0.34880  0.31580  1.0000
  C   C468      1.0  0.25080  0.65120  0.81580  1.0000
  C   C469      1.0  0.59880  0.00080  0.56580  1.0000
  C   C470      1.0  0.90120  0.99920  0.06580  1.0000
  C   C471      1.0  0.74920  0.84880  0.81580  1.0000
  C   C472      1.0  0.75080  0.15120  0.31580  1.0000
  C   C473      1.0  0.90120  0.49920  0.93420  1.0000
  C   C474      1.0  0.59880  0.50080  0.43420  1.0000
  C   C475      1.0  0.75080  0.65120  0.68420  1.0000
  C   C476      1.0  0.74920  0.34880  0.18420  1.0000
  C   C477      1.0  0.40120  0.99920  0.43420  1.0000
  C   C478      1.0  0.09880  0.00080  0.93420  1.0000
  C   C479      1.0  0.25080  0.15120  0.18420  1.0000
  C   C480      1.0  0.24920  0.84880  0.68420  1.0000
  C   C481      1.0  0.08380  0.44990  0.06620  1.0000
  C   C482      1.0  0.41620  0.55010  0.56620  1.0000
  C   C483      1.0  0.30010  0.33380  0.31620  1.0000
  C   C484      1.0  0.19990  0.66620  0.81620  1.0000
  C   C485      1.0  0.58380  0.94990  0.56620  1.0000
  C   C486      1.0  0.91620  0.05010  0.06620  1.0000
  C   C487      1.0  0.80010  0.83380  0.81620  1.0000
  C   C488      1.0  0.69990  0.16620  0.31620  1.0000
  C   C489      1.0  0.91620  0.55010  0.93380  1.0000
  C   C490      1.0  0.58380  0.44990  0.43380  1.0000
  C   C491      1.0  0.69990  0.66620  0.68380  1.0000
  C   C492      1.0  0.80010  0.33380  0.18380  1.0000
  C   C493      1.0  0.41620  0.05010  0.43380  1.0000
  C   C494      1.0  0.08380  0.94990  0.93380  1.0000
  C   C495      1.0  0.19990  0.16620  0.18380  1.0000
  C   C496      1.0  0.30010  0.83380  0.68380  1.0000
  H   H257      1.0  0.10808  0.42340  0.06939  1.0000
  H   H258      1.0  0.39192  0.57660  0.56939  1.0000
  H   H259      1.0  0.32660  0.35808  0.31939  1.0000
  H   H260      1.0  0.17340  0.64192  0.81939  1.0000
  H   H261      1.0  0.60808  0.92340  0.56939  1.0000
  H   H262      1.0  0.89192  0.07660  0.06939  1.0000
  H   H263      1.0  0.82660  0.85808  0.81939  1.0000
  H   H264      1.0  0.67340  0.14192  0.31939  1.0000
  H   H265      1.0  0.89192  0.57660  0.93061  1.0000
  H   H266      1.0  0.60808  0.42340  0.43061  1.0000
  H   H267      1.0  0.67340  0.64192  0.68061  1.0000
  H   H268      1.0  0.82660  0.35808  0.18061  1.0000
  H   H269      1.0  0.39192  0.07660  0.43061  1.0000
  H   H270      1.0  0.10808  0.92340  0.93061  1.0000
  H   H271      1.0  0.17340  0.14192  0.18061  1.0000
  H   H272      1.0  0.32660  0.85808  0.68061  1.0000
  C   C497      1.0  0.03240  0.43910  0.06170  1.0000
  C   C498      1.0  0.46760  0.56090  0.56170  1.0000
  C   C499      1.0  0.31090  0.28240  0.31170  1.0000
  C   C500      1.0  0.18910  0.71760  0.81170  1.0000
  C   C501      1.0  0.53240  0.93910  0.56170  1.0000
  C   C502      1.0  0.96760  0.06090  0.06170  1.0000
  C   C503      1.0  0.81090  0.78240  0.81170  1.0000
  C   C504      1.0  0.68910  0.21760  0.31170  1.0000
  C   C505      1.0  0.96760  0.56090  0.93830  1.0000
  C   C506      1.0  0.53240  0.43910  0.43830  1.0000
  C   C507      1.0  0.68910  0.71760  0.68830  1.0000
  C   C508      1.0  0.81090  0.28240  0.18830  1.0000
  C   C509      1.0  0.46760  0.06090  0.43830  1.0000
  C   C510      1.0  0.03240  0.93910  0.93830  1.0000
  C   C511      1.0  0.18910  0.21760  0.18830  1.0000
  C   C512      1.0  0.31090  0.78240  0.68830  1.0000
  H   H273      1.0  0.02120  0.40478  0.06138  1.0000
  H   H274      1.0  0.47880  0.59522  0.56138  1.0000
  H   H275      1.0  0.34522  0.27120  0.31138  1.0000
  H   H276      1.0  0.15478  0.72880  0.81138  1.0000
  H   H277      1.0  0.52120  0.90478  0.56138  1.0000
  H   H278      1.0  0.97880  0.09522  0.06138  1.0000
  H   H279      1.0  0.84522  0.77120  0.81138  1.0000
  H   H280      1.0  0.65478  0.22880  0.31138  1.0000
  H   H281      1.0  0.97880  0.59522  0.93862  1.0000
  H   H282      1.0  0.52120  0.40478  0.43862  1.0000
  H   H283      1.0  0.65478  0.72880  0.68862  1.0000
  H   H284      1.0  0.84522  0.27120  0.18862  1.0000
  H   H285      1.0  0.47880  0.09522  0.43862  1.0000
  H   H286      1.0  0.02120  0.90478  0.93862  1.0000
  H   H287      1.0  0.15478  0.22880  0.18862  1.0000
  H   H288      1.0  0.34522  0.77120  0.68862  1.0000
  C   C513      1.0  0.99750  0.47790  0.05760  1.0000
  C   C514      1.0  0.50250  0.52210  0.55760  1.0000
  C   C515      1.0  0.27210  0.24750  0.30760  1.0000
  C   C516      1.0  0.22790  0.75250  0.80760  1.0000
  C   C517      1.0  0.49750  0.97790  0.55760  1.0000
  C   C518      1.0  0.00250  0.02210  0.05760  1.0000
  C   C519      1.0  0.77210  0.74750  0.80760  1.0000
  C   C520      1.0  0.72790  0.25250  0.30760  1.0000
  C   C521      1.0  0.00250  0.52210  0.94240  1.0000
  C   C522      1.0  0.49750  0.47790  0.44240  1.0000
  C   C523      1.0  0.72790  0.75250  0.69240  1.0000
  C   C524      1.0  0.77210  0.24750  0.19240  1.0000
  C   C525      1.0  0.50250  0.02210  0.44240  1.0000
  C   C526      1.0  0.99750  0.97790  0.94240  1.0000
  C   C527      1.0  0.22790  0.25250  0.19240  1.0000
  C   C528      1.0  0.27210  0.74750  0.69240  1.0000
  H   H289      1.0  0.96216  0.47106  0.05527  1.0000
  H   H290      1.0  0.53784  0.52894  0.55527  1.0000
  H   H291      1.0  0.27894  0.21216  0.30527  1.0000
  H   H292      1.0  0.22106  0.78784  0.80527  1.0000
  H   H293      1.0  0.46216  0.97106  0.55527  1.0000
  H   H294      1.0  0.03784  0.02894  0.05527  1.0000
  H   H295      1.0  0.77894  0.71216  0.80527  1.0000
  H   H296      1.0  0.72106  0.28784  0.30527  1.0000
  H   H297      1.0  0.03784  0.52894  0.94473  1.0000
  H   H298      1.0  0.46216  0.47106  0.44473  1.0000
  H   H299      1.0  0.72106  0.78784  0.69473  1.0000
  H   H300      1.0  0.77894  0.21216  0.19473  1.0000
  H   H301      1.0  0.53784  0.02894  0.44473  1.0000
  H   H302      1.0  0.96216  0.97106  0.94473  1.0000
  H   H303      1.0  0.22106  0.28784  0.19473  1.0000
  H   H304      1.0  0.27894  0.71216  0.69473  1.0000
  C   C529      1.0  0.01560  0.52700  0.05700  1.0000
  C   C530      1.0  0.48440  0.47300  0.55700  1.0000
  C   C531      1.0  0.22300  0.26560  0.30700  1.0000
  C   C532      1.0  0.27700  0.73440  0.80700  1.0000
  C   C533      1.0  0.51560  0.02700  0.55700  1.0000
  C   C534      1.0  0.98440  0.97300  0.05700  1.0000
  C   C535      1.0  0.72300  0.76560  0.80700  1.0000
  C   C536      1.0  0.77700  0.23440  0.30700  1.0000
  C   C537      1.0  0.98440  0.47300  0.94300  1.0000
  C   C538      1.0  0.51560  0.52700  0.44300  1.0000
  C   C539      1.0  0.77700  0.73440  0.69300  1.0000
  C   C540      1.0  0.72300  0.26560  0.19300  1.0000
  C   C541      1.0  0.48440  0.97300  0.44300  1.0000
  C   C542      1.0  0.01560  0.02700  0.94300  1.0000
  C   C543      1.0  0.27700  0.23440  0.19300  1.0000
  C   C544      1.0  0.22300  0.76560  0.69300  1.0000
  C   C545      1.0  0.21330  0.64120  0.05410  1.0000
  C   C546      1.0  0.28670  0.35880  0.55410  1.0000
  C   C547      1.0  0.10880  0.46330  0.30410  1.0000
  C   C548      1.0  0.39120  0.53670  0.80410  1.0000
  C   C549      1.0  0.71330  0.14120  0.55410  1.0000
  C   C550      1.0  0.78670  0.85880  0.05410  1.0000
  C   C551      1.0  0.60880  0.96330  0.80410  1.0000
  C   C552      1.0  0.89120  0.03670  0.30410  1.0000
  C   C553      1.0  0.78670  0.35880  0.94590  1.0000
  C   C554      1.0  0.71330  0.64120  0.44590  1.0000
  C   C555      1.0  0.89120  0.53670  0.69590  1.0000
  C   C556      1.0  0.60880  0.46330  0.19590  1.0000
  C   C557      1.0  0.28670  0.85880  0.44590  1.0000
  C   C558      1.0  0.21330  0.14120  0.94590  1.0000
  C   C559      1.0  0.39120  0.03670  0.19590  1.0000
  C   C560      1.0  0.10880  0.96330  0.69590  1.0000
  C   C561      1.0  0.98030  0.57330  0.05440  1.0000
  C   C562      1.0  0.51970  0.42670  0.55440  1.0000
  C   C563      1.0  0.17670  0.23030  0.30440  1.0000
  C   C564      1.0  0.32330  0.76970  0.80440  1.0000
  C   C565      1.0  0.48030  0.07330  0.55440  1.0000
  C   C566      1.0  0.01970  0.92670  0.05440  1.0000
  C   C567      1.0  0.67670  0.73030  0.80440  1.0000
  C   C568      1.0  0.82330  0.26970  0.30440  1.0000
  C   C569      1.0  0.01970  0.42670  0.94560  1.0000
  C   C570      1.0  0.48030  0.57330  0.44560  1.0000
  C   C571      1.0  0.82330  0.76970  0.69560  1.0000
  C   C572      1.0  0.67670  0.23030  0.19560  1.0000
  C   C573      1.0  0.51970  0.92670  0.44560  1.0000
  C   C574      1.0  0.98030  0.07330  0.94560  1.0000
  C   C575      1.0  0.32330  0.26970  0.19560  1.0000
  C   C576      1.0  0.17670  0.73030  0.69560  1.0000
  C   C577      1.0  0.07400  0.70430  0.96300  1.0000
  C   C578      1.0  0.42600  0.29570  0.46300  1.0000
  C   C579      1.0  0.04570  0.32400  0.21300  1.0000
  C   C580      1.0  0.45430  0.67600  0.71300  1.0000
  C   C581      1.0  0.57400  0.20430  0.46300  1.0000
  C   C582      1.0  0.92600  0.79570  0.96300  1.0000
  C   C583      1.0  0.54570  0.82400  0.71300  1.0000
  C   C584      1.0  0.95430  0.17600  0.21300  1.0000
  C   C585      1.0  0.92600  0.29570  0.03700  1.0000
  C   C586      1.0  0.57400  0.70430  0.53700  1.0000
  C   C587      1.0  0.95430  0.67600  0.78700  1.0000
  C   C588      1.0  0.54570  0.32400  0.28700  1.0000
  C   C589      1.0  0.42600  0.79570  0.53700  1.0000
  C   C590      1.0  0.07400  0.20430  0.03700  1.0000
  C   C591      1.0  0.45430  0.17600  0.28700  1.0000
  C   C592      1.0  0.04570  0.82400  0.78700  1.0000
  C   C593      1.0  0.07010  0.74530  0.93370  1.0000
  C   C594      1.0  0.42990  0.25470  0.43370  1.0000
  C   C595      1.0  0.00470  0.32010  0.18370  1.0000
  C   C596      1.0  0.49530  0.67990  0.68370  1.0000
  C   C597      1.0  0.57010  0.24530  0.43370  1.0000
  C   C598      1.0  0.92990  0.75470  0.93370  1.0000
  C   C599      1.0  0.50470  0.82010  0.68370  1.0000
  C   C600      1.0  0.99530  0.17990  0.18370  1.0000
  C   C601      1.0  0.92990  0.25470  0.06630  1.0000
  C   C602      1.0  0.57010  0.74530  0.56630  1.0000
  C   C603      1.0  0.99530  0.67990  0.81630  1.0000
  C   C604      1.0  0.50470  0.32010  0.31630  1.0000
  C   C605      1.0  0.42990  0.75470  0.56630  1.0000
  C   C606      1.0  0.07010  0.24530  0.06630  1.0000
  C   C607      1.0  0.49530  0.17990  0.31630  1.0000
  C   C608      1.0  0.00470  0.82010  0.81630  1.0000
  H   H305      1.0  0.07174  0.74081  0.90147  1.0000
  H   H306      1.0  0.42826  0.25919  0.40147  1.0000
  H   H307      1.0  0.00919  0.32174  0.15147  1.0000
  H   H308      1.0  0.49081  0.67826  0.65147  1.0000
  H   H309      1.0  0.57174  0.24081  0.40147  1.0000
  H   H310      1.0  0.92826  0.75919  0.90147  1.0000
  H   H311      1.0  0.50919  0.82174  0.65147  1.0000
  H   H312      1.0  0.99081  0.17826  0.15147  1.0000
  H   H313      1.0  0.92826  0.25919  0.09853  1.0000
  H   H314      1.0  0.57174  0.74081  0.59853  1.0000
  H   H315      1.0  0.99081  0.67826  0.84853  1.0000
  H   H316      1.0  0.50919  0.32174  0.34853  1.0000
  H   H317      1.0  0.42826  0.75919  0.59853  1.0000
  H   H318      1.0  0.07174  0.24081  0.09853  1.0000
  H   H319      1.0  0.49081  0.17826  0.34853  1.0000
  H   H320      1.0  0.00919  0.82174  0.84853  1.0000
  C   C609      1.0  0.06380  0.79330  0.95280  1.0000
  C   C610      1.0  0.43620  0.20670  0.45280  1.0000
  C   C611      1.0  0.95670  0.31380  0.20280  1.0000
  C   C612      1.0  0.54330  0.68620  0.70280  1.0000
  C   C613      1.0  0.56380  0.29330  0.45280  1.0000
  C   C614      1.0  0.93620  0.70670  0.95280  1.0000
  C   C615      1.0  0.45670  0.81380  0.70280  1.0000
  C   C616      1.0  0.04330  0.18620  0.20280  1.0000
  C   C617      1.0  0.93620  0.20670  0.04720  1.0000
  C   C618      1.0  0.56380  0.79330  0.54720  1.0000
  C   C619      1.0  0.04330  0.68620  0.79720  1.0000
  C   C620      1.0  0.45670  0.31380  0.29720  1.0000
  C   C621      1.0  0.43620  0.70670  0.54720  1.0000
  C   C622      1.0  0.06380  0.29330  0.04720  1.0000
  C   C623      1.0  0.54330  0.18620  0.29720  1.0000
  C   C624      1.0  0.95670  0.81380  0.79720  1.0000
  H   H321      1.0  0.06058  0.82218  0.93350  1.0000
  H   H322      1.0  0.43942  0.17782  0.43350  1.0000
  H   H323      1.0  0.92782  0.31058  0.18350  1.0000
  H   H324      1.0  0.57218  0.68942  0.68350  1.0000
  H   H325      1.0  0.56058  0.32218  0.43350  1.0000
  H   H326      1.0  0.93942  0.67782  0.93350  1.0000
  H   H327      1.0  0.42782  0.81058  0.68350  1.0000
  H   H328      1.0  0.07218  0.18942  0.18350  1.0000
  H   H329      1.0  0.93942  0.17782  0.06650  1.0000
  H   H330      1.0  0.56058  0.82218  0.56650  1.0000
  H   H331      1.0  0.07218  0.68942  0.81650  1.0000
  H   H332      1.0  0.42782  0.31058  0.31650  1.0000
  H   H333      1.0  0.43942  0.67782  0.56650  1.0000
  H   H334      1.0  0.06058  0.32218  0.06650  1.0000
  H   H335      1.0  0.57218  0.18942  0.31650  1.0000
  H   H336      1.0  0.92782  0.81058  0.81650  1.0000
  C   C625      1.0  0.06220  0.79890  0.99990  1.0000
  C   C626      1.0  0.43780  0.20110  0.49990  1.0000
  C   C627      1.0  0.95110  0.31220  0.24990  1.0000
  C   C628      1.0  0.54890  0.68780  0.74990  1.0000
  C   C629      1.0  0.56220  0.29890  0.49990  1.0000
  C   C630      1.0  0.93780  0.70110  0.99990  1.0000
  C   C631      1.0  0.45110  0.81220  0.74990  1.0000
  C   C632      1.0  0.04890  0.18780  0.24990  1.0000
  C   C633      1.0  0.93780  0.20110  0.00010  1.0000
  C   C634      1.0  0.56220  0.79890  0.50010  1.0000
  C   C635      1.0  0.04890  0.68780  0.75010  1.0000
  C   C636      1.0  0.45110  0.31220  0.25010  1.0000
  C   C637      1.0  0.43780  0.70110  0.50010  1.0000
  C   C638      1.0  0.06220  0.29890  0.00010  1.0000
  C   C639      1.0  0.54890  0.18780  0.25010  1.0000
  C   C640      1.0  0.95110  0.81220  0.75010  1.0000
  H   H337      1.0  0.05789  0.83138  0.01334  1.0000
  H   H338      1.0  0.44211  0.16862  0.51334  1.0000
  H   H339      1.0  0.91862  0.30789  0.26334  1.0000
  H   H340      1.0  0.58138  0.69211  0.76334  1.0000
  H   H341      1.0  0.55789  0.33138  0.51334  1.0000
  H   H342      1.0  0.94211  0.66862  0.01334  1.0000
  H   H343      1.0  0.41862  0.80789  0.76334  1.0000
  H   H344      1.0  0.08138  0.19211  0.26334  1.0000
  H   H345      1.0  0.94211  0.16862  0.98666  1.0000
  H   H346      1.0  0.55789  0.83138  0.48666  1.0000
  H   H347      1.0  0.08138  0.69211  0.73666  1.0000
  H   H348      1.0  0.41862  0.30789  0.23666  1.0000
  H   H349      1.0  0.44211  0.66862  0.48666  1.0000
  H   H350      1.0  0.05789  0.33138  0.98666  1.0000
  H   H351      1.0  0.58138  0.19211  0.23666  1.0000
  H   H352      1.0  0.91862  0.80789  0.73666  1.0000
  C   C641      1.0  0.06720  0.75550  0.02710  1.0000
  C   C642      1.0  0.43280  0.24450  0.52710  1.0000
  C   C643      1.0  0.99450  0.31720  0.27710  1.0000
  C   C644      1.0  0.50550  0.68280  0.77710  1.0000
  C   C645      1.0  0.56720  0.25550  0.52710  1.0000
  C   C646      1.0  0.93280  0.74450  0.02710  1.0000
  C   C647      1.0  0.49450  0.81720  0.77710  1.0000
  C   C648      1.0  0.00550  0.18280  0.27710  1.0000
  C   C649      1.0  0.93280  0.24450  0.97290  1.0000
  C   C650      1.0  0.56720  0.75550  0.47290  1.0000
  C   C651      1.0  0.00550  0.68280  0.72290  1.0000
  C   C652      1.0  0.49450  0.31720  0.22290  1.0000
  C   C653      1.0  0.43280  0.74450  0.47290  1.0000
  C   C654      1.0  0.06720  0.25550  0.97290  1.0000
  C   C655      1.0  0.50550  0.18280  0.22290  1.0000
  C   C656      1.0  0.99450  0.81720  0.72290  1.0000
  C   C657      1.0  0.06780  0.75710  0.07830  1.0000
  C   C658      1.0  0.43220  0.24290  0.57830  1.0000
  C   C659      1.0  0.99290  0.31780  0.32830  1.0000
  C   C660      1.0  0.50710  0.68220  0.82830  1.0000
  C   C661      1.0  0.56780  0.25710  0.57830  1.0000
  C   C662      1.0  0.93220  0.74290  0.07830  1.0000
  C   C663      1.0  0.49290  0.81780  0.82830  1.0000
  C   C664      1.0  0.00710  0.18220  0.32830  1.0000
  C   C665      1.0  0.93220  0.24290  0.92170  1.0000
  C   C666      1.0  0.56780  0.75710  0.42170  1.0000
  C   C667      1.0  0.00710  0.68220  0.67170  1.0000
  C   C668      1.0  0.49290  0.31780  0.17170  1.0000
  C   C669      1.0  0.43220  0.74290  0.42170  1.0000
  C   C670      1.0  0.06780  0.25710  0.92170  1.0000
  C   C671      1.0  0.50710  0.18220  0.17170  1.0000
  C   C672      1.0  0.99290  0.81780  0.67170  1.0000
  C   C673      1.0  0.06400  0.80170  0.10350  1.0000
  C   C674      1.0  0.43600  0.19830  0.60350  1.0000
  C   C675      1.0  0.94830  0.31400  0.35350  1.0000
  C   C676      1.0  0.55170  0.68600  0.85350  1.0000
  C   C677      1.0  0.56400  0.30170  0.60350  1.0000
  C   C678      1.0  0.93600  0.69830  0.10350  1.0000
  C   C679      1.0  0.44830  0.81400  0.85350  1.0000
  C   C680      1.0  0.05170  0.18600  0.35350  1.0000
  C   C681      1.0  0.93600  0.19830  0.89650  1.0000
  C   C682      1.0  0.56400  0.80170  0.39650  1.0000
  C   C683      1.0  0.05170  0.68600  0.64650  1.0000
  C   C684      1.0  0.44830  0.31400  0.14650  1.0000
  C   C685      1.0  0.43600  0.69830  0.39650  1.0000
  C   C686      1.0  0.06400  0.30170  0.89650  1.0000
  C   C687      1.0  0.55170  0.18600  0.14650  1.0000
  C   C688      1.0  0.94830  0.81400  0.64650  1.0000
  H   H353      1.0  0.06159  0.83363  0.08853  1.0000
  H   H354      1.0  0.43841  0.16637  0.58853  1.0000
  H   H355      1.0  0.91637  0.31159  0.33853  1.0000
  H   H356      1.0  0.58363  0.68841  0.83853  1.0000
  H   H357      1.0  0.56159  0.33363  0.58853  1.0000
  H   H358      1.0  0.93841  0.66637  0.08853  1.0000
  H   H359      1.0  0.41637  0.81159  0.83853  1.0000
  H   H360      1.0  0.08363  0.18841  0.33853  1.0000
  H   H361      1.0  0.93841  0.16637  0.91147  1.0000
  H   H362      1.0  0.56159  0.83363  0.41147  1.0000
  H   H363      1.0  0.08363  0.68841  0.66147  1.0000
  H   H364      1.0  0.41637  0.31159  0.16147  1.0000
  H   H365      1.0  0.43841  0.66637  0.41147  1.0000
  H   H366      1.0  0.06159  0.33363  0.91147  1.0000
  H   H367      1.0  0.58363  0.18841  0.16147  1.0000
  H   H368      1.0  0.91637  0.81159  0.66147  1.0000
  C   C689      1.0  0.06370  0.79890  0.15070  1.0000
  C   C690      1.0  0.43630  0.20110  0.65070  1.0000
  C   C691      1.0  0.95110  0.31370  0.40070  1.0000
  C   C692      1.0  0.54890  0.68630  0.90070  1.0000
  C   C693      1.0  0.56370  0.29890  0.65070  1.0000
  C   C694      1.0  0.93630  0.70110  0.15070  1.0000
  C   C695      1.0  0.45110  0.81370  0.90070  1.0000
  C   C696      1.0  0.04890  0.18630  0.40070  1.0000
  C   C697      1.0  0.93630  0.20110  0.84930  1.0000
  C   C698      1.0  0.56370  0.79890  0.34930  1.0000
  C   C699      1.0  0.04890  0.68630  0.59930  1.0000
  C   C700      1.0  0.45110  0.31370  0.09930  1.0000
  C   C701      1.0  0.43630  0.70110  0.34930  1.0000
  C   C702      1.0  0.06370  0.29890  0.84930  1.0000
  C   C703      1.0  0.54890  0.18630  0.09930  1.0000
  C   C704      1.0  0.95110  0.81370  0.59930  1.0000
  H   H369      1.0  0.06041  0.82897  0.16843  1.0000
  H   H370      1.0  0.43959  0.17103  0.66843  1.0000
  H   H371      1.0  0.92103  0.31041  0.41843  1.0000
  H   H372      1.0  0.57897  0.68959  0.91843  1.0000
  H   H373      1.0  0.56041  0.32897  0.66843  1.0000
  H   H374      1.0  0.93959  0.67103  0.16843  1.0000
  H   H375      1.0  0.42103  0.81041  0.91843  1.0000
  H   H376      1.0  0.07897  0.18959  0.41843  1.0000
  H   H377      1.0  0.93959  0.17103  0.83157  1.0000
  H   H378      1.0  0.56041  0.82897  0.33157  1.0000
  H   H379      1.0  0.07897  0.68959  0.58157  1.0000
  H   H380      1.0  0.42103  0.31041  0.08157  1.0000
  H   H381      1.0  0.43959  0.67103  0.33157  1.0000
  H   H382      1.0  0.06041  0.32897  0.83157  1.0000
  H   H383      1.0  0.57897  0.18959  0.08157  1.0000
  H   H384      1.0  0.92103  0.81041  0.58157  1.0000
  C   C705      1.0  0.06820  0.75270  0.17210  1.0000
  C   C706      1.0  0.43180  0.24730  0.67210  1.0000
  C   C707      1.0  0.99730  0.31820  0.42210  1.0000
  C   C708      1.0  0.50270  0.68180  0.92210  1.0000
  C   C709      1.0  0.56820  0.25270  0.67210  1.0000
  C   C710      1.0  0.93180  0.74730  0.17210  1.0000
  C   C711      1.0  0.49730  0.81820  0.92210  1.0000
  C   C712      1.0  0.00270  0.18180  0.42210  1.0000
  C   C713      1.0  0.93180  0.24730  0.82790  1.0000
  C   C714      1.0  0.56820  0.75270  0.32790  1.0000
  C   C715      1.0  0.00270  0.68180  0.57790  1.0000
  C   C716      1.0  0.49730  0.31820  0.07790  1.0000
  C   C717      1.0  0.43180  0.74730  0.32790  1.0000
  C   C718      1.0  0.06820  0.25270  0.82790  1.0000
  C   C719      1.0  0.50270  0.18180  0.07790  1.0000
  C   C720      1.0  0.99730  0.81820  0.57790  1.0000
  H   H385      1.0  0.06773  0.75003  0.20454  1.0000
  H   H386      1.0  0.43227  0.24997  0.70454  1.0000
  H   H387      1.0  0.99997  0.31773  0.45454  1.0000
  H   H388      1.0  0.50003  0.68227  0.95454  1.0000
  H   H389      1.0  0.56773  0.25003  0.70454  1.0000
  H   H390      1.0  0.93227  0.74997  0.20454  1.0000
  H   H391      1.0  0.49997  0.81773  0.95454  1.0000
  H   H392      1.0  0.00003  0.18227  0.45454  1.0000
  H   H393      1.0  0.93227  0.24997  0.79546  1.0000
  H   H394      1.0  0.56773  0.75003  0.29546  1.0000
  H   H395      1.0  0.00003  0.68227  0.54546  1.0000
  H   H396      1.0  0.49997  0.31773  0.04546  1.0000
  H   H397      1.0  0.43227  0.74997  0.29546  1.0000
  H   H398      1.0  0.06773  0.25003  0.79546  1.0000
  H   H399      1.0  0.50003  0.18227  0.04546  1.0000
  H   H400      1.0  0.99997  0.81773  0.54546  1.0000
  C   C721      1.0  0.07360  0.70970  0.14450  1.0000
  C   C722      1.0  0.42640  0.29030  0.64450  1.0000
  C   C723      1.0  0.04030  0.32360  0.39450  1.0000
  C   C724      1.0  0.45970  0.67640  0.89450  1.0000
  C   C725      1.0  0.57360  0.20970  0.64450  1.0000
  C   C726      1.0  0.92640  0.79030  0.14450  1.0000
  C   C727      1.0  0.54030  0.82360  0.89450  1.0000
  C   C728      1.0  0.95970  0.17640  0.39450  1.0000
  C   C729      1.0  0.92640  0.29030  0.85550  1.0000
  C   C730      1.0  0.57360  0.70970  0.35550  1.0000
  C   C731      1.0  0.95970  0.67640  0.60550  1.0000
  C   C732      1.0  0.54030  0.32360  0.10550  1.0000
  C   C733      1.0  0.42640  0.79030  0.35550  1.0000
  C   C734      1.0  0.07360  0.20970  0.85550  1.0000
  C   C735      1.0  0.45970  0.17640  0.10550  1.0000
  C   C736      1.0  0.04030  0.82360  0.60550  1.0000
  C   C737      1.0  0.07970  0.65040  0.94530  1.0000
  C   C738      1.0  0.42030  0.34960  0.44530  1.0000
  C   C739      1.0  0.09960  0.32970  0.19530  1.0000
  C   C740      1.0  0.40040  0.67030  0.69530  1.0000
  C   C741      1.0  0.57970  0.15040  0.44530  1.0000
  C   C742      1.0  0.92030  0.84960  0.94530  1.0000
  C   C743      1.0  0.59960  0.82970  0.69530  1.0000
  C   C744      1.0  0.90040  0.17030  0.19530  1.0000
  C   C745      1.0  0.92030  0.34960  0.05470  1.0000
  C   C746      1.0  0.57970  0.65040  0.55470  1.0000
  C   C747      1.0  0.90040  0.67030  0.80470  1.0000
  C   C748      1.0  0.59960  0.32970  0.30470  1.0000
  C   C749      1.0  0.42030  0.84960  0.55470  1.0000
  C   C750      1.0  0.07970  0.15040  0.05470  1.0000
  C   C751      1.0  0.40040  0.17030  0.30470  1.0000
  C   C752      1.0  0.09960  0.82970  0.80470  1.0000
  C   C753      1.0  0.07980  0.65690  0.16430  1.0000
  C   C754      1.0  0.42020  0.34310  0.66430  1.0000
  C   C755      1.0  0.09310  0.32980  0.41430  1.0000
  C   C756      1.0  0.40690  0.67020  0.91430  1.0000
  C   C757      1.0  0.57980  0.15690  0.66430  1.0000
  C   C758      1.0  0.92020  0.84310  0.16430  1.0000
  C   C759      1.0  0.59310  0.82980  0.91430  1.0000
  C   C760      1.0  0.90690  0.17020  0.41430  1.0000
  C   C761      1.0  0.92020  0.34310  0.83570  1.0000
  C   C762      1.0  0.57980  0.65690  0.33570  1.0000
  C   C763      1.0  0.90690  0.67020  0.58570  1.0000
  C   C764      1.0  0.59310  0.32980  0.08570  1.0000
  C   C765      1.0  0.42020  0.84310  0.33570  1.0000
  C   C766      1.0  0.07980  0.15690  0.83570  1.0000
  C   C767      1.0  0.40690  0.17020  0.08570  1.0000
  C   C768      1.0  0.09310  0.82980  0.58570  1.0000
  C   C769      1.0  0.25510  0.71220  0.92480  1.0000
  C   C770      1.0  0.24490  0.28780  0.42480  1.0000
  C   C771      1.0  0.03780  0.50510  0.17480  1.0000
  C   C772      1.0  0.46220  0.49490  0.67480  1.0000
  C   C773      1.0  0.75510  0.21220  0.42480  1.0000
  C   C774      1.0  0.74490  0.78780  0.92480  1.0000
  C   C775      1.0  0.53780  0.00510  0.67480  1.0000
  C   C776      1.0  0.96220  0.99490  0.17480  1.0000
  C   C777      1.0  0.74490  0.28780  0.07520  1.0000
  C   C778      1.0  0.75510  0.71220  0.57520  1.0000
  C   C779      1.0  0.96220  0.49490  0.82520  1.0000
  C   C780      1.0  0.53780  0.50510  0.32520  1.0000
  C   C781      1.0  0.24490  0.78780  0.57520  1.0000
  C   C782      1.0  0.25510  0.21220  0.07520  1.0000
  C   C783      1.0  0.46220  0.99490  0.32520  1.0000
  C   C784      1.0  0.03780  0.00510  0.82520  1.0000
  H   H401      1.0  0.26025  0.71632  0.89141  1.0000
  H   H402      1.0  0.23975  0.28368  0.39141  1.0000
  H   H403      1.0  0.03368  0.51025  0.14141  1.0000
  H   H404      1.0  0.46632  0.48975  0.64141  1.0000
  H   H405      1.0  0.76025  0.21632  0.39141  1.0000
  H   H406      1.0  0.73975  0.78368  0.89141  1.0000
  H   H407      1.0  0.53368  0.01025  0.64141  1.0000
  H   H408      1.0  0.96632  0.98975  0.14141  1.0000
  H   H409      1.0  0.73975  0.28368  0.10859  1.0000
  H   H410      1.0  0.76025  0.71632  0.60859  1.0000
  H   H411      1.0  0.96632  0.48975  0.85859  1.0000
  H   H412      1.0  0.53368  0.51025  0.35859  1.0000
  H   H413      1.0  0.23975  0.78368  0.60859  1.0000
  H   H414      1.0  0.26025  0.21632  0.10859  1.0000
  H   H415      1.0  0.46632  0.98975  0.35859  1.0000
  H   H416      1.0  0.03368  0.01025  0.85859  1.0000
  H   H417      1.0  0.26608  0.74413  0.93972  1.0000
  H   H418      1.0  0.23392  0.25587  0.43972  1.0000
  H   H419      1.0  0.00587  0.51608  0.18972  1.0000
  H   H420      1.0  0.49413  0.48392  0.68972  1.0000
  H   H421      1.0  0.76608  0.24413  0.43972  1.0000
  H   H422      1.0  0.73392  0.75587  0.93972  1.0000
  H   H423      1.0  0.50587  0.01608  0.68972  1.0000
  H   H424      1.0  0.99413  0.98392  0.18972  1.0000
  H   H425      1.0  0.73392  0.25587  0.06028  1.0000
  H   H426      1.0  0.76608  0.74413  0.56028  1.0000
  H   H427      1.0  0.99413  0.48392  0.81028  1.0000
  H   H428      1.0  0.50587  0.51608  0.31028  1.0000
  H   H429      1.0  0.23392  0.75587  0.56028  1.0000
  H   H430      1.0  0.26608  0.24413  0.06028  1.0000
  H   H431      1.0  0.49413  0.98392  0.31028  1.0000
  H   H432      1.0  0.00587  0.01608  0.81028  1.0000
  C   C785      1.0  0.19760  0.70440  0.93410  1.0000
  C   C786      1.0  0.30240  0.29560  0.43410  1.0000
  C   C787      1.0  0.04560  0.44760  0.18410  1.0000
  C   C788      1.0  0.45440  0.55240  0.68410  1.0000
  C   C789      1.0  0.69760  0.20440  0.43410  1.0000
  C   C790      1.0  0.80240  0.79560  0.93410  1.0000
  C   C791      1.0  0.54560  0.94760  0.68410  1.0000
  C   C792      1.0  0.95440  0.05240  0.18410  1.0000
  C   C793      1.0  0.80240  0.29560  0.06590  1.0000
  C   C794      1.0  0.69760  0.70440  0.56590  1.0000
  C   C795      1.0  0.95440  0.55240  0.81590  1.0000
  C   C796      1.0  0.54560  0.44760  0.31590  1.0000
  C   C797      1.0  0.30240  0.79560  0.56590  1.0000
  C   C798      1.0  0.19760  0.20440  0.06590  1.0000
  C   C799      1.0  0.45440  0.05240  0.31590  1.0000
  C   C800      1.0  0.04560  0.94760  0.81590  1.0000
  H   H433      1.0  0.17862  0.73360  0.92226  1.0000
  H   H434      1.0  0.32138  0.26640  0.42226  1.0000
  H   H435      1.0  0.01640  0.42862  0.17226  1.0000
  H   H436      1.0  0.48360  0.57138  0.67226  1.0000
  H   H437      1.0  0.67862  0.23360  0.42226  1.0000
  H   H438      1.0  0.82138  0.76640  0.92226  1.0000
  H   H439      1.0  0.51640  0.92862  0.67226  1.0000
  H   H440      1.0  0.98360  0.07138  0.17226  1.0000
  H   H441      1.0  0.82138  0.26640  0.07774  1.0000
  H   H442      1.0  0.67862  0.73360  0.57774  1.0000
  H   H443      1.0  0.98360  0.57138  0.82774  1.0000
  H   H444      1.0  0.51640  0.42862  0.32774  1.0000
  H   H445      1.0  0.32138  0.76640  0.57774  1.0000
  H   H446      1.0  0.17862  0.23360  0.07774  1.0000
  H   H447      1.0  0.48360  0.07138  0.32774  1.0000
  H   H448      1.0  0.01640  0.92862  0.82774  1.0000
  H   H449      1.0  0.18607  0.67344  0.91868  1.0000
  H   H450      1.0  0.31393  0.32656  0.41868  1.0000
  H   H451      1.0  0.07656  0.43607  0.16868  1.0000
  H   H452      1.0  0.42344  0.56393  0.66868  1.0000
  H   H453      1.0  0.68607  0.17344  0.41868  1.0000
  H   H454      1.0  0.81393  0.82656  0.91868  1.0000
  H   H455      1.0  0.57656  0.93607  0.66868  1.0000
  H   H456      1.0  0.92344  0.06393  0.16868  1.0000
  H   H457      1.0  0.81393  0.32656  0.08132  1.0000
  H   H458      1.0  0.68607  0.67344  0.58132  1.0000
  H   H459      1.0  0.92344  0.56393  0.83132  1.0000
  H   H460      1.0  0.57656  0.43607  0.33132  1.0000
  H   H461      1.0  0.31393  0.82656  0.58132  1.0000
  H   H462      1.0  0.18607  0.17344  0.08132  1.0000
  H   H463      1.0  0.42344  0.06393  0.33132  1.0000
  H   H464      1.0  0.07656  0.93607  0.83132  1.0000
  H   H465      1.0  0.19190  0.70129  0.96708  1.0000
  H   H466      1.0  0.30810  0.29871  0.46708  1.0000
  H   H467      1.0  0.04871  0.44190  0.21708  1.0000
  H   H468      1.0  0.45129  0.55810  0.71708  1.0000
  H   H469      1.0  0.69190  0.20129  0.46708  1.0000
  H   H470      1.0  0.80810  0.79871  0.96708  1.0000
  H   H471      1.0  0.54871  0.94190  0.71708  1.0000
  H   H472      1.0  0.95129  0.05810  0.21708  1.0000
  H   H473      1.0  0.80810  0.29871  0.03292  1.0000
  H   H474      1.0  0.69190  0.70129  0.53292  1.0000
  H   H475      1.0  0.95129  0.55810  0.78292  1.0000
  H   H476      1.0  0.54871  0.44190  0.28292  1.0000
  H   H477      1.0  0.30810  0.79871  0.53292  1.0000
  H   H478      1.0  0.19190  0.20129  0.03292  1.0000
  H   H479      1.0  0.45129  0.05810  0.28292  1.0000
  H   H480      1.0  0.04871  0.94190  0.78292  1.0000
