data_image0
_chemical_formula_structural       Co144O864C36H36C36H36C36H36C36H36C36H36C36H36C36H36C36H36C36H36C36H36C36H36C36H36
_chemical_formula_sum              "Co144 O864 C432 H432"
_cell_length_a       29.5708
_cell_length_b       29.5708
_cell_length_c       39.5894
_cell_angle_alpha    90
_cell_angle_beta     90
_cell_angle_gamma    120

_space_group_name_H-M_alt    "P 1"
_space_group_IT_number       1

loop_
  _space_group_symop_operation_xyz
  'x, y, z'

loop_
  _atom_site_type_symbol
  _atom_site_label
  _atom_site_symmetry_multiplicity
  _atom_site_fract_x
  _atom_site_fract_y
  _atom_site_fract_z
  _atom_site_occupancy
  Co  Co1       1.0  0.16358  0.16358  0.25000  1.0000
  Co  Co2       1.0  0.83642  0.00000  0.25000  1.0000
  Co  Co3       1.0  0.00000  0.83642  0.25000  1.0000
  Co  Co4       1.0  0.83025  0.49691  0.58333  1.0000
  Co  Co5       1.0  0.50309  0.33333  0.58333  1.0000
  Co  Co6       1.0  0.66667  0.16975  0.58333  1.0000
  Co  Co7       1.0  0.49691  0.83025  0.91667  1.0000
  Co  Co8       1.0  0.16975  0.66667  0.91667  1.0000
  Co  Co9       1.0  0.33333  0.50309  0.91667  1.0000
  Co  Co10      1.0  0.83642  0.83642  0.75000  1.0000
  Co  Co11      1.0  0.16358  0.00000  0.75000  1.0000
  Co  Co12      1.0  0.00000  0.16358  0.75000  1.0000
  Co  Co13      1.0  0.16975  0.50309  0.41667  1.0000
  Co  Co14      1.0  0.49691  0.66667  0.41667  1.0000
  Co  Co15      1.0  0.33333  0.83025  0.41667  1.0000
  Co  Co16      1.0  0.50309  0.16975  0.08333  1.0000
  Co  Co17      1.0  0.83025  0.33333  0.08333  1.0000
  Co  Co18      1.0  0.66667  0.49691  0.08333  1.0000
  Co  Co19      1.0  0.00000  0.00000  0.16428  1.0000
  Co  Co20      1.0  0.00000  0.00000  0.33572  1.0000
  Co  Co21      1.0  0.66667  0.33333  0.49761  1.0000
  Co  Co22      1.0  0.66667  0.33333  0.66906  1.0000
  Co  Co23      1.0  0.33333  0.66667  0.83094  1.0000
  Co  Co24      1.0  0.33333  0.66667  0.00239  1.0000
  Co  Co25      1.0  0.00000  0.00000  0.83572  1.0000
  Co  Co26      1.0  0.00000  0.00000  0.66428  1.0000
  Co  Co27      1.0  0.33333  0.66667  0.50239  1.0000
  Co  Co28      1.0  0.33333  0.66667  0.33094  1.0000
  Co  Co29      1.0  0.66667  0.33333  0.16906  1.0000
  Co  Co30      1.0  0.66667  0.33333  0.99761  1.0000
  Co  Co31      1.0  0.16820  0.33124  0.16659  1.0000
  Co  Co32      1.0  0.66876  0.83696  0.16659  1.0000
  Co  Co33      1.0  0.16304  0.83180  0.16659  1.0000
  Co  Co34      1.0  0.33124  0.16820  0.33341  1.0000
  Co  Co35      1.0  0.83696  0.66876  0.33341  1.0000
  Co  Co36      1.0  0.83180  0.16304  0.33341  1.0000
  Co  Co37      1.0  0.83486  0.66458  0.49993  1.0000
  Co  Co38      1.0  0.33542  0.17029  0.49993  1.0000
  Co  Co39      1.0  0.82971  0.16514  0.49993  1.0000
  Co  Co40      1.0  0.99791  0.50153  0.66674  1.0000
  Co  Co41      1.0  0.50362  0.00209  0.66674  1.0000
  Co  Co42      1.0  0.49847  0.49638  0.66674  1.0000
  Co  Co43      1.0  0.50153  0.99791  0.83326  1.0000
  Co  Co44      1.0  0.00209  0.50362  0.83326  1.0000
  Co  Co45      1.0  0.49638  0.49847  0.83326  1.0000
  Co  Co46      1.0  0.66458  0.83486  0.00007  1.0000
  Co  Co47      1.0  0.17029  0.33542  0.00007  1.0000
  Co  Co48      1.0  0.16514  0.82971  0.00007  1.0000
  Co  Co49      1.0  0.83180  0.66876  0.83341  1.0000
  Co  Co50      1.0  0.33124  0.16304  0.83341  1.0000
  Co  Co51      1.0  0.83696  0.16820  0.83341  1.0000
  Co  Co52      1.0  0.66876  0.83180  0.66659  1.0000
  Co  Co53      1.0  0.16304  0.33124  0.66659  1.0000
  Co  Co54      1.0  0.16820  0.83696  0.66659  1.0000
  Co  Co55      1.0  0.16514  0.33542  0.50007  1.0000
  Co  Co56      1.0  0.66458  0.82971  0.50007  1.0000
  Co  Co57      1.0  0.17029  0.83486  0.50007  1.0000
  Co  Co58      1.0  0.00209  0.49847  0.33326  1.0000
  Co  Co59      1.0  0.49638  0.99791  0.33326  1.0000
  Co  Co60      1.0  0.50153  0.50362  0.33326  1.0000
  Co  Co61      1.0  0.49847  0.00209  0.16674  1.0000
  Co  Co62      1.0  0.99791  0.49638  0.16674  1.0000
  Co  Co63      1.0  0.50362  0.50153  0.16674  1.0000
  Co  Co64      1.0  0.33542  0.16514  0.99993  1.0000
  Co  Co65      1.0  0.82971  0.66458  0.99993  1.0000
  Co  Co66      1.0  0.83486  0.17029  0.99993  1.0000
  Co  Co67      1.0  0.33330  0.16670  0.16670  1.0000
  Co  Co68      1.0  0.83330  0.16660  0.16670  1.0000
  Co  Co69      1.0  0.83340  0.66670  0.16670  1.0000
  Co  Co70      1.0  0.16670  0.33330  0.33330  1.0000
  Co  Co71      1.0  0.16660  0.83330  0.33330  1.0000
  Co  Co72      1.0  0.66670  0.83340  0.33330  1.0000
  Co  Co73      1.0  0.99997  0.50003  0.50003  1.0000
  Co  Co74      1.0  0.49997  0.49993  0.50003  1.0000
  Co  Co75      1.0  0.50007  0.00003  0.50003  1.0000
  Co  Co76      1.0  0.83337  0.66663  0.66663  1.0000
  Co  Co77      1.0  0.83327  0.16663  0.66663  1.0000
  Co  Co78      1.0  0.33337  0.16673  0.66663  1.0000
  Co  Co79      1.0  0.66663  0.83337  0.83337  1.0000
  Co  Co80      1.0  0.16663  0.83327  0.83337  1.0000
  Co  Co81      1.0  0.16673  0.33337  0.83337  1.0000
  Co  Co82      1.0  0.50003  0.99997  0.99997  1.0000
  Co  Co83      1.0  0.49993  0.49997  0.99997  1.0000
  Co  Co84      1.0  0.00003  0.50007  0.99997  1.0000
  Co  Co85      1.0  0.99987  0.16855  0.08232  1.0000
  Co  Co86      1.0  0.83145  0.83131  0.08232  1.0000
  Co  Co87      1.0  0.16869  0.00014  0.08232  1.0000
  Co  Co88      1.0  0.16855  0.99987  0.41768  1.0000
  Co  Co89      1.0  0.83131  0.83145  0.41768  1.0000
  Co  Co90      1.0  0.00014  0.16869  0.41768  1.0000
  Co  Co91      1.0  0.66653  0.50189  0.41565  1.0000
  Co  Co92      1.0  0.49811  0.16465  0.41565  1.0000
  Co  Co93      1.0  0.83535  0.33347  0.41565  1.0000
  Co  Co94      1.0  0.83522  0.33320  0.75102  1.0000
  Co  Co95      1.0  0.49798  0.16478  0.75102  1.0000
  Co  Co96      1.0  0.66680  0.50202  0.75102  1.0000
  Co  Co97      1.0  0.33320  0.83522  0.74898  1.0000
  Co  Co98      1.0  0.16478  0.49798  0.74898  1.0000
  Co  Co99      1.0  0.50202  0.66680  0.74898  1.0000
  Co  Co100     1.0  0.50189  0.66653  0.08435  1.0000
  Co  Co101     1.0  0.16465  0.49811  0.08435  1.0000
  Co  Co102     1.0  0.33347  0.83535  0.08435  1.0000
  Co  Co103     1.0  0.00013  0.83145  0.91768  1.0000
  Co  Co104     1.0  0.16855  0.16869  0.91768  1.0000
  Co  Co105     1.0  0.83131  0.99987  0.91768  1.0000
  Co  Co106     1.0  0.83145  0.00014  0.58232  1.0000
  Co  Co107     1.0  0.16869  0.16855  0.58232  1.0000
  Co  Co108     1.0  0.99987  0.83131  0.58232  1.0000
  Co  Co109     1.0  0.33347  0.49811  0.58435  1.0000
  Co  Co110     1.0  0.50189  0.83535  0.58435  1.0000
  Co  Co111     1.0  0.16465  0.66653  0.58435  1.0000
  Co  Co112     1.0  0.16478  0.66680  0.24898  1.0000
  Co  Co113     1.0  0.50202  0.83522  0.24898  1.0000
  Co  Co114     1.0  0.33320  0.49798  0.24898  1.0000
  Co  Co115     1.0  0.66680  0.16478  0.25102  1.0000
  Co  Co116     1.0  0.83522  0.50202  0.25102  1.0000
  Co  Co117     1.0  0.49798  0.33320  0.25102  1.0000
  Co  Co118     1.0  0.49811  0.33347  0.91565  1.0000
  Co  Co119     1.0  0.83535  0.50189  0.91565  1.0000
  Co  Co120     1.0  0.66653  0.16465  0.91565  1.0000
  Co  Co121     1.0  0.33618  0.33330  0.08330  1.0000
  Co  Co122     1.0  0.66670  0.00288  0.08330  1.0000
  Co  Co123     1.0  0.99712  0.66382  0.08330  1.0000
  Co  Co124     1.0  0.33330  0.33618  0.41670  1.0000
  Co  Co125     1.0  0.00288  0.66670  0.41670  1.0000
  Co  Co126     1.0  0.66382  0.99712  0.41670  1.0000
  Co  Co127     1.0  0.99997  0.66951  0.75003  1.0000
  Co  Co128     1.0  0.66955  0.00003  0.75003  1.0000
  Co  Co129     1.0  0.33049  0.33045  0.75003  1.0000
  Co  Co130     1.0  0.66382  0.66670  0.91670  1.0000
  Co  Co131     1.0  0.33330  0.99712  0.91670  1.0000
  Co  Co132     1.0  0.00288  0.33618  0.91670  1.0000
  Co  Co133     1.0  0.66670  0.66382  0.58330  1.0000
  Co  Co134     1.0  0.99712  0.33330  0.58330  1.0000
  Co  Co135     1.0  0.33618  0.00288  0.58330  1.0000
  Co  Co136     1.0  0.00003  0.33049  0.24997  1.0000
  Co  Co137     1.0  0.33045  0.99997  0.24997  1.0000
  Co  Co138     1.0  0.66951  0.66955  0.24997  1.0000
  Co  Co139     1.0  0.00000  0.00000  0.00000  1.0000
  Co  Co140     1.0  0.00000  0.00000  0.50000  1.0000
  Co  Co141     1.0  0.66667  0.33333  0.33333  1.0000
  Co  Co142     1.0  0.66667  0.33333  0.83333  1.0000
  Co  Co143     1.0  0.33333  0.66667  0.66667  1.0000
  Co  Co144     1.0  0.33333  0.66667  0.16667  1.0000
  O   O1        1.0  0.13309  0.09625  0.22052  1.0000
  O   O2        1.0  0.90375  0.03684  0.22052  1.0000
  O   O3        1.0  0.96316  0.86691  0.22052  1.0000
  O   O4        1.0  0.09625  0.13309  0.27948  1.0000
  O   O5        1.0  0.03684  0.90375  0.27948  1.0000
  O   O6        1.0  0.86691  0.96316  0.27948  1.0000
  O   O7        1.0  0.79976  0.42958  0.55385  1.0000
  O   O8        1.0  0.57042  0.37017  0.55385  1.0000
  O   O9        1.0  0.62983  0.20024  0.55385  1.0000
  O   O10       1.0  0.76292  0.46642  0.61281  1.0000
  O   O11       1.0  0.70351  0.23708  0.61281  1.0000
  O   O12       1.0  0.53358  0.29649  0.61281  1.0000
  O   O13       1.0  0.46642  0.76292  0.88719  1.0000
  O   O14       1.0  0.23708  0.70351  0.88719  1.0000
  O   O15       1.0  0.29649  0.53358  0.88719  1.0000
  O   O16       1.0  0.42958  0.79976  0.94615  1.0000
  O   O17       1.0  0.37017  0.57042  0.94615  1.0000
  O   O18       1.0  0.20024  0.62983  0.94615  1.0000
  O   O19       1.0  0.86691  0.90375  0.77948  1.0000
  O   O20       1.0  0.09625  0.96316  0.77948  1.0000
  O   O21       1.0  0.03684  0.13309  0.77948  1.0000
  O   O22       1.0  0.90375  0.86691  0.72052  1.0000
  O   O23       1.0  0.96316  0.09625  0.72052  1.0000
  O   O24       1.0  0.13309  0.03684  0.72052  1.0000
  O   O25       1.0  0.20024  0.57042  0.44615  1.0000
  O   O26       1.0  0.42958  0.62983  0.44615  1.0000
  O   O27       1.0  0.37017  0.79976  0.44615  1.0000
  O   O28       1.0  0.23708  0.53358  0.38719  1.0000
  O   O29       1.0  0.29649  0.76292  0.38719  1.0000
  O   O30       1.0  0.46642  0.70351  0.38719  1.0000
  O   O31       1.0  0.53358  0.23708  0.11281  1.0000
  O   O32       1.0  0.76292  0.29649  0.11281  1.0000
  O   O33       1.0  0.70351  0.46642  0.11281  1.0000
  O   O34       1.0  0.57042  0.20024  0.05385  1.0000
  O   O35       1.0  0.62983  0.42958  0.05385  1.0000
  O   O36       1.0  0.79976  0.37017  0.05385  1.0000
  O   O37       1.0  0.06849  0.03013  0.19322  1.0000
  O   O38       1.0  0.96987  0.03836  0.19322  1.0000
  O   O39       1.0  0.96164  0.93151  0.19322  1.0000
  O   O40       1.0  0.03013  0.06849  0.30678  1.0000
  O   O41       1.0  0.03836  0.96987  0.30678  1.0000
  O   O42       1.0  0.93151  0.96164  0.30678  1.0000
  O   O43       1.0  0.73516  0.36346  0.52655  1.0000
  O   O44       1.0  0.63654  0.37169  0.52655  1.0000
  O   O45       1.0  0.62831  0.26484  0.52655  1.0000
  O   O46       1.0  0.69680  0.40182  0.64011  1.0000
  O   O47       1.0  0.70503  0.30320  0.64011  1.0000
  O   O48       1.0  0.59818  0.29497  0.64011  1.0000
  O   O49       1.0  0.40182  0.69680  0.85989  1.0000
  O   O50       1.0  0.30320  0.70503  0.85989  1.0000
  O   O51       1.0  0.29497  0.59818  0.85989  1.0000
  O   O52       1.0  0.36346  0.73516  0.97345  1.0000
  O   O53       1.0  0.37169  0.63654  0.97345  1.0000
  O   O54       1.0  0.26484  0.62831  0.97345  1.0000
  O   O55       1.0  0.93151  0.96987  0.80678  1.0000
  O   O56       1.0  0.03013  0.96164  0.80678  1.0000
  O   O57       1.0  0.03836  0.06849  0.80678  1.0000
  O   O58       1.0  0.96987  0.93151  0.69322  1.0000
  O   O59       1.0  0.96164  0.03013  0.69322  1.0000
  O   O60       1.0  0.06849  0.03836  0.69322  1.0000
  O   O61       1.0  0.26484  0.63654  0.47345  1.0000
  O   O62       1.0  0.36346  0.62831  0.47345  1.0000
  O   O63       1.0  0.37169  0.73516  0.47345  1.0000
  O   O64       1.0  0.30320  0.59818  0.35989  1.0000
  O   O65       1.0  0.29497  0.69680  0.35989  1.0000
  O   O66       1.0  0.40182  0.70503  0.35989  1.0000
  O   O67       1.0  0.59818  0.30320  0.14011  1.0000
  O   O68       1.0  0.69680  0.29497  0.14011  1.0000
  O   O69       1.0  0.70503  0.40182  0.14011  1.0000
  O   O70       1.0  0.63654  0.26484  0.02655  1.0000
  O   O71       1.0  0.62831  0.36346  0.02655  1.0000
  O   O72       1.0  0.73516  0.37169  0.02655  1.0000
  O   O73       1.0  0.12907  0.19474  0.21799  1.0000
  O   O74       1.0  0.80526  0.93433  0.21799  1.0000
  O   O75       1.0  0.06567  0.87093  0.21799  1.0000
  O   O76       1.0  0.19474  0.12907  0.28201  1.0000
  O   O77       1.0  0.93433  0.80526  0.28201  1.0000
  O   O78       1.0  0.87093  0.06567  0.28201  1.0000
  O   O79       1.0  0.79574  0.52807  0.55132  1.0000
  O   O80       1.0  0.47193  0.26766  0.55132  1.0000
  O   O81       1.0  0.73234  0.20426  0.55132  1.0000
  O   O82       1.0  0.86141  0.46240  0.61534  1.0000
  O   O83       1.0  0.60100  0.13859  0.61534  1.0000
  O   O84       1.0  0.53760  0.39900  0.61534  1.0000
  O   O85       1.0  0.46240  0.86141  0.88466  1.0000
  O   O86       1.0  0.13859  0.60100  0.88466  1.0000
  O   O87       1.0  0.39900  0.53760  0.88466  1.0000
  O   O88       1.0  0.52807  0.79574  0.94868  1.0000
  O   O89       1.0  0.26766  0.47193  0.94868  1.0000
  O   O90       1.0  0.20426  0.73234  0.94868  1.0000
  O   O91       1.0  0.87093  0.80526  0.78201  1.0000
  O   O92       1.0  0.19474  0.06567  0.78201  1.0000
  O   O93       1.0  0.93433  0.12907  0.78201  1.0000
  O   O94       1.0  0.80526  0.87093  0.71799  1.0000
  O   O95       1.0  0.06567  0.19474  0.71799  1.0000
  O   O96       1.0  0.12907  0.93433  0.71799  1.0000
  O   O97       1.0  0.20426  0.47193  0.44868  1.0000
  O   O98       1.0  0.52807  0.73234  0.44868  1.0000
  O   O99       1.0  0.26766  0.79574  0.44868  1.0000
  O   O100      1.0  0.13859  0.53760  0.38466  1.0000
  O   O101      1.0  0.39900  0.86141  0.38466  1.0000
  O   O102      1.0  0.46240  0.60100  0.38466  1.0000
  O   O103      1.0  0.53760  0.13859  0.11534  1.0000
  O   O104      1.0  0.86141  0.39900  0.11534  1.0000
  O   O105      1.0  0.60100  0.46240  0.11534  1.0000
  O   O106      1.0  0.47193  0.20426  0.05132  1.0000
  O   O107      1.0  0.73234  0.52807  0.05132  1.0000
  O   O108      1.0  0.79574  0.26766  0.05132  1.0000
  O   O109      1.0  0.12984  0.26256  0.19378  1.0000
  O   O110      1.0  0.73744  0.86728  0.19378  1.0000
  O   O111      1.0  0.13272  0.87016  0.19378  1.0000
  O   O112      1.0  0.26256  0.12984  0.30622  1.0000
  O   O113      1.0  0.86728  0.73744  0.30622  1.0000
  O   O114      1.0  0.87016  0.13272  0.30622  1.0000
  O   O115      1.0  0.79651  0.59589  0.52711  1.0000
  O   O116      1.0  0.40411  0.20061  0.52711  1.0000
  O   O117      1.0  0.79939  0.20349  0.52711  1.0000
  O   O118      1.0  0.92923  0.46317  0.63955  1.0000
  O   O119      1.0  0.53395  0.07077  0.63955  1.0000
  O   O120      1.0  0.53683  0.46605  0.63955  1.0000
  O   O121      1.0  0.46317  0.92923  0.86045  1.0000
  O   O122      1.0  0.07077  0.53395  0.86045  1.0000
  O   O123      1.0  0.46605  0.53683  0.86045  1.0000
  O   O124      1.0  0.59589  0.79651  0.97289  1.0000
  O   O125      1.0  0.20061  0.40411  0.97289  1.0000
  O   O126      1.0  0.20349  0.79939  0.97289  1.0000
  O   O127      1.0  0.87016  0.73744  0.80622  1.0000
  O   O128      1.0  0.26256  0.13272  0.80622  1.0000
  O   O129      1.0  0.86728  0.12984  0.80622  1.0000
  O   O130      1.0  0.73744  0.87016  0.69378  1.0000
  O   O131      1.0  0.13272  0.26256  0.69378  1.0000
  O   O132      1.0  0.12984  0.86728  0.69378  1.0000
  O   O133      1.0  0.20349  0.40411  0.47289  1.0000
  O   O134      1.0  0.59589  0.79939  0.47289  1.0000
  O   O135      1.0  0.20061  0.79651  0.47289  1.0000
  O   O136      1.0  0.07077  0.53683  0.36045  1.0000
  O   O137      1.0  0.46605  0.92923  0.36045  1.0000
  O   O138      1.0  0.46317  0.53395  0.36045  1.0000
  O   O139      1.0  0.53683  0.07077  0.13955  1.0000
  O   O140      1.0  0.92923  0.46605  0.13955  1.0000
  O   O141      1.0  0.53395  0.46317  0.13955  1.0000
  O   O142      1.0  0.40411  0.20349  0.02711  1.0000
  O   O143      1.0  0.79939  0.59589  0.02711  1.0000
  O   O144      1.0  0.79651  0.20061  0.02711  1.0000
  O   O145      1.0  0.22855  0.19653  0.21825  1.0000
  O   O146      1.0  0.80347  0.03202  0.21825  1.0000
  O   O147      1.0  0.96798  0.77145  0.21825  1.0000
  O   O148      1.0  0.19653  0.22855  0.28175  1.0000
  O   O149      1.0  0.03202  0.80347  0.28175  1.0000
  O   O150      1.0  0.77145  0.96798  0.28175  1.0000
  O   O151      1.0  0.89522  0.52986  0.55158  1.0000
  O   O152      1.0  0.47014  0.36535  0.55158  1.0000
  O   O153      1.0  0.63465  0.10478  0.55158  1.0000
  O   O154      1.0  0.86320  0.56188  0.61508  1.0000
  O   O155      1.0  0.69869  0.13680  0.61508  1.0000
  O   O156      1.0  0.43812  0.30131  0.61508  1.0000
  O   O157      1.0  0.56188  0.86320  0.88492  1.0000
  O   O158      1.0  0.13680  0.69869  0.88492  1.0000
  O   O159      1.0  0.30131  0.43812  0.88492  1.0000
  O   O160      1.0  0.52986  0.89522  0.94842  1.0000
  O   O161      1.0  0.36535  0.47014  0.94842  1.0000
  O   O162      1.0  0.10478  0.63465  0.94842  1.0000
  O   O163      1.0  0.77145  0.80347  0.78175  1.0000
  O   O164      1.0  0.19653  0.96798  0.78175  1.0000
  O   O165      1.0  0.03202  0.22855  0.78175  1.0000
  O   O166      1.0  0.80347  0.77145  0.71825  1.0000
  O   O167      1.0  0.96798  0.19653  0.71825  1.0000
  O   O168      1.0  0.22855  0.03202  0.71825  1.0000
  O   O169      1.0  0.10478  0.47014  0.44842  1.0000
  O   O170      1.0  0.52986  0.63465  0.44842  1.0000
  O   O171      1.0  0.36535  0.89522  0.44842  1.0000
  O   O172      1.0  0.13680  0.43812  0.38492  1.0000
  O   O173      1.0  0.30131  0.86320  0.38492  1.0000
  O   O174      1.0  0.56188  0.69869  0.38492  1.0000
  O   O175      1.0  0.43812  0.13680  0.11508  1.0000
  O   O176      1.0  0.86320  0.30131  0.11508  1.0000
  O   O177      1.0  0.69869  0.56188  0.11508  1.0000
  O   O178      1.0  0.47014  0.10478  0.05158  1.0000
  O   O179      1.0  0.63465  0.52986  0.05158  1.0000
  O   O180      1.0  0.89522  0.36535  0.05158  1.0000
  O   O181      1.0  0.29674  0.20008  0.19288  1.0000
  O   O182      1.0  0.79992  0.09666  0.19288  1.0000
  O   O183      1.0  0.90334  0.70326  0.19288  1.0000
  O   O184      1.0  0.20008  0.29674  0.30712  1.0000
  O   O185      1.0  0.09666  0.79992  0.30712  1.0000
  O   O186      1.0  0.70326  0.90334  0.30712  1.0000
  O   O187      1.0  0.96341  0.53341  0.52621  1.0000
  O   O188      1.0  0.46659  0.42999  0.52621  1.0000
  O   O189      1.0  0.57001  0.03659  0.52621  1.0000
  O   O190      1.0  0.86675  0.63007  0.64045  1.0000
  O   O191      1.0  0.76333  0.13325  0.64045  1.0000
  O   O192      1.0  0.36993  0.23667  0.64045  1.0000
  O   O193      1.0  0.63007  0.86675  0.85955  1.0000
  O   O194      1.0  0.13325  0.76333  0.85955  1.0000
  O   O195      1.0  0.23667  0.36993  0.85955  1.0000
  O   O196      1.0  0.53341  0.96341  0.97379  1.0000
  O   O197      1.0  0.42999  0.46659  0.97379  1.0000
  O   O198      1.0  0.03659  0.57001  0.97379  1.0000
  O   O199      1.0  0.70326  0.79992  0.80712  1.0000
  O   O200      1.0  0.20008  0.90334  0.80712  1.0000
  O   O201      1.0  0.09666  0.29674  0.80712  1.0000
  O   O202      1.0  0.79992  0.70326  0.69288  1.0000
  O   O203      1.0  0.90334  0.20008  0.69288  1.0000
  O   O204      1.0  0.29674  0.09666  0.69288  1.0000
  O   O205      1.0  0.03659  0.46659  0.47379  1.0000
  O   O206      1.0  0.53341  0.57001  0.47379  1.0000
  O   O207      1.0  0.42999  0.96341  0.47379  1.0000
  O   O208      1.0  0.13325  0.36993  0.35955  1.0000
  O   O209      1.0  0.23667  0.86675  0.35955  1.0000
  O   O210      1.0  0.63007  0.76333  0.35955  1.0000
  O   O211      1.0  0.36993  0.13325  0.14045  1.0000
  O   O212      1.0  0.86675  0.23667  0.14045  1.0000
  O   O213      1.0  0.76333  0.63007  0.14045  1.0000
  O   O214      1.0  0.46659  0.03659  0.02621  1.0000
  O   O215      1.0  0.57001  0.53341  0.02621  1.0000
  O   O216      1.0  0.96341  0.42999  0.02621  1.0000
  O   O217      1.0  0.03544  0.06951  0.13728  1.0000
  O   O218      1.0  0.93049  0.96593  0.13728  1.0000
  O   O219      1.0  0.03407  0.96456  0.13728  1.0000
  O   O220      1.0  0.06951  0.03544  0.36272  1.0000
  O   O221      1.0  0.96593  0.93049  0.36272  1.0000
  O   O222      1.0  0.96456  0.03407  0.36272  1.0000
  O   O223      1.0  0.70211  0.40284  0.47061  1.0000
  O   O224      1.0  0.59716  0.29926  0.47061  1.0000
  O   O225      1.0  0.70074  0.29789  0.47061  1.0000
  O   O226      1.0  0.73618  0.36877  0.69605  1.0000
  O   O227      1.0  0.63260  0.26382  0.69605  1.0000
  O   O228      1.0  0.63123  0.36740  0.69605  1.0000
  O   O229      1.0  0.36877  0.73618  0.80395  1.0000
  O   O230      1.0  0.26382  0.63260  0.80395  1.0000
  O   O231      1.0  0.36740  0.63123  0.80395  1.0000
  O   O232      1.0  0.40284  0.70211  0.02939  1.0000
  O   O233      1.0  0.29926  0.59716  0.02939  1.0000
  O   O234      1.0  0.29789  0.70074  0.02939  1.0000
  O   O235      1.0  0.96456  0.93049  0.86272  1.0000
  O   O236      1.0  0.06951  0.03407  0.86272  1.0000
  O   O237      1.0  0.96593  0.03544  0.86272  1.0000
  O   O238      1.0  0.93049  0.96456  0.63728  1.0000
  O   O239      1.0  0.03407  0.06951  0.63728  1.0000
  O   O240      1.0  0.03544  0.96593  0.63728  1.0000
  O   O241      1.0  0.29789  0.59716  0.52939  1.0000
  O   O242      1.0  0.40284  0.70074  0.52939  1.0000
  O   O243      1.0  0.29926  0.70211  0.52939  1.0000
  O   O244      1.0  0.26382  0.63123  0.30395  1.0000
  O   O245      1.0  0.36740  0.73618  0.30395  1.0000
  O   O246      1.0  0.36877  0.63260  0.30395  1.0000
  O   O247      1.0  0.63123  0.26382  0.19605  1.0000
  O   O248      1.0  0.73618  0.36740  0.19605  1.0000
  O   O249      1.0  0.63260  0.36877  0.19605  1.0000
  O   O250      1.0  0.59716  0.29789  0.97061  1.0000
  O   O251      1.0  0.70074  0.40284  0.97061  1.0000
  O   O252      1.0  0.70211  0.29926  0.97061  1.0000
  O   O253      1.0  0.03181  0.13534  0.11350  1.0000
  O   O254      1.0  0.86466  0.89647  0.11350  1.0000
  O   O255      1.0  0.10353  0.96819  0.11350  1.0000
  O   O256      1.0  0.13534  0.03181  0.38650  1.0000
  O   O257      1.0  0.89647  0.86466  0.38650  1.0000
  O   O258      1.0  0.96819  0.10353  0.38650  1.0000
  O   O259      1.0  0.69848  0.46867  0.44683  1.0000
  O   O260      1.0  0.53133  0.22980  0.44683  1.0000
  O   O261      1.0  0.77020  0.30152  0.44683  1.0000
  O   O262      1.0  0.80201  0.36514  0.71983  1.0000
  O   O263      1.0  0.56314  0.19799  0.71983  1.0000
  O   O264      1.0  0.63486  0.43686  0.71983  1.0000
  O   O265      1.0  0.36514  0.80201  0.78017  1.0000
  O   O266      1.0  0.19799  0.56314  0.78017  1.0000
  O   O267      1.0  0.43686  0.63486  0.78017  1.0000
  O   O268      1.0  0.46867  0.69848  0.05317  1.0000
  O   O269      1.0  0.22980  0.53133  0.05317  1.0000
  O   O270      1.0  0.30152  0.77020  0.05317  1.0000
  O   O271      1.0  0.96819  0.86466  0.88650  1.0000
  O   O272      1.0  0.13534  0.10353  0.88650  1.0000
  O   O273      1.0  0.89647  0.03181  0.88650  1.0000
  O   O274      1.0  0.86466  0.96819  0.61350  1.0000
  O   O275      1.0  0.10353  0.13534  0.61350  1.0000
  O   O276      1.0  0.03181  0.89647  0.61350  1.0000
  O   O277      1.0  0.30152  0.53133  0.55317  1.0000
  O   O278      1.0  0.46867  0.77020  0.55317  1.0000
  O   O279      1.0  0.22980  0.69848  0.55317  1.0000
  O   O280      1.0  0.19799  0.63486  0.28017  1.0000
  O   O281      1.0  0.43686  0.80201  0.28017  1.0000
  O   O282      1.0  0.36514  0.56314  0.28017  1.0000
  O   O283      1.0  0.63486  0.19799  0.21983  1.0000
  O   O284      1.0  0.80201  0.43686  0.21983  1.0000
  O   O285      1.0  0.56314  0.36514  0.21983  1.0000
  O   O286      1.0  0.53133  0.30152  0.94683  1.0000
  O   O287      1.0  0.77020  0.46867  0.94683  1.0000
  O   O288      1.0  0.69848  0.22980  0.94683  1.0000
  O   O289      1.0  0.09867  0.30250  0.13854  1.0000
  O   O290      1.0  0.69750  0.79617  0.13854  1.0000
  O   O291      1.0  0.20383  0.90133  0.13854  1.0000
  O   O292      1.0  0.30250  0.09867  0.36146  1.0000
  O   O293      1.0  0.79617  0.69750  0.36146  1.0000
  O   O294      1.0  0.90133  0.20383  0.36146  1.0000
  O   O295      1.0  0.76534  0.63583  0.47187  1.0000
  O   O296      1.0  0.36417  0.12950  0.47187  1.0000
  O   O297      1.0  0.87050  0.23466  0.47187  1.0000
  O   O298      1.0  0.96917  0.43200  0.69479  1.0000
  O   O299      1.0  0.46284  0.03083  0.69479  1.0000
  O   O300      1.0  0.56800  0.53716  0.69479  1.0000
  O   O301      1.0  0.43200  0.96917  0.80521  1.0000
  O   O302      1.0  0.03083  0.46284  0.80521  1.0000
  O   O303      1.0  0.53716  0.56800  0.80521  1.0000
  O   O304      1.0  0.63583  0.76534  0.02813  1.0000
  O   O305      1.0  0.12950  0.36417  0.02813  1.0000
  O   O306      1.0  0.23466  0.87050  0.02813  1.0000
  O   O307      1.0  0.90133  0.69750  0.86146  1.0000
  O   O308      1.0  0.30250  0.20383  0.86146  1.0000
  O   O309      1.0  0.79617  0.09867  0.86146  1.0000
  O   O310      1.0  0.69750  0.90133  0.63854  1.0000
  O   O311      1.0  0.20383  0.30250  0.63854  1.0000
  O   O312      1.0  0.09867  0.79617  0.63854  1.0000
  O   O313      1.0  0.23466  0.36417  0.52813  1.0000
  O   O314      1.0  0.63583  0.87050  0.52813  1.0000
  O   O315      1.0  0.12950  0.76534  0.52813  1.0000
  O   O316      1.0  0.03083  0.56800  0.30521  1.0000
  O   O317      1.0  0.53716  0.96917  0.30521  1.0000
  O   O318      1.0  0.43200  0.46284  0.30521  1.0000
  O   O319      1.0  0.56800  0.03083  0.19479  1.0000
  O   O320      1.0  0.96917  0.53716  0.19479  1.0000
  O   O321      1.0  0.46284  0.43200  0.19479  1.0000
  O   O322      1.0  0.36417  0.23466  0.97187  1.0000
  O   O323      1.0  0.87050  0.63583  0.97187  1.0000
  O   O324      1.0  0.76534  0.12950  0.97187  1.0000
  O   O325      1.0  0.03188  0.23486  0.11363  1.0000
  O   O326      1.0  0.76514  0.79702  0.11363  1.0000
  O   O327      1.0  0.20298  0.96812  0.11363  1.0000
  O   O328      1.0  0.23486  0.03188  0.38637  1.0000
  O   O329      1.0  0.79702  0.76514  0.38637  1.0000
  O   O330      1.0  0.96812  0.20298  0.38637  1.0000
  O   O331      1.0  0.69855  0.56819  0.44696  1.0000
  O   O332      1.0  0.43181  0.13035  0.44696  1.0000
  O   O333      1.0  0.86965  0.30145  0.44696  1.0000
  O   O334      1.0  0.90153  0.36521  0.71970  1.0000
  O   O335      1.0  0.46369  0.09847  0.71970  1.0000
  O   O336      1.0  0.63479  0.53631  0.71970  1.0000
  O   O337      1.0  0.36521  0.90153  0.78030  1.0000
  O   O338      1.0  0.09847  0.46369  0.78030  1.0000
  O   O339      1.0  0.53631  0.63479  0.78030  1.0000
  O   O340      1.0  0.56819  0.69855  0.05304  1.0000
  O   O341      1.0  0.13035  0.43181  0.05304  1.0000
  O   O342      1.0  0.30145  0.86965  0.05304  1.0000
  O   O343      1.0  0.96812  0.76514  0.88637  1.0000
  O   O344      1.0  0.23486  0.20298  0.88637  1.0000
  O   O345      1.0  0.79702  0.03188  0.88637  1.0000
  O   O346      1.0  0.76514  0.96812  0.61363  1.0000
  O   O347      1.0  0.20298  0.23486  0.61363  1.0000
  O   O348      1.0  0.03188  0.79702  0.61363  1.0000
  O   O349      1.0  0.30145  0.43181  0.55304  1.0000
  O   O350      1.0  0.56819  0.86965  0.55304  1.0000
  O   O351      1.0  0.13035  0.69855  0.55304  1.0000
  O   O352      1.0  0.09847  0.63479  0.28030  1.0000
  O   O353      1.0  0.53631  0.90153  0.28030  1.0000
  O   O354      1.0  0.36521  0.46369  0.28030  1.0000
  O   O355      1.0  0.63479  0.09847  0.21970  1.0000
  O   O356      1.0  0.90153  0.53631  0.21970  1.0000
  O   O357      1.0  0.46369  0.36521  0.21970  1.0000
  O   O358      1.0  0.43181  0.30145  0.94696  1.0000
  O   O359      1.0  0.86965  0.56819  0.94696  1.0000
  O   O360      1.0  0.69855  0.13035  0.94696  1.0000
  O   O361      1.0  0.19858  0.29413  0.13679  1.0000
  O   O362      1.0  0.70587  0.90445  0.13679  1.0000
  O   O363      1.0  0.09555  0.80142  0.13679  1.0000
  O   O364      1.0  0.29413  0.19858  0.36321  1.0000
  O   O365      1.0  0.90445  0.70587  0.36321  1.0000
  O   O366      1.0  0.80142  0.09555  0.36321  1.0000
  O   O367      1.0  0.86525  0.62746  0.47012  1.0000
  O   O368      1.0  0.37254  0.23778  0.47012  1.0000
  O   O369      1.0  0.76222  0.13475  0.47012  1.0000
  O   O370      1.0  0.96080  0.53191  0.69654  1.0000
  O   O371      1.0  0.57112  0.03920  0.69654  1.0000
  O   O372      1.0  0.46809  0.42888  0.69654  1.0000
  O   O373      1.0  0.53191  0.96080  0.80346  1.0000
  O   O374      1.0  0.03920  0.57112  0.80346  1.0000
  O   O375      1.0  0.42888  0.46809  0.80346  1.0000
  O   O376      1.0  0.62746  0.86525  0.02988  1.0000
  O   O377      1.0  0.23778  0.37254  0.02988  1.0000
  O   O378      1.0  0.13475  0.76222  0.02988  1.0000
  O   O379      1.0  0.80142  0.70587  0.86321  1.0000
  O   O380      1.0  0.29413  0.09555  0.86321  1.0000
  O   O381      1.0  0.90445  0.19858  0.86321  1.0000
  O   O382      1.0  0.70587  0.80142  0.63679  1.0000
  O   O383      1.0  0.09555  0.29413  0.63679  1.0000
  O   O384      1.0  0.19858  0.90445  0.63679  1.0000
  O   O385      1.0  0.13475  0.37254  0.52988  1.0000
  O   O386      1.0  0.62746  0.76222  0.52988  1.0000
  O   O387      1.0  0.23778  0.86525  0.52988  1.0000
  O   O388      1.0  0.03920  0.46809  0.30346  1.0000
  O   O389      1.0  0.42888  0.96080  0.30346  1.0000
  O   O390      1.0  0.53191  0.57112  0.30346  1.0000
  O   O391      1.0  0.46809  0.03920  0.19654  1.0000
  O   O392      1.0  0.96080  0.42888  0.19654  1.0000
  O   O393      1.0  0.57112  0.53191  0.19654  1.0000
  O   O394      1.0  0.37254  0.13475  0.97012  1.0000
  O   O395      1.0  0.76222  0.62746  0.97012  1.0000
  O   O396      1.0  0.86525  0.23778  0.97012  1.0000
  O   O397      1.0  0.26796  0.29674  0.11335  1.0000
  O   O398      1.0  0.70326  0.97122  0.11335  1.0000
  O   O399      1.0  0.02878  0.73204  0.11335  1.0000
  O   O400      1.0  0.29674  0.26796  0.38665  1.0000
  O   O401      1.0  0.97122  0.70326  0.38665  1.0000
  O   O402      1.0  0.73204  0.02878  0.38665  1.0000
  O   O403      1.0  0.93463  0.63007  0.44668  1.0000
  O   O404      1.0  0.36993  0.30455  0.44668  1.0000
  O   O405      1.0  0.69545  0.06537  0.44668  1.0000
  O   O406      1.0  0.96341  0.60129  0.71998  1.0000
  O   O407      1.0  0.63789  0.03659  0.71998  1.0000
  O   O408      1.0  0.39871  0.36211  0.71998  1.0000
  O   O409      1.0  0.60129  0.96341  0.78002  1.0000
  O   O410      1.0  0.03659  0.63789  0.78002  1.0000
  O   O411      1.0  0.36211  0.39871  0.78002  1.0000
  O   O412      1.0  0.63007  0.93463  0.05332  1.0000
  O   O413      1.0  0.30455  0.36993  0.05332  1.0000
  O   O414      1.0  0.06537  0.69545  0.05332  1.0000
  O   O415      1.0  0.73204  0.70326  0.88665  1.0000
  O   O416      1.0  0.29674  0.02878  0.88665  1.0000
  O   O417      1.0  0.97122  0.26796  0.88665  1.0000
  O   O418      1.0  0.70326  0.73204  0.61335  1.0000
  O   O419      1.0  0.02878  0.29674  0.61335  1.0000
  O   O420      1.0  0.26796  0.97122  0.61335  1.0000
  O   O421      1.0  0.06537  0.36993  0.55332  1.0000
  O   O422      1.0  0.63007  0.69545  0.55332  1.0000
  O   O423      1.0  0.30455  0.93463  0.55332  1.0000
  O   O424      1.0  0.03659  0.39871  0.28002  1.0000
  O   O425      1.0  0.36211  0.96341  0.28002  1.0000
  O   O426      1.0  0.60129  0.63789  0.28002  1.0000
  O   O427      1.0  0.39871  0.03659  0.21998  1.0000
  O   O428      1.0  0.96341  0.36211  0.21998  1.0000
  O   O429      1.0  0.63789  0.60129  0.21998  1.0000
  O   O430      1.0  0.36993  0.06537  0.94668  1.0000
  O   O431      1.0  0.69545  0.63007  0.94668  1.0000
  O   O432      1.0  0.93463  0.30455  0.94668  1.0000
  O   O433      1.0  0.37231  0.23730  0.14067  1.0000
  O   O434      1.0  0.76270  0.13501  0.14067  1.0000
  O   O435      1.0  0.86499  0.62769  0.14067  1.0000
  O   O436      1.0  0.23730  0.37231  0.35933  1.0000
  O   O437      1.0  0.13501  0.76270  0.35933  1.0000
  O   O438      1.0  0.62769  0.86499  0.35933  1.0000
  O   O439      1.0  0.03898  0.57063  0.47400  1.0000
  O   O440      1.0  0.42937  0.46834  0.47400  1.0000
  O   O441      1.0  0.53166  0.96102  0.47400  1.0000
  O   O442      1.0  0.90397  0.70564  0.69266  1.0000
  O   O443      1.0  0.80168  0.09603  0.69266  1.0000
  O   O444      1.0  0.29436  0.19832  0.69266  1.0000
  O   O445      1.0  0.70564  0.90397  0.80734  1.0000
  O   O446      1.0  0.09603  0.80168  0.80734  1.0000
  O   O447      1.0  0.19832  0.29436  0.80734  1.0000
  O   O448      1.0  0.57063  0.03898  0.02600  1.0000
  O   O449      1.0  0.46834  0.42937  0.02600  1.0000
  O   O450      1.0  0.96102  0.53166  0.02600  1.0000
  O   O451      1.0  0.62769  0.76270  0.85933  1.0000
  O   O452      1.0  0.23730  0.86499  0.85933  1.0000
  O   O453      1.0  0.13501  0.37231  0.85933  1.0000
  O   O454      1.0  0.76270  0.62769  0.64067  1.0000
  O   O455      1.0  0.86499  0.23730  0.64067  1.0000
  O   O456      1.0  0.37231  0.13501  0.64067  1.0000
  O   O457      1.0  0.96102  0.42937  0.52600  1.0000
  O   O458      1.0  0.57063  0.53166  0.52600  1.0000
  O   O459      1.0  0.46834  0.03898  0.52600  1.0000
  O   O460      1.0  0.09603  0.29436  0.30734  1.0000
  O   O461      1.0  0.19832  0.90397  0.30734  1.0000
  O   O462      1.0  0.70564  0.80168  0.30734  1.0000
  O   O463      1.0  0.29436  0.09603  0.19266  1.0000
  O   O464      1.0  0.90397  0.19832  0.19266  1.0000
  O   O465      1.0  0.80168  0.70564  0.19266  1.0000
  O   O466      1.0  0.42937  0.96102  0.97400  1.0000
  O   O467      1.0  0.53166  0.57063  0.97400  1.0000
  O   O468      1.0  0.03898  0.46834  0.97400  1.0000
  O   O469      1.0  0.37089  0.30313  0.11462  1.0000
  O   O470      1.0  0.69687  0.06776  0.11462  1.0000
  O   O471      1.0  0.93224  0.62911  0.11462  1.0000
  O   O472      1.0  0.30313  0.37089  0.38538  1.0000
  O   O473      1.0  0.06776  0.69687  0.38538  1.0000
  O   O474      1.0  0.62911  0.93224  0.38538  1.0000
  O   O475      1.0  0.03756  0.63646  0.44795  1.0000
  O   O476      1.0  0.36354  0.40109  0.44795  1.0000
  O   O477      1.0  0.59891  0.96244  0.44795  1.0000
  O   O478      1.0  0.96980  0.70422  0.71871  1.0000
  O   O479      1.0  0.73443  0.03020  0.71871  1.0000
  O   O480      1.0  0.29578  0.26557  0.71871  1.0000
  O   O481      1.0  0.70422  0.96980  0.78129  1.0000
  O   O482      1.0  0.03020  0.73443  0.78129  1.0000
  O   O483      1.0  0.26557  0.29578  0.78129  1.0000
  O   O484      1.0  0.63646  0.03756  0.05205  1.0000
  O   O485      1.0  0.40109  0.36354  0.05205  1.0000
  O   O486      1.0  0.96244  0.59891  0.05205  1.0000
  O   O487      1.0  0.62911  0.69687  0.88538  1.0000
  O   O488      1.0  0.30313  0.93224  0.88538  1.0000
  O   O489      1.0  0.06776  0.37089  0.88538  1.0000
  O   O490      1.0  0.69687  0.62911  0.61462  1.0000
  O   O491      1.0  0.93224  0.30313  0.61462  1.0000
  O   O492      1.0  0.37089  0.06776  0.61462  1.0000
  O   O493      1.0  0.96244  0.36354  0.55205  1.0000
  O   O494      1.0  0.63646  0.59891  0.55205  1.0000
  O   O495      1.0  0.40109  0.03756  0.55205  1.0000
  O   O496      1.0  0.03020  0.29578  0.28129  1.0000
  O   O497      1.0  0.26557  0.96980  0.28129  1.0000
  O   O498      1.0  0.70422  0.73443  0.28129  1.0000
  O   O499      1.0  0.29578  0.03020  0.21871  1.0000
  O   O500      1.0  0.96980  0.26557  0.21871  1.0000
  O   O501      1.0  0.73443  0.70422  0.21871  1.0000
  O   O502      1.0  0.36354  0.96244  0.94795  1.0000
  O   O503      1.0  0.59891  0.63646  0.94795  1.0000
  O   O504      1.0  0.03756  0.40109  0.94795  1.0000
  O   O505      1.0  0.96413  0.10201  0.05003  1.0000
  O   O506      1.0  0.89799  0.86212  0.05003  1.0000
  O   O507      1.0  0.13788  0.03587  0.05003  1.0000
  O   O508      1.0  0.10201  0.96413  0.44997  1.0000
  O   O509      1.0  0.86212  0.89799  0.44997  1.0000
  O   O510      1.0  0.03587  0.13788  0.44997  1.0000
  O   O511      1.0  0.63080  0.43534  0.38336  1.0000
  O   O512      1.0  0.56466  0.19545  0.38336  1.0000
  O   O513      1.0  0.80455  0.36920  0.38336  1.0000
  O   O514      1.0  0.76868  0.29746  0.78330  1.0000
  O   O515      1.0  0.52879  0.23132  0.78330  1.0000
  O   O516      1.0  0.70254  0.47121  0.78330  1.0000
  O   O517      1.0  0.29746  0.76868  0.71670  1.0000
  O   O518      1.0  0.23132  0.52879  0.71670  1.0000
  O   O519      1.0  0.47121  0.70254  0.71670  1.0000
  O   O520      1.0  0.43534  0.63080  0.11664  1.0000
  O   O521      1.0  0.19545  0.56466  0.11664  1.0000
  O   O522      1.0  0.36920  0.80455  0.11664  1.0000
  O   O523      1.0  0.03587  0.89799  0.94997  1.0000
  O   O524      1.0  0.10201  0.13788  0.94997  1.0000
  O   O525      1.0  0.86212  0.96413  0.94997  1.0000
  O   O526      1.0  0.89799  0.03587  0.55003  1.0000
  O   O527      1.0  0.13788  0.10201  0.55003  1.0000
  O   O528      1.0  0.96413  0.86212  0.55003  1.0000
  O   O529      1.0  0.36920  0.56466  0.61664  1.0000
  O   O530      1.0  0.43534  0.80455  0.61664  1.0000
  O   O531      1.0  0.19545  0.63080  0.61664  1.0000
  O   O532      1.0  0.23132  0.70254  0.21670  1.0000
  O   O533      1.0  0.47121  0.76868  0.21670  1.0000
  O   O534      1.0  0.29746  0.52879  0.21670  1.0000
  O   O535      1.0  0.70254  0.23132  0.28330  1.0000
  O   O536      1.0  0.76868  0.47121  0.28330  1.0000
  O   O537      1.0  0.52879  0.29746  0.28330  1.0000
  O   O538      1.0  0.56466  0.36920  0.88336  1.0000
  O   O539      1.0  0.80455  0.43534  0.88336  1.0000
  O   O540      1.0  0.63080  0.19545  0.88336  1.0000
  O   O541      1.0  0.96210  0.03215  0.02771  1.0000
  O   O542      1.0  0.96785  0.92995  0.02771  1.0000
  O   O543      1.0  0.07005  0.03790  0.02771  1.0000
  O   O544      1.0  0.03215  0.96210  0.47229  1.0000
  O   O545      1.0  0.92995  0.96785  0.47229  1.0000
  O   O546      1.0  0.03790  0.07005  0.47229  1.0000
  O   O547      1.0  0.62877  0.36548  0.36104  1.0000
  O   O548      1.0  0.63452  0.26328  0.36104  1.0000
  O   O549      1.0  0.73672  0.37123  0.36104  1.0000
  O   O550      1.0  0.69882  0.29543  0.80562  1.0000
  O   O551      1.0  0.59662  0.30118  0.80562  1.0000
  O   O552      1.0  0.70457  0.40338  0.80562  1.0000
  O   O553      1.0  0.29543  0.69882  0.69438  1.0000
  O   O554      1.0  0.30118  0.59662  0.69438  1.0000
  O   O555      1.0  0.40338  0.70457  0.69438  1.0000
  O   O556      1.0  0.36548  0.62877  0.13896  1.0000
  O   O557      1.0  0.26328  0.63452  0.13896  1.0000
  O   O558      1.0  0.37123  0.73672  0.13896  1.0000
  O   O559      1.0  0.03790  0.96785  0.97229  1.0000
  O   O560      1.0  0.03215  0.07005  0.97229  1.0000
  O   O561      1.0  0.92995  0.96210  0.97229  1.0000
  O   O562      1.0  0.96785  0.03790  0.52771  1.0000
  O   O563      1.0  0.07005  0.03215  0.52771  1.0000
  O   O564      1.0  0.96210  0.92995  0.52771  1.0000
  O   O565      1.0  0.37123  0.63452  0.63896  1.0000
  O   O566      1.0  0.36548  0.73672  0.63896  1.0000
  O   O567      1.0  0.26328  0.62877  0.63896  1.0000
  O   O568      1.0  0.30118  0.70457  0.19438  1.0000
  O   O569      1.0  0.40338  0.69882  0.19438  1.0000
  O   O570      1.0  0.29543  0.59662  0.19438  1.0000
  O   O571      1.0  0.70457  0.30118  0.30562  1.0000
  O   O572      1.0  0.69882  0.40338  0.30562  1.0000
  O   O573      1.0  0.59662  0.29543  0.30562  1.0000
  O   O574      1.0  0.63452  0.37123  0.86104  1.0000
  O   O575      1.0  0.73672  0.36548  0.86104  1.0000
  O   O576      1.0  0.62877  0.26328  0.86104  1.0000
  O   O577      1.0  0.23887  0.36184  0.19341  1.0000
  O   O578      1.0  0.63816  0.87703  0.19341  1.0000
  O   O579      1.0  0.12297  0.76113  0.19341  1.0000
  O   O580      1.0  0.36184  0.23887  0.30659  1.0000
  O   O581      1.0  0.87703  0.63816  0.30659  1.0000
  O   O582      1.0  0.76113  0.12297  0.30659  1.0000
  O   O583      1.0  0.90554  0.69517  0.52674  1.0000
  O   O584      1.0  0.30483  0.21036  0.52674  1.0000
  O   O585      1.0  0.78964  0.09446  0.52674  1.0000
  O   O586      1.0  0.02851  0.57220  0.63992  1.0000
  O   O587      1.0  0.54370  0.97149  0.63992  1.0000
  O   O588      1.0  0.42780  0.45630  0.63992  1.0000
  O   O589      1.0  0.57220  0.02851  0.86008  1.0000
  O   O590      1.0  0.97149  0.54370  0.86008  1.0000
  O   O591      1.0  0.45630  0.42780  0.86008  1.0000
  O   O592      1.0  0.69517  0.90554  0.97326  1.0000
  O   O593      1.0  0.21036  0.30483  0.97326  1.0000
  O   O594      1.0  0.09446  0.78964  0.97326  1.0000
  O   O595      1.0  0.76113  0.63816  0.80659  1.0000
  O   O596      1.0  0.36184  0.12297  0.80659  1.0000
  O   O597      1.0  0.87703  0.23887  0.80659  1.0000
  O   O598      1.0  0.63816  0.76113  0.69341  1.0000
  O   O599      1.0  0.12297  0.36184  0.69341  1.0000
  O   O600      1.0  0.23887  0.87703  0.69341  1.0000
  O   O601      1.0  0.09446  0.30483  0.47326  1.0000
  O   O602      1.0  0.69517  0.78964  0.47326  1.0000
  O   O603      1.0  0.21036  0.90554  0.47326  1.0000
  O   O604      1.0  0.97149  0.42780  0.36008  1.0000
  O   O605      1.0  0.45630  0.02851  0.36008  1.0000
  O   O606      1.0  0.57220  0.54370  0.36008  1.0000
  O   O607      1.0  0.42780  0.97149  0.13992  1.0000
  O   O608      1.0  0.02851  0.45630  0.13992  1.0000
  O   O609      1.0  0.54370  0.57220  0.13992  1.0000
  O   O610      1.0  0.30483  0.09446  0.02674  1.0000
  O   O611      1.0  0.78964  0.69517  0.02674  1.0000
  O   O612      1.0  0.90554  0.21036  0.02674  1.0000
  O   O613      1.0  0.30466  0.43043  0.21827  1.0000
  O   O614      1.0  0.56957  0.87423  0.21827  1.0000
  O   O615      1.0  0.12577  0.69534  0.21827  1.0000
  O   O616      1.0  0.43043  0.30466  0.28173  1.0000
  O   O617      1.0  0.87423  0.56957  0.28173  1.0000
  O   O618      1.0  0.69534  0.12577  0.28173  1.0000
  O   O619      1.0  0.97133  0.76376  0.55160  1.0000
  O   O620      1.0  0.23624  0.20756  0.55160  1.0000
  O   O621      1.0  0.79244  0.02867  0.55160  1.0000
  O   O622      1.0  0.09710  0.63799  0.61506  1.0000
  O   O623      1.0  0.54090  0.90290  0.61506  1.0000
  O   O624      1.0  0.36201  0.45910  0.61506  1.0000
  O   O625      1.0  0.63799  0.09710  0.88494  1.0000
  O   O626      1.0  0.90290  0.54090  0.88494  1.0000
  O   O627      1.0  0.45910  0.36201  0.88494  1.0000
  O   O628      1.0  0.76376  0.97133  0.94840  1.0000
  O   O629      1.0  0.20756  0.23624  0.94840  1.0000
  O   O630      1.0  0.02867  0.79244  0.94840  1.0000
  O   O631      1.0  0.69534  0.56957  0.78173  1.0000
  O   O632      1.0  0.43043  0.12577  0.78173  1.0000
  O   O633      1.0  0.87423  0.30466  0.78173  1.0000
  O   O634      1.0  0.56957  0.69534  0.71827  1.0000
  O   O635      1.0  0.12577  0.43043  0.71827  1.0000
  O   O636      1.0  0.30466  0.87423  0.71827  1.0000
  O   O637      1.0  0.02867  0.23624  0.44840  1.0000
  O   O638      1.0  0.76376  0.79244  0.44840  1.0000
  O   O639      1.0  0.20756  0.97133  0.44840  1.0000
  O   O640      1.0  0.90290  0.36201  0.38494  1.0000
  O   O641      1.0  0.45910  0.09710  0.38494  1.0000
  O   O642      1.0  0.63799  0.54090  0.38494  1.0000
  O   O643      1.0  0.36201  0.90290  0.11506  1.0000
  O   O644      1.0  0.09710  0.45910  0.11506  1.0000
  O   O645      1.0  0.54090  0.63799  0.11506  1.0000
  O   O646      1.0  0.23624  0.02867  0.05160  1.0000
  O   O647      1.0  0.79244  0.76376  0.05160  1.0000
  O   O648      1.0  0.97133  0.20756  0.05160  1.0000
  O   O649      1.0  0.26676  0.13704  0.13545  1.0000
  O   O650      1.0  0.86296  0.12972  0.13545  1.0000
  O   O651      1.0  0.87028  0.73324  0.13545  1.0000
  O   O652      1.0  0.13704  0.26676  0.36455  1.0000
  O   O653      1.0  0.12972  0.86296  0.36455  1.0000
  O   O654      1.0  0.73324  0.87028  0.36455  1.0000
  O   O655      1.0  0.93343  0.47037  0.46878  1.0000
  O   O656      1.0  0.52963  0.46305  0.46878  1.0000
  O   O657      1.0  0.53695  0.06657  0.46878  1.0000
  O   O658      1.0  0.80371  0.60009  0.69788  1.0000
  O   O659      1.0  0.79639  0.19629  0.69788  1.0000
  O   O660      1.0  0.39991  0.20361  0.69788  1.0000
  O   O661      1.0  0.60009  0.80371  0.80212  1.0000
  O   O662      1.0  0.19629  0.79639  0.80212  1.0000
  O   O663      1.0  0.20361  0.39991  0.80212  1.0000
  O   O664      1.0  0.47037  0.93343  0.03122  1.0000
  O   O665      1.0  0.46305  0.52963  0.03122  1.0000
  O   O666      1.0  0.06657  0.53695  0.03122  1.0000
  O   O667      1.0  0.73324  0.86296  0.86455  1.0000
  O   O668      1.0  0.13704  0.87028  0.86455  1.0000
  O   O669      1.0  0.12972  0.26676  0.86455  1.0000
  O   O670      1.0  0.86296  0.73324  0.63545  1.0000
  O   O671      1.0  0.87028  0.13704  0.63545  1.0000
  O   O672      1.0  0.26676  0.12972  0.63545  1.0000
  O   O673      1.0  0.06657  0.52963  0.53122  1.0000
  O   O674      1.0  0.47037  0.53695  0.53122  1.0000
  O   O675      1.0  0.46305  0.93343  0.53122  1.0000
  O   O676      1.0  0.19629  0.39991  0.30212  1.0000
  O   O677      1.0  0.20361  0.80371  0.30212  1.0000
  O   O678      1.0  0.60009  0.79639  0.30212  1.0000
  O   O679      1.0  0.39991  0.19629  0.19788  1.0000
  O   O680      1.0  0.80371  0.20361  0.19788  1.0000
  O   O681      1.0  0.79639  0.60009  0.19788  1.0000
  O   O682      1.0  0.52963  0.06657  0.96878  1.0000
  O   O683      1.0  0.53695  0.47037  0.96878  1.0000
  O   O684      1.0  0.93343  0.46305  0.96878  1.0000
  O   O685      1.0  0.20179  0.06868  0.11029  1.0000
  O   O686      1.0  0.93132  0.13311  0.11029  1.0000
  O   O687      1.0  0.86689  0.79821  0.11029  1.0000
  O   O688      1.0  0.06868  0.20179  0.38971  1.0000
  O   O689      1.0  0.13311  0.93132  0.38971  1.0000
  O   O690      1.0  0.79821  0.86689  0.38971  1.0000
  O   O691      1.0  0.86846  0.40201  0.44362  1.0000
  O   O692      1.0  0.59799  0.46644  0.44362  1.0000
  O   O693      1.0  0.53356  0.13154  0.44362  1.0000
  O   O694      1.0  0.73535  0.53512  0.72304  1.0000
  O   O695      1.0  0.79978  0.26465  0.72304  1.0000
  O   O696      1.0  0.46488  0.20022  0.72304  1.0000
  O   O697      1.0  0.53512  0.73535  0.77696  1.0000
  O   O698      1.0  0.26465  0.79978  0.77696  1.0000
  O   O699      1.0  0.20022  0.46488  0.77696  1.0000
  O   O700      1.0  0.40201  0.86846  0.05638  1.0000
  O   O701      1.0  0.46644  0.59799  0.05638  1.0000
  O   O702      1.0  0.13154  0.53356  0.05638  1.0000
  O   O703      1.0  0.79821  0.93132  0.88971  1.0000
  O   O704      1.0  0.06868  0.86689  0.88971  1.0000
  O   O705      1.0  0.13311  0.20179  0.88971  1.0000
  O   O706      1.0  0.93132  0.79821  0.61029  1.0000
  O   O707      1.0  0.86689  0.06868  0.61029  1.0000
  O   O708      1.0  0.20179  0.13311  0.61029  1.0000
  O   O709      1.0  0.13154  0.59799  0.55638  1.0000
  O   O710      1.0  0.40201  0.53356  0.55638  1.0000
  O   O711      1.0  0.46644  0.86846  0.55638  1.0000
  O   O712      1.0  0.26465  0.46488  0.27696  1.0000
  O   O713      1.0  0.20022  0.73535  0.27696  1.0000
  O   O714      1.0  0.53512  0.79978  0.27696  1.0000
  O   O715      1.0  0.46488  0.26465  0.22304  1.0000
  O   O716      1.0  0.73535  0.20022  0.22304  1.0000
  O   O717      1.0  0.79978  0.53512  0.22304  1.0000
  O   O718      1.0  0.59799  0.13154  0.94362  1.0000
  O   O719      1.0  0.53356  0.40201  0.94362  1.0000
  O   O720      1.0  0.86846  0.46644  0.94362  1.0000
  O   O721      1.0  0.06516  0.20010  0.05051  1.0000
  O   O722      1.0  0.79990  0.86506  0.05051  1.0000
  O   O723      1.0  0.13494  0.93484  0.05051  1.0000
  O   O724      1.0  0.20010  0.06516  0.44949  1.0000
  O   O725      1.0  0.86506  0.79990  0.44949  1.0000
  O   O726      1.0  0.93484  0.13494  0.44949  1.0000
  O   O727      1.0  0.73183  0.53343  0.38384  1.0000
  O   O728      1.0  0.46657  0.19839  0.38384  1.0000
  O   O729      1.0  0.80161  0.26817  0.38384  1.0000
  O   O730      1.0  0.86677  0.39849  0.78282  1.0000
  O   O731      1.0  0.53173  0.13323  0.78282  1.0000
  O   O732      1.0  0.60151  0.46827  0.78282  1.0000
  O   O733      1.0  0.39849  0.86677  0.71718  1.0000
  O   O734      1.0  0.13323  0.53173  0.71718  1.0000
  O   O735      1.0  0.46827  0.60151  0.71718  1.0000
  O   O736      1.0  0.53343  0.73183  0.11616  1.0000
  O   O737      1.0  0.19839  0.46657  0.11616  1.0000
  O   O738      1.0  0.26817  0.80161  0.11616  1.0000
  O   O739      1.0  0.93484  0.79990  0.94949  1.0000
  O   O740      1.0  0.20010  0.13494  0.94949  1.0000
  O   O741      1.0  0.86506  0.06516  0.94949  1.0000
  O   O742      1.0  0.79990  0.93484  0.55051  1.0000
  O   O743      1.0  0.13494  0.20010  0.55051  1.0000
  O   O744      1.0  0.06516  0.86506  0.55051  1.0000
  O   O745      1.0  0.26817  0.46657  0.61616  1.0000
  O   O746      1.0  0.53343  0.80161  0.61616  1.0000
  O   O747      1.0  0.19839  0.73183  0.61616  1.0000
  O   O748      1.0  0.13323  0.60151  0.21718  1.0000
  O   O749      1.0  0.46827  0.86677  0.21718  1.0000
  O   O750      1.0  0.39849  0.53173  0.21718  1.0000
  O   O751      1.0  0.60151  0.13323  0.28282  1.0000
  O   O752      1.0  0.86677  0.46827  0.28282  1.0000
  O   O753      1.0  0.53173  0.39849  0.28282  1.0000
  O   O754      1.0  0.46657  0.26817  0.88384  1.0000
  O   O755      1.0  0.80161  0.53343  0.88384  1.0000
  O   O756      1.0  0.73183  0.19839  0.88384  1.0000
  O   O757      1.0  0.13438  0.26411  0.02525  1.0000
  O   O758      1.0  0.73589  0.87027  0.02525  1.0000
  O   O759      1.0  0.12973  0.86562  0.02525  1.0000
  O   O760      1.0  0.26411  0.13438  0.47475  1.0000
  O   O761      1.0  0.87027  0.73589  0.47475  1.0000
  O   O762      1.0  0.86562  0.12973  0.47475  1.0000
  O   O763      1.0  0.80105  0.59744  0.35858  1.0000
  O   O764      1.0  0.40256  0.20360  0.35858  1.0000
  O   O765      1.0  0.79640  0.19895  0.35858  1.0000
  O   O766      1.0  0.93078  0.46771  0.80808  1.0000
  O   O767      1.0  0.53694  0.06922  0.80808  1.0000
  O   O768      1.0  0.53229  0.46306  0.80808  1.0000
  O   O769      1.0  0.46771  0.93078  0.69192  1.0000
  O   O770      1.0  0.06922  0.53694  0.69192  1.0000
  O   O771      1.0  0.46306  0.53229  0.69192  1.0000
  O   O772      1.0  0.59744  0.80105  0.14142  1.0000
  O   O773      1.0  0.20360  0.40256  0.14142  1.0000
  O   O774      1.0  0.19895  0.79640  0.14142  1.0000
  O   O775      1.0  0.86562  0.73589  0.97475  1.0000
  O   O776      1.0  0.26411  0.12973  0.97475  1.0000
  O   O777      1.0  0.87027  0.13438  0.97475  1.0000
  O   O778      1.0  0.73589  0.86562  0.52525  1.0000
  O   O779      1.0  0.12973  0.26411  0.52525  1.0000
  O   O780      1.0  0.13438  0.87027  0.52525  1.0000
  O   O781      1.0  0.19895  0.40256  0.64142  1.0000
  O   O782      1.0  0.59744  0.79640  0.64142  1.0000
  O   O783      1.0  0.20360  0.80105  0.64142  1.0000
  O   O784      1.0  0.06922  0.53229  0.19192  1.0000
  O   O785      1.0  0.46306  0.93078  0.19192  1.0000
  O   O786      1.0  0.46771  0.53694  0.19192  1.0000
  O   O787      1.0  0.53229  0.06922  0.30808  1.0000
  O   O788      1.0  0.93078  0.46306  0.30808  1.0000
  O   O789      1.0  0.53694  0.46771  0.30808  1.0000
  O   O790      1.0  0.40256  0.19895  0.85858  1.0000
  O   O791      1.0  0.79640  0.59744  0.85858  1.0000
  O   O792      1.0  0.80105  0.20360  0.85858  1.0000
  O   O793      1.0  0.30141  0.26653  0.05197  1.0000
  O   O794      1.0  0.73347  0.03488  0.05197  1.0000
  O   O795      1.0  0.96512  0.69859  0.05197  1.0000
  O   O796      1.0  0.26653  0.30141  0.44803  1.0000
  O   O797      1.0  0.03488  0.73347  0.44803  1.0000
  O   O798      1.0  0.69859  0.96512  0.44803  1.0000
  O   O799      1.0  0.96808  0.59986  0.38530  1.0000
  O   O800      1.0  0.40014  0.36821  0.38530  1.0000
  O   O801      1.0  0.63179  0.03192  0.38530  1.0000
  O   O802      1.0  0.93320  0.63474  0.78136  1.0000
  O   O803      1.0  0.70155  0.06680  0.78136  1.0000
  O   O804      1.0  0.36526  0.29845  0.78136  1.0000
  O   O805      1.0  0.63474  0.93320  0.71864  1.0000
  O   O806      1.0  0.06680  0.70155  0.71864  1.0000
  O   O807      1.0  0.29845  0.36526  0.71864  1.0000
  O   O808      1.0  0.59986  0.96808  0.11470  1.0000
  O   O809      1.0  0.36821  0.40014  0.11470  1.0000
  O   O810      1.0  0.03192  0.63179  0.11470  1.0000
  O   O811      1.0  0.69859  0.73347  0.94803  1.0000
  O   O812      1.0  0.26653  0.96512  0.94803  1.0000
  O   O813      1.0  0.03488  0.30141  0.94803  1.0000
  O   O814      1.0  0.73347  0.69859  0.55197  1.0000
  O   O815      1.0  0.96512  0.26653  0.55197  1.0000
  O   O816      1.0  0.30141  0.03488  0.55197  1.0000
  O   O817      1.0  0.03192  0.40014  0.61470  1.0000
  O   O818      1.0  0.59986  0.63179  0.61470  1.0000
  O   O819      1.0  0.36821  0.96808  0.61470  1.0000
  O   O820      1.0  0.06680  0.36526  0.21864  1.0000
  O   O821      1.0  0.29845  0.93320  0.21864  1.0000
  O   O822      1.0  0.63474  0.70155  0.21864  1.0000
  O   O823      1.0  0.36526  0.06680  0.28136  1.0000
  O   O824      1.0  0.93320  0.29845  0.28136  1.0000
  O   O825      1.0  0.70155  0.63474  0.28136  1.0000
  O   O826      1.0  0.40014  0.03192  0.88530  1.0000
  O   O827      1.0  0.63179  0.59986  0.88530  1.0000
  O   O828      1.0  0.96808  0.36821  0.88530  1.0000
  O   O829      1.0  0.29717  0.19576  0.02993  1.0000
  O   O830      1.0  0.80424  0.10141  0.02993  1.0000
  O   O831      1.0  0.89859  0.70283  0.02993  1.0000
  O   O832      1.0  0.19576  0.29717  0.47007  1.0000
  O   O833      1.0  0.10141  0.80424  0.47007  1.0000
  O   O834      1.0  0.70283  0.89859  0.47007  1.0000
  O   O835      1.0  0.96384  0.52909  0.36326  1.0000
  O   O836      1.0  0.47091  0.43474  0.36326  1.0000
  O   O837      1.0  0.56526  0.03616  0.36326  1.0000
  O   O838      1.0  0.86243  0.63050  0.80340  1.0000
  O   O839      1.0  0.76808  0.13757  0.80340  1.0000
  O   O840      1.0  0.36950  0.23192  0.80340  1.0000
  O   O841      1.0  0.63050  0.86243  0.69660  1.0000
  O   O842      1.0  0.13757  0.76808  0.69660  1.0000
  O   O843      1.0  0.23192  0.36950  0.69660  1.0000
  O   O844      1.0  0.52909  0.96384  0.13674  1.0000
  O   O845      1.0  0.43474  0.47091  0.13674  1.0000
  O   O846      1.0  0.03616  0.56526  0.13674  1.0000
  O   O847      1.0  0.70283  0.80424  0.97007  1.0000
  O   O848      1.0  0.19576  0.89859  0.97007  1.0000
  O   O849      1.0  0.10141  0.29717  0.97007  1.0000
  O   O850      1.0  0.80424  0.70283  0.52993  1.0000
  O   O851      1.0  0.89859  0.19576  0.52993  1.0000
  O   O852      1.0  0.29717  0.10141  0.52993  1.0000
  O   O853      1.0  0.03616  0.47091  0.63674  1.0000
  O   O854      1.0  0.52909  0.56526  0.63674  1.0000
  O   O855      1.0  0.43474  0.96384  0.63674  1.0000
  O   O856      1.0  0.13757  0.36950  0.19660  1.0000
  O   O857      1.0  0.23192  0.86243  0.19660  1.0000
  O   O858      1.0  0.63050  0.76808  0.19660  1.0000
  O   O859      1.0  0.36950  0.13757  0.30340  1.0000
  O   O860      1.0  0.86243  0.23192  0.30340  1.0000
  O   O861      1.0  0.76808  0.63050  0.30340  1.0000
  O   O862      1.0  0.47091  0.03616  0.86326  1.0000
  O   O863      1.0  0.56526  0.52909  0.86326  1.0000
  O   O864      1.0  0.96384  0.43474  0.86326  1.0000
  C   C1        1.0  0.08814  0.07254  0.20915  1.0000
  C   C2        1.0  0.92746  0.01560  0.20915  1.0000
  C   C3        1.0  0.98440  0.91186  0.20915  1.0000
  C   C4        1.0  0.07254  0.08814  0.29085  1.0000
  C   C5        1.0  0.01560  0.92746  0.29085  1.0000
  C   C6        1.0  0.91186  0.98440  0.29085  1.0000
  C   C7        1.0  0.75481  0.40587  0.54248  1.0000
  C   C8        1.0  0.59413  0.34893  0.54248  1.0000
  C   C9        1.0  0.65107  0.24519  0.54248  1.0000
  C   C10       1.0  0.73921  0.42147  0.62418  1.0000
  C   C11       1.0  0.68227  0.26079  0.62418  1.0000
  C   C12       1.0  0.57853  0.31773  0.62418  1.0000
  C   C13       1.0  0.42147  0.73921  0.87582  1.0000
  C   C14       1.0  0.26079  0.68227  0.87582  1.0000
  C   C15       1.0  0.31773  0.57853  0.87582  1.0000
  C   C16       1.0  0.40587  0.75481  0.95752  1.0000
  C   C17       1.0  0.34893  0.59413  0.95752  1.0000
  C   C18       1.0  0.24519  0.65107  0.95752  1.0000
  C   C19       1.0  0.91186  0.92746  0.79085  1.0000
  C   C20       1.0  0.07254  0.98440  0.79085  1.0000
  C   C21       1.0  0.01560  0.08814  0.79085  1.0000
  C   C22       1.0  0.92746  0.91186  0.70915  1.0000
  C   C23       1.0  0.98440  0.07254  0.70915  1.0000
  C   C24       1.0  0.08814  0.01560  0.70915  1.0000
  C   C25       1.0  0.24519  0.59413  0.45752  1.0000
  C   C26       1.0  0.40587  0.65107  0.45752  1.0000
  C   C27       1.0  0.34893  0.75481  0.45752  1.0000
  C   C28       1.0  0.26079  0.57853  0.37582  1.0000
  C   C29       1.0  0.31773  0.73921  0.37582  1.0000
  C   C30       1.0  0.42147  0.68227  0.37582  1.0000
  C   C31       1.0  0.57853  0.26079  0.12418  1.0000
  C   C32       1.0  0.73921  0.31773  0.12418  1.0000
  C   C33       1.0  0.68227  0.42147  0.12418  1.0000
  C   C34       1.0  0.59413  0.24519  0.04248  1.0000
  C   C35       1.0  0.65107  0.40587  0.04248  1.0000
  C   C36       1.0  0.75481  0.34893  0.04248  1.0000
  H   H1        1.0  0.06670  0.08760  0.21270  1.0000
  H   H2        1.0  0.91240  0.97910  0.21270  1.0000
  H   H3        1.0  0.02090  0.93330  0.21270  1.0000
  H   H4        1.0  0.08760  0.06670  0.28730  1.0000
  H   H5        1.0  0.97910  0.91240  0.28730  1.0000
  H   H6        1.0  0.93330  0.02090  0.28730  1.0000
  H   H7        1.0  0.73337  0.42093  0.54603  1.0000
  H   H8        1.0  0.57907  0.31243  0.54603  1.0000
  H   H9        1.0  0.68757  0.26663  0.54603  1.0000
  H   H10       1.0  0.75427  0.40003  0.62063  1.0000
  H   H11       1.0  0.64577  0.24573  0.62063  1.0000
  H   H12       1.0  0.59997  0.35423  0.62063  1.0000
  H   H13       1.0  0.40003  0.75427  0.87937  1.0000
  H   H14       1.0  0.24573  0.64577  0.87937  1.0000
  H   H15       1.0  0.35423  0.59997  0.87937  1.0000
  H   H16       1.0  0.42093  0.73337  0.95397  1.0000
  H   H17       1.0  0.31243  0.57907  0.95397  1.0000
  H   H18       1.0  0.26663  0.68757  0.95397  1.0000
  H   H19       1.0  0.93330  0.91240  0.78730  1.0000
  H   H20       1.0  0.08760  0.02090  0.78730  1.0000
  H   H21       1.0  0.97910  0.06670  0.78730  1.0000
  H   H22       1.0  0.91240  0.93330  0.71270  1.0000
  H   H23       1.0  0.02090  0.08760  0.71270  1.0000
  H   H24       1.0  0.06670  0.97910  0.71270  1.0000
  H   H25       1.0  0.26663  0.57907  0.45397  1.0000
  H   H26       1.0  0.42093  0.68757  0.45397  1.0000
  H   H27       1.0  0.31243  0.73337  0.45397  1.0000
  H   H28       1.0  0.24573  0.59997  0.37937  1.0000
  H   H29       1.0  0.35423  0.75427  0.37937  1.0000
  H   H30       1.0  0.40003  0.64577  0.37937  1.0000
  H   H31       1.0  0.59997  0.24573  0.12063  1.0000
  H   H32       1.0  0.75427  0.35423  0.12063  1.0000
  H   H33       1.0  0.64577  0.40003  0.12063  1.0000
  H   H34       1.0  0.57907  0.26663  0.04603  1.0000
  H   H35       1.0  0.68757  0.42093  0.04603  1.0000
  H   H36       1.0  0.73337  0.31243  0.04603  1.0000
  C   C37       1.0  0.15189  0.24054  0.20703  1.0000
  C   C38       1.0  0.75946  0.91135  0.20703  1.0000
  C   C39       1.0  0.08865  0.84811  0.20703  1.0000
  C   C40       1.0  0.24054  0.15189  0.29297  1.0000
  C   C41       1.0  0.91135  0.75946  0.29297  1.0000
  C   C42       1.0  0.84811  0.08865  0.29297  1.0000
  C   C43       1.0  0.81856  0.57387  0.54036  1.0000
  C   C44       1.0  0.42613  0.24468  0.54036  1.0000
  C   C45       1.0  0.75532  0.18144  0.54036  1.0000
  C   C46       1.0  0.90721  0.48522  0.62630  1.0000
  C   C47       1.0  0.57802  0.09279  0.62630  1.0000
  C   C48       1.0  0.51478  0.42198  0.62630  1.0000
  C   C49       1.0  0.48522  0.90721  0.87370  1.0000
  C   C50       1.0  0.09279  0.57802  0.87370  1.0000
  C   C51       1.0  0.42198  0.51478  0.87370  1.0000
  C   C52       1.0  0.57387  0.81856  0.95964  1.0000
  C   C53       1.0  0.24468  0.42613  0.95964  1.0000
  C   C54       1.0  0.18144  0.75532  0.95964  1.0000
  C   C55       1.0  0.84811  0.75946  0.79297  1.0000
  C   C56       1.0  0.24054  0.08865  0.79297  1.0000
  C   C57       1.0  0.91135  0.15189  0.79297  1.0000
  C   C58       1.0  0.75946  0.84811  0.70703  1.0000
  C   C59       1.0  0.08865  0.24054  0.70703  1.0000
  C   C60       1.0  0.15189  0.91135  0.70703  1.0000
  C   C61       1.0  0.18144  0.42613  0.45964  1.0000
  C   C62       1.0  0.57387  0.75532  0.45964  1.0000
  C   C63       1.0  0.24468  0.81856  0.45964  1.0000
  C   C64       1.0  0.09279  0.51478  0.37370  1.0000
  C   C65       1.0  0.42198  0.90721  0.37370  1.0000
  C   C66       1.0  0.48522  0.57802  0.37370  1.0000
  C   C67       1.0  0.51478  0.09279  0.12630  1.0000
  C   C68       1.0  0.90721  0.42198  0.12630  1.0000
  C   C69       1.0  0.57802  0.48522  0.12630  1.0000
  C   C70       1.0  0.42613  0.18144  0.04036  1.0000
  C   C71       1.0  0.75532  0.57387  0.04036  1.0000
  C   C72       1.0  0.81856  0.24468  0.04036  1.0000
  H   H37       1.0  0.18890  0.26000  0.20900  1.0000
  H   H38       1.0  0.74000  0.92890  0.20900  1.0000
  H   H39       1.0  0.07110  0.81110  0.20900  1.0000
  H   H40       1.0  0.26000  0.18890  0.29100  1.0000
  H   H41       1.0  0.92890  0.74000  0.29100  1.0000
  H   H42       1.0  0.81110  0.07110  0.29100  1.0000
  H   H43       1.0  0.85557  0.59333  0.54233  1.0000
  H   H44       1.0  0.40667  0.26223  0.54233  1.0000
  H   H45       1.0  0.73777  0.14443  0.54233  1.0000
  H   H46       1.0  0.92667  0.52223  0.62433  1.0000
  H   H47       1.0  0.59557  0.07333  0.62433  1.0000
  H   H48       1.0  0.47777  0.40443  0.62433  1.0000
  H   H49       1.0  0.52223  0.92667  0.87567  1.0000
  H   H50       1.0  0.07333  0.59557  0.87567  1.0000
  H   H51       1.0  0.40443  0.47777  0.87567  1.0000
  H   H52       1.0  0.59333  0.85557  0.95767  1.0000
  H   H53       1.0  0.26223  0.40667  0.95767  1.0000
  H   H54       1.0  0.14443  0.73777  0.95767  1.0000
  H   H55       1.0  0.81110  0.74000  0.79100  1.0000
  H   H56       1.0  0.26000  0.07110  0.79100  1.0000
  H   H57       1.0  0.92890  0.18890  0.79100  1.0000
  H   H58       1.0  0.74000  0.81110  0.70900  1.0000
  H   H59       1.0  0.07110  0.26000  0.70900  1.0000
  H   H60       1.0  0.18890  0.92890  0.70900  1.0000
  H   H61       1.0  0.14443  0.40667  0.45767  1.0000
  H   H62       1.0  0.59333  0.73777  0.45767  1.0000
  H   H63       1.0  0.26223  0.85557  0.45767  1.0000
  H   H64       1.0  0.07333  0.47777  0.37567  1.0000
  H   H65       1.0  0.40443  0.92667  0.37567  1.0000
  H   H66       1.0  0.52223  0.59557  0.37567  1.0000
  H   H67       1.0  0.47777  0.07333  0.12433  1.0000
  H   H68       1.0  0.92667  0.40443  0.12433  1.0000
  H   H69       1.0  0.59557  0.52223  0.12433  1.0000
  H   H70       1.0  0.40667  0.14443  0.04233  1.0000
  H   H71       1.0  0.73777  0.59333  0.04233  1.0000
  H   H72       1.0  0.85557  0.26223  0.04233  1.0000
  C   C73       1.0  0.25887  0.17920  0.21218  1.0000
  C   C74       1.0  0.82080  0.07967  0.21218  1.0000
  C   C75       1.0  0.92033  0.74113  0.21218  1.0000
  C   C76       1.0  0.17920  0.25887  0.28782  1.0000
  C   C77       1.0  0.07967  0.82080  0.28782  1.0000
  C   C78       1.0  0.74113  0.92033  0.28782  1.0000
  C   C79       1.0  0.92554  0.51253  0.54551  1.0000
  C   C80       1.0  0.48747  0.41300  0.54551  1.0000
  C   C81       1.0  0.58700  0.07446  0.54551  1.0000
  C   C82       1.0  0.84587  0.59220  0.62115  1.0000
  C   C83       1.0  0.74634  0.15413  0.62115  1.0000
  C   C84       1.0  0.40780  0.25366  0.62115  1.0000
  C   C85       1.0  0.59220  0.84587  0.87885  1.0000
  C   C86       1.0  0.15413  0.74634  0.87885  1.0000
  C   C87       1.0  0.25366  0.40780  0.87885  1.0000
  C   C88       1.0  0.51253  0.92554  0.95449  1.0000
  C   C89       1.0  0.41300  0.48747  0.95449  1.0000
  C   C90       1.0  0.07446  0.58700  0.95449  1.0000
  C   C91       1.0  0.74113  0.82080  0.78782  1.0000
  C   C92       1.0  0.17920  0.92033  0.78782  1.0000
  C   C93       1.0  0.07967  0.25887  0.78782  1.0000
  C   C94       1.0  0.82080  0.74113  0.71218  1.0000
  C   C95       1.0  0.92033  0.17920  0.71218  1.0000
  C   C96       1.0  0.25887  0.07967  0.71218  1.0000
  C   C97       1.0  0.07446  0.48747  0.45449  1.0000
  C   C98       1.0  0.51253  0.58700  0.45449  1.0000
  C   C99       1.0  0.41300  0.92554  0.45449  1.0000
  C   C100      1.0  0.15413  0.40780  0.37885  1.0000
  C   C101      1.0  0.25366  0.84587  0.37885  1.0000
  C   C102      1.0  0.59220  0.74634  0.37885  1.0000
  C   C103      1.0  0.40780  0.15413  0.12115  1.0000
  C   C104      1.0  0.84587  0.25366  0.12115  1.0000
  C   C105      1.0  0.74634  0.59220  0.12115  1.0000
  C   C106      1.0  0.48747  0.07446  0.04551  1.0000
  C   C107      1.0  0.58700  0.51253  0.04551  1.0000
  C   C108      1.0  0.92554  0.41300  0.04551  1.0000
  H   H73       1.0  0.25220  0.14790  0.22320  1.0000
  H   H74       1.0  0.85210  0.10430  0.22320  1.0000
  H   H75       1.0  0.89570  0.74780  0.22320  1.0000
  H   H76       1.0  0.14790  0.25220  0.27680  1.0000
  H   H77       1.0  0.10430  0.85210  0.27680  1.0000
  H   H78       1.0  0.74780  0.89570  0.27680  1.0000
  H   H79       1.0  0.91887  0.48123  0.55653  1.0000
  H   H80       1.0  0.51877  0.43763  0.55653  1.0000
  H   H81       1.0  0.56237  0.08113  0.55653  1.0000
  H   H82       1.0  0.81457  0.58553  0.61013  1.0000
  H   H83       1.0  0.77097  0.18543  0.61013  1.0000
  H   H84       1.0  0.41447  0.22903  0.61013  1.0000
  H   H85       1.0  0.58553  0.81457  0.88987  1.0000
  H   H86       1.0  0.18543  0.77097  0.88987  1.0000
  H   H87       1.0  0.22903  0.41447  0.88987  1.0000
  H   H88       1.0  0.48123  0.91887  0.94347  1.0000
  H   H89       1.0  0.43763  0.51877  0.94347  1.0000
  H   H90       1.0  0.08113  0.56237  0.94347  1.0000
  H   H91       1.0  0.74780  0.85210  0.77680  1.0000
  H   H92       1.0  0.14790  0.89570  0.77680  1.0000
  H   H93       1.0  0.10430  0.25220  0.77680  1.0000
  H   H94       1.0  0.85210  0.74780  0.72320  1.0000
  H   H95       1.0  0.89570  0.14790  0.72320  1.0000
  H   H96       1.0  0.25220  0.10430  0.72320  1.0000
  H   H97       1.0  0.08113  0.51877  0.44347  1.0000
  H   H98       1.0  0.48123  0.56237  0.44347  1.0000
  H   H99       1.0  0.43763  0.91887  0.44347  1.0000
  H   H100      1.0  0.18543  0.41447  0.38987  1.0000
  H   H101      1.0  0.22903  0.81457  0.38987  1.0000
  H   H102      1.0  0.58553  0.77097  0.38987  1.0000
  H   H103      1.0  0.41447  0.18543  0.11013  1.0000
  H   H104      1.0  0.81457  0.22903  0.11013  1.0000
  H   H105      1.0  0.77097  0.58553  0.11013  1.0000
  H   H106      1.0  0.51877  0.08113  0.05653  1.0000
  H   H107      1.0  0.56237  0.48123  0.05653  1.0000
  H   H108      1.0  0.91887  0.43763  0.05653  1.0000
  C   C109      1.0  0.01299  0.08817  0.12085  1.0000
  C   C110      1.0  0.91183  0.92482  0.12085  1.0000
  C   C111      1.0  0.07518  0.98701  0.12085  1.0000
  C   C112      1.0  0.08817  0.01299  0.37915  1.0000
  C   C113      1.0  0.92482  0.91183  0.37915  1.0000
  C   C114      1.0  0.98701  0.07518  0.37915  1.0000
  C   C115      1.0  0.67966  0.42150  0.45418  1.0000
  C   C116      1.0  0.57850  0.25815  0.45418  1.0000
  C   C117      1.0  0.74185  0.32034  0.45418  1.0000
  C   C118      1.0  0.75484  0.34632  0.71248  1.0000
  C   C119      1.0  0.59149  0.24516  0.71248  1.0000
  C   C120      1.0  0.65368  0.40851  0.71248  1.0000
  C   C121      1.0  0.34632  0.75484  0.78752  1.0000
  C   C122      1.0  0.24516  0.59149  0.78752  1.0000
  C   C123      1.0  0.40851  0.65368  0.78752  1.0000
  C   C124      1.0  0.42150  0.67966  0.04582  1.0000
  C   C125      1.0  0.25815  0.57850  0.04582  1.0000
  C   C126      1.0  0.32034  0.74185  0.04582  1.0000
  C   C127      1.0  0.98701  0.91183  0.87915  1.0000
  C   C128      1.0  0.08817  0.07518  0.87915  1.0000
  C   C129      1.0  0.92482  0.01299  0.87915  1.0000
  C   C130      1.0  0.91183  0.98701  0.62085  1.0000
  C   C131      1.0  0.07518  0.08817  0.62085  1.0000
  C   C132      1.0  0.01299  0.92482  0.62085  1.0000
  C   C133      1.0  0.32034  0.57850  0.54582  1.0000
  C   C134      1.0  0.42150  0.74185  0.54582  1.0000
  C   C135      1.0  0.25815  0.67966  0.54582  1.0000
  C   C136      1.0  0.24516  0.65368  0.28752  1.0000
  C   C137      1.0  0.40851  0.75484  0.28752  1.0000
  C   C138      1.0  0.34632  0.59149  0.28752  1.0000
  C   C139      1.0  0.65368  0.24516  0.21248  1.0000
  C   C140      1.0  0.75484  0.40851  0.21248  1.0000
  C   C141      1.0  0.59149  0.34632  0.21248  1.0000
  C   C142      1.0  0.57850  0.32034  0.95418  1.0000
  C   C143      1.0  0.74185  0.42150  0.95418  1.0000
  C   C144      1.0  0.67966  0.25815  0.95418  1.0000
  H   H109      1.0  0.97860  0.06470  0.11320  1.0000
  H   H110      1.0  0.93530  0.91390  0.11320  1.0000
  H   H111      1.0  0.08610  0.02140  0.11320  1.0000
  H   H112      1.0  0.06470  0.97860  0.38680  1.0000
  H   H113      1.0  0.91390  0.93530  0.38680  1.0000
  H   H114      1.0  0.02140  0.08610  0.38680  1.0000
  H   H115      1.0  0.64527  0.39803  0.44653  1.0000
  H   H116      1.0  0.60197  0.24723  0.44653  1.0000
  H   H117      1.0  0.75277  0.35473  0.44653  1.0000
  H   H118      1.0  0.73137  0.31193  0.72013  1.0000
  H   H119      1.0  0.58057  0.26863  0.72013  1.0000
  H   H120      1.0  0.68807  0.41943  0.72013  1.0000
  H   H121      1.0  0.31193  0.73137  0.77987  1.0000
  H   H122      1.0  0.26863  0.58057  0.77987  1.0000
  H   H123      1.0  0.41943  0.68807  0.77987  1.0000
  H   H124      1.0  0.39803  0.64527  0.05347  1.0000
  H   H125      1.0  0.24723  0.60197  0.05347  1.0000
  H   H126      1.0  0.35473  0.75277  0.05347  1.0000
  H   H127      1.0  0.02140  0.93530  0.88680  1.0000
  H   H128      1.0  0.06470  0.08610  0.88680  1.0000
  H   H129      1.0  0.91390  0.97860  0.88680  1.0000
  H   H130      1.0  0.93530  0.02140  0.61320  1.0000
  H   H131      1.0  0.08610  0.06470  0.61320  1.0000
  H   H132      1.0  0.97860  0.91390  0.61320  1.0000
  H   H133      1.0  0.35473  0.60197  0.55347  1.0000
  H   H134      1.0  0.39803  0.75277  0.55347  1.0000
  H   H135      1.0  0.24723  0.64527  0.55347  1.0000
  H   H136      1.0  0.26863  0.68807  0.27987  1.0000
  H   H137      1.0  0.41943  0.73137  0.27987  1.0000
  H   H138      1.0  0.31193  0.58057  0.27987  1.0000
  H   H139      1.0  0.68807  0.26863  0.22013  1.0000
  H   H140      1.0  0.73137  0.41943  0.22013  1.0000
  H   H141      1.0  0.58057  0.31193  0.22013  1.0000
  H   H142      1.0  0.60197  0.35473  0.94653  1.0000
  H   H143      1.0  0.75277  0.39803  0.94653  1.0000
  H   H144      1.0  0.64527  0.24723  0.94653  1.0000
  C   C145      1.0  0.07624  0.25708  0.12621  1.0000
  C   C146      1.0  0.74292  0.81916  0.12621  1.0000
  C   C147      1.0  0.18084  0.92376  0.12621  1.0000
  C   C148      1.0  0.25708  0.07624  0.37379  1.0000
  C   C149      1.0  0.81916  0.74292  0.37379  1.0000
  C   C150      1.0  0.92376  0.18084  0.37379  1.0000
  C   C151      1.0  0.74291  0.59041  0.45954  1.0000
  C   C152      1.0  0.40959  0.15249  0.45954  1.0000
  C   C153      1.0  0.84751  0.25709  0.45954  1.0000
  C   C154      1.0  0.92375  0.40957  0.70712  1.0000
  C   C155      1.0  0.48583  0.07625  0.70712  1.0000
  C   C156      1.0  0.59043  0.51417  0.70712  1.0000
  C   C157      1.0  0.40957  0.92375  0.79288  1.0000
  C   C158      1.0  0.07625  0.48583  0.79288  1.0000
  C   C159      1.0  0.51417  0.59043  0.79288  1.0000
  C   C160      1.0  0.59041  0.74291  0.04046  1.0000
  C   C161      1.0  0.15249  0.40959  0.04046  1.0000
  C   C162      1.0  0.25709  0.84751  0.04046  1.0000
  C   C163      1.0  0.92376  0.74292  0.87379  1.0000
  C   C164      1.0  0.25708  0.18084  0.87379  1.0000
  C   C165      1.0  0.81916  0.07624  0.87379  1.0000
  C   C166      1.0  0.74292  0.92376  0.62621  1.0000
  C   C167      1.0  0.18084  0.25708  0.62621  1.0000
  C   C168      1.0  0.07624  0.81916  0.62621  1.0000
  C   C169      1.0  0.25709  0.40959  0.54046  1.0000
  C   C170      1.0  0.59041  0.84751  0.54046  1.0000
  C   C171      1.0  0.15249  0.74291  0.54046  1.0000
  C   C172      1.0  0.07625  0.59043  0.29288  1.0000
  C   C173      1.0  0.51417  0.92375  0.29288  1.0000
  C   C174      1.0  0.40957  0.48583  0.29288  1.0000
  C   C175      1.0  0.59043  0.07625  0.20712  1.0000
  C   C176      1.0  0.92375  0.51417  0.20712  1.0000
  C   C177      1.0  0.48583  0.40957  0.20712  1.0000
  C   C178      1.0  0.40959  0.25709  0.95954  1.0000
  C   C179      1.0  0.84751  0.59041  0.95954  1.0000
  C   C180      1.0  0.74291  0.15249  0.95954  1.0000
  H   H145      1.0  0.09470  0.23850  0.12660  1.0000
  H   H146      1.0  0.76150  0.85620  0.12660  1.0000
  H   H147      1.0  0.14380  0.90530  0.12660  1.0000
  H   H148      1.0  0.23850  0.09470  0.37340  1.0000
  H   H149      1.0  0.85620  0.76150  0.37340  1.0000
  H   H150      1.0  0.90530  0.14380  0.37340  1.0000
  H   H151      1.0  0.76137  0.57183  0.45993  1.0000
  H   H152      1.0  0.42817  0.18953  0.45993  1.0000
  H   H153      1.0  0.81047  0.23863  0.45993  1.0000
  H   H154      1.0  0.90517  0.42803  0.70673  1.0000
  H   H155      1.0  0.52287  0.09483  0.70673  1.0000
  H   H156      1.0  0.57197  0.47713  0.70673  1.0000
  H   H157      1.0  0.42803  0.90517  0.79327  1.0000
  H   H158      1.0  0.09483  0.52287  0.79327  1.0000
  H   H159      1.0  0.47713  0.57197  0.79327  1.0000
  H   H160      1.0  0.57183  0.76137  0.04007  1.0000
  H   H161      1.0  0.18953  0.42817  0.04007  1.0000
  H   H162      1.0  0.23863  0.81047  0.04007  1.0000
  H   H163      1.0  0.90530  0.76150  0.87340  1.0000
  H   H164      1.0  0.23850  0.14380  0.87340  1.0000
  H   H165      1.0  0.85620  0.09470  0.87340  1.0000
  H   H166      1.0  0.76150  0.90530  0.62660  1.0000
  H   H167      1.0  0.14380  0.23850  0.62660  1.0000
  H   H168      1.0  0.09470  0.85620  0.62660  1.0000
  H   H169      1.0  0.23863  0.42817  0.54007  1.0000
  H   H170      1.0  0.57183  0.81047  0.54007  1.0000
  H   H171      1.0  0.18953  0.76137  0.54007  1.0000
  H   H172      1.0  0.09483  0.57197  0.29327  1.0000
  H   H173      1.0  0.47713  0.90517  0.29327  1.0000
  H   H174      1.0  0.42803  0.52287  0.29327  1.0000
  H   H175      1.0  0.57197  0.09483  0.20673  1.0000
  H   H176      1.0  0.90517  0.47713  0.20673  1.0000
  H   H177      1.0  0.52287  0.42803  0.20673  1.0000
  H   H178      1.0  0.42817  0.23863  0.95993  1.0000
  H   H179      1.0  0.81047  0.57183  0.95993  1.0000
  H   H180      1.0  0.76137  0.18953  0.95993  1.0000
  C   C181      1.0  0.24278  0.31812  0.12351  1.0000
  C   C182      1.0  0.68188  0.92466  0.12351  1.0000
  C   C183      1.0  0.07534  0.75722  0.12351  1.0000
  C   C184      1.0  0.31812  0.24278  0.37649  1.0000
  C   C185      1.0  0.92466  0.68188  0.37649  1.0000
  C   C186      1.0  0.75722  0.07534  0.37649  1.0000
  C   C187      1.0  0.90945  0.65145  0.45684  1.0000
  C   C188      1.0  0.34855  0.25799  0.45684  1.0000
  C   C189      1.0  0.74201  0.09055  0.45684  1.0000
  C   C190      1.0  0.98479  0.57611  0.70982  1.0000
  C   C191      1.0  0.59133  0.01521  0.70982  1.0000
  C   C192      1.0  0.42389  0.40867  0.70982  1.0000
  C   C193      1.0  0.57611  0.98479  0.79018  1.0000
  C   C194      1.0  0.01521  0.59133  0.79018  1.0000
  C   C195      1.0  0.40867  0.42389  0.79018  1.0000
  C   C196      1.0  0.65145  0.90945  0.04316  1.0000
  C   C197      1.0  0.25799  0.34855  0.04316  1.0000
  C   C198      1.0  0.09055  0.74201  0.04316  1.0000
  C   C199      1.0  0.75722  0.68188  0.87649  1.0000
  C   C200      1.0  0.31812  0.07534  0.87649  1.0000
  C   C201      1.0  0.92466  0.24278  0.87649  1.0000
  C   C202      1.0  0.68188  0.75722  0.62351  1.0000
  C   C203      1.0  0.07534  0.31812  0.62351  1.0000
  C   C204      1.0  0.24278  0.92466  0.62351  1.0000
  C   C205      1.0  0.09055  0.34855  0.54316  1.0000
  C   C206      1.0  0.65145  0.74201  0.54316  1.0000
  C   C207      1.0  0.25799  0.90945  0.54316  1.0000
  C   C208      1.0  0.01521  0.42389  0.29018  1.0000
  C   C209      1.0  0.40867  0.98479  0.29018  1.0000
  C   C210      1.0  0.57611  0.59133  0.29018  1.0000
  C   C211      1.0  0.42389  0.01521  0.20982  1.0000
  C   C212      1.0  0.98479  0.40867  0.20982  1.0000
  C   C213      1.0  0.59133  0.57611  0.20982  1.0000
  C   C214      1.0  0.34855  0.09055  0.95684  1.0000
  C   C215      1.0  0.74201  0.65145  0.95684  1.0000
  C   C216      1.0  0.90945  0.25799  0.95684  1.0000
  H   H181      1.0  0.25840  0.35490  0.12090  1.0000
  H   H182      1.0  0.64510  0.90350  0.12090  1.0000
  H   H183      1.0  0.09650  0.74160  0.12090  1.0000
  H   H184      1.0  0.35490  0.25840  0.37910  1.0000
  H   H185      1.0  0.90350  0.64510  0.37910  1.0000
  H   H186      1.0  0.74160  0.09650  0.37910  1.0000
  H   H187      1.0  0.92507  0.68823  0.45423  1.0000
  H   H188      1.0  0.31177  0.23683  0.45423  1.0000
  H   H189      1.0  0.76317  0.07493  0.45423  1.0000
  H   H190      1.0  0.02157  0.59173  0.71243  1.0000
  H   H191      1.0  0.57017  0.97843  0.71243  1.0000
  H   H192      1.0  0.40827  0.42983  0.71243  1.0000
  H   H193      1.0  0.59173  0.02157  0.78757  1.0000
  H   H194      1.0  0.97843  0.57017  0.78757  1.0000
  H   H195      1.0  0.42983  0.40827  0.78757  1.0000
  H   H196      1.0  0.68823  0.92507  0.04577  1.0000
  H   H197      1.0  0.23683  0.31177  0.04577  1.0000
  H   H198      1.0  0.07493  0.76317  0.04577  1.0000
  H   H199      1.0  0.74160  0.64510  0.87910  1.0000
  H   H200      1.0  0.35490  0.09650  0.87910  1.0000
  H   H201      1.0  0.90350  0.25840  0.87910  1.0000
  H   H202      1.0  0.64510  0.74160  0.62090  1.0000
  H   H203      1.0  0.09650  0.35490  0.62090  1.0000
  H   H204      1.0  0.25840  0.90350  0.62090  1.0000
  H   H205      1.0  0.07493  0.31177  0.54577  1.0000
  H   H206      1.0  0.68823  0.76317  0.54577  1.0000
  H   H207      1.0  0.23683  0.92507  0.54577  1.0000
  H   H208      1.0  0.97843  0.40827  0.28757  1.0000
  H   H209      1.0  0.42983  0.02157  0.28757  1.0000
  H   H210      1.0  0.59173  0.57017  0.28757  1.0000
  H   H211      1.0  0.40827  0.97843  0.21243  1.0000
  H   H212      1.0  0.02157  0.42983  0.21243  1.0000
  H   H213      1.0  0.57017  0.59173  0.21243  1.0000
  H   H214      1.0  0.31177  0.07493  0.95423  1.0000
  H   H215      1.0  0.76317  0.68823  0.95423  1.0000
  H   H216      1.0  0.92507  0.23683  0.95423  1.0000
  C   C217      1.0  0.35027  0.25715  0.12466  1.0000
  C   C218      1.0  0.74285  0.09312  0.12466  1.0000
  C   C219      1.0  0.90688  0.64973  0.12466  1.0000
  C   C220      1.0  0.25715  0.35027  0.37534  1.0000
  C   C221      1.0  0.09312  0.74285  0.37534  1.0000
  C   C222      1.0  0.64973  0.90688  0.37534  1.0000
  C   C223      1.0  0.01694  0.59048  0.45799  1.0000
  C   C224      1.0  0.40952  0.42645  0.45799  1.0000
  C   C225      1.0  0.57355  0.98306  0.45799  1.0000
  C   C226      1.0  0.92382  0.68360  0.70867  1.0000
  C   C227      1.0  0.75979  0.07618  0.70867  1.0000
  C   C228      1.0  0.31640  0.24021  0.70867  1.0000
  C   C229      1.0  0.68360  0.92382  0.79133  1.0000
  C   C230      1.0  0.07618  0.75979  0.79133  1.0000
  C   C231      1.0  0.24021  0.31640  0.79133  1.0000
  C   C232      1.0  0.59048  0.01694  0.04201  1.0000
  C   C233      1.0  0.42645  0.40952  0.04201  1.0000
  C   C234      1.0  0.98306  0.57355  0.04201  1.0000
  C   C235      1.0  0.64973  0.74285  0.87534  1.0000
  C   C236      1.0  0.25715  0.90688  0.87534  1.0000
  C   C237      1.0  0.09312  0.35027  0.87534  1.0000
  C   C238      1.0  0.74285  0.64973  0.62466  1.0000
  C   C239      1.0  0.90688  0.25715  0.62466  1.0000
  C   C240      1.0  0.35027  0.09312  0.62466  1.0000
  C   C241      1.0  0.98306  0.40952  0.54201  1.0000
  C   C242      1.0  0.59048  0.57355  0.54201  1.0000
  C   C243      1.0  0.42645  0.01694  0.54201  1.0000
  C   C244      1.0  0.07618  0.31640  0.29133  1.0000
  C   C245      1.0  0.24021  0.92382  0.29133  1.0000
  C   C246      1.0  0.68360  0.75979  0.29133  1.0000
  C   C247      1.0  0.31640  0.07618  0.20867  1.0000
  C   C248      1.0  0.92382  0.24021  0.20867  1.0000
  C   C249      1.0  0.75979  0.68360  0.20867  1.0000
  C   C250      1.0  0.40952  0.98306  0.95799  1.0000
  C   C251      1.0  0.57355  0.59048  0.95799  1.0000
  C   C252      1.0  0.01694  0.42645  0.95799  1.0000
  H   H217      1.0  0.31430  0.23510  0.11960  1.0000
  H   H218      1.0  0.76490  0.07920  0.11960  1.0000
  H   H219      1.0  0.92080  0.68570  0.11960  1.0000
  H   H220      1.0  0.23510  0.31430  0.38040  1.0000
  H   H221      1.0  0.07920  0.76490  0.38040  1.0000
  H   H222      1.0  0.68570  0.92080  0.38040  1.0000
  H   H223      1.0  0.98097  0.56843  0.45293  1.0000
  H   H224      1.0  0.43157  0.41253  0.45293  1.0000
  H   H225      1.0  0.58747  0.01903  0.45293  1.0000
  H   H226      1.0  0.90177  0.64763  0.71373  1.0000
  H   H227      1.0  0.74587  0.09823  0.71373  1.0000
  H   H228      1.0  0.35237  0.25413  0.71373  1.0000
  H   H229      1.0  0.64763  0.90177  0.78627  1.0000
  H   H230      1.0  0.09823  0.74587  0.78627  1.0000
  H   H231      1.0  0.25413  0.35237  0.78627  1.0000
  H   H232      1.0  0.56843  0.98097  0.04707  1.0000
  H   H233      1.0  0.41253  0.43157  0.04707  1.0000
  H   H234      1.0  0.01903  0.58747  0.04707  1.0000
  H   H235      1.0  0.68570  0.76490  0.88040  1.0000
  H   H236      1.0  0.23510  0.92080  0.88040  1.0000
  H   H237      1.0  0.07920  0.31430  0.88040  1.0000
  H   H238      1.0  0.76490  0.68570  0.61960  1.0000
  H   H239      1.0  0.92080  0.23510  0.61960  1.0000
  H   H240      1.0  0.31430  0.07920  0.61960  1.0000
  H   H241      1.0  0.01903  0.43157  0.54707  1.0000
  H   H242      1.0  0.56843  0.58747  0.54707  1.0000
  H   H243      1.0  0.41253  0.98097  0.54707  1.0000
  H   H244      1.0  0.09823  0.35237  0.28627  1.0000
  H   H245      1.0  0.25413  0.90177  0.28627  1.0000
  H   H246      1.0  0.64763  0.74587  0.28627  1.0000
  H   H247      1.0  0.35237  0.09823  0.21373  1.0000
  H   H248      1.0  0.90177  0.25413  0.21373  1.0000
  H   H249      1.0  0.74587  0.64763  0.21373  1.0000
  H   H250      1.0  0.43157  0.01903  0.95293  1.0000
  H   H251      1.0  0.58747  0.56843  0.95293  1.0000
  H   H252      1.0  0.98097  0.41253  0.95293  1.0000
  C   C253      1.0  0.98555  0.07642  0.04086  1.0000
  C   C254      1.0  0.92358  0.90913  0.04086  1.0000
  C   C255      1.0  0.09087  0.01445  0.04086  1.0000
  C   C256      1.0  0.07642  0.98555  0.45914  1.0000
  C   C257      1.0  0.90913  0.92358  0.45914  1.0000
  C   C258      1.0  0.01445  0.09087  0.45914  1.0000
  C   C259      1.0  0.65222  0.40975  0.37419  1.0000
  C   C260      1.0  0.59025  0.24246  0.37419  1.0000
  C   C261      1.0  0.75754  0.34778  0.37419  1.0000
  C   C262      1.0  0.74309  0.31888  0.79247  1.0000
  C   C263      1.0  0.57580  0.25691  0.79247  1.0000
  C   C264      1.0  0.68112  0.42420  0.79247  1.0000
  C   C265      1.0  0.31888  0.74309  0.70753  1.0000
  C   C266      1.0  0.25691  0.57580  0.70753  1.0000
  C   C267      1.0  0.42420  0.68112  0.70753  1.0000
  C   C268      1.0  0.40975  0.65222  0.12581  1.0000
  C   C269      1.0  0.24246  0.59025  0.12581  1.0000
  C   C270      1.0  0.34778  0.75754  0.12581  1.0000
  C   C271      1.0  0.01445  0.92358  0.95914  1.0000
  C   C272      1.0  0.07642  0.09087  0.95914  1.0000
  C   C273      1.0  0.90913  0.98555  0.95914  1.0000
  C   C274      1.0  0.92358  0.01445  0.54086  1.0000
  C   C275      1.0  0.09087  0.07642  0.54086  1.0000
  C   C276      1.0  0.98555  0.90913  0.54086  1.0000
  C   C277      1.0  0.34778  0.59025  0.62581  1.0000
  C   C278      1.0  0.40975  0.75754  0.62581  1.0000
  C   C279      1.0  0.24246  0.65222  0.62581  1.0000
  C   C280      1.0  0.25691  0.68112  0.20753  1.0000
  C   C281      1.0  0.42420  0.74309  0.20753  1.0000
  C   C282      1.0  0.31888  0.57580  0.20753  1.0000
  C   C283      1.0  0.68112  0.25691  0.29247  1.0000
  C   C284      1.0  0.74309  0.42420  0.29247  1.0000
  C   C285      1.0  0.57580  0.31888  0.29247  1.0000
  C   C286      1.0  0.59025  0.34778  0.87419  1.0000
  C   C287      1.0  0.75754  0.40975  0.87419  1.0000
  C   C288      1.0  0.65222  0.24246  0.87419  1.0000
  H   H253      1.0  0.02210  0.09190  0.04420  1.0000
  H   H254      1.0  0.90810  0.93020  0.04420  1.0000
  H   H255      1.0  0.06980  0.97790  0.04420  1.0000
  H   H256      1.0  0.09190  0.02210  0.45580  1.0000
  H   H257      1.0  0.93020  0.90810  0.45580  1.0000
  H   H258      1.0  0.97790  0.06980  0.45580  1.0000
  H   H259      1.0  0.68877  0.42523  0.37753  1.0000
  H   H260      1.0  0.57477  0.26353  0.37753  1.0000
  H   H261      1.0  0.73647  0.31123  0.37753  1.0000
  H   H262      1.0  0.75857  0.35543  0.78913  1.0000
  H   H263      1.0  0.59687  0.24143  0.78913  1.0000
  H   H264      1.0  0.64457  0.40313  0.78913  1.0000
  H   H265      1.0  0.35543  0.75857  0.71087  1.0000
  H   H266      1.0  0.24143  0.59687  0.71087  1.0000
  H   H267      1.0  0.40313  0.64457  0.71087  1.0000
  H   H268      1.0  0.42523  0.68877  0.12247  1.0000
  H   H269      1.0  0.26353  0.57477  0.12247  1.0000
  H   H270      1.0  0.31123  0.73647  0.12247  1.0000
  H   H271      1.0  0.97790  0.90810  0.95580  1.0000
  H   H272      1.0  0.09190  0.06980  0.95580  1.0000
  H   H273      1.0  0.93020  0.02210  0.95580  1.0000
  H   H274      1.0  0.90810  0.97790  0.54420  1.0000
  H   H275      1.0  0.06980  0.09190  0.54420  1.0000
  H   H276      1.0  0.02210  0.93020  0.54420  1.0000
  H   H277      1.0  0.31123  0.57477  0.62247  1.0000
  H   H278      1.0  0.42523  0.73647  0.62247  1.0000
  H   H279      1.0  0.26353  0.68877  0.62247  1.0000
  H   H280      1.0  0.24143  0.64457  0.21087  1.0000
  H   H281      1.0  0.40313  0.75857  0.21087  1.0000
  H   H282      1.0  0.35543  0.59687  0.21087  1.0000
  H   H283      1.0  0.64457  0.24143  0.28913  1.0000
  H   H284      1.0  0.75857  0.40313  0.28913  1.0000
  H   H285      1.0  0.59687  0.35543  0.28913  1.0000
  H   H286      1.0  0.57477  0.31123  0.87753  1.0000
  H   H287      1.0  0.73647  0.42523  0.87753  1.0000
  H   H288      1.0  0.68877  0.26353  0.87753  1.0000
  C   C289      1.0  0.25782  0.40380  0.20915  1.0000
  C   C290      1.0  0.59620  0.85402  0.20915  1.0000
  C   C291      1.0  0.14598  0.74218  0.20915  1.0000
  C   C292      1.0  0.40380  0.25782  0.29085  1.0000
  C   C293      1.0  0.85402  0.59620  0.29085  1.0000
  C   C294      1.0  0.74218  0.14598  0.29085  1.0000
  C   C295      1.0  0.92449  0.73713  0.54248  1.0000
  C   C296      1.0  0.26287  0.18735  0.54248  1.0000
  C   C297      1.0  0.81265  0.07551  0.54248  1.0000
  C   C298      1.0  0.07047  0.59115  0.62418  1.0000
  C   C299      1.0  0.52069  0.92953  0.62418  1.0000
  C   C300      1.0  0.40885  0.47931  0.62418  1.0000
  C   C301      1.0  0.59115  0.07047  0.87582  1.0000
  C   C302      1.0  0.92953  0.52069  0.87582  1.0000
  C   C303      1.0  0.47931  0.40885  0.87582  1.0000
  C   C304      1.0  0.73713  0.92449  0.95752  1.0000
  C   C305      1.0  0.18735  0.26287  0.95752  1.0000
  C   C306      1.0  0.07551  0.81265  0.95752  1.0000
  C   C307      1.0  0.74218  0.59620  0.79085  1.0000
  C   C308      1.0  0.40380  0.14598  0.79085  1.0000
  C   C309      1.0  0.85402  0.25782  0.79085  1.0000
  C   C310      1.0  0.59620  0.74218  0.70915  1.0000
  C   C311      1.0  0.14598  0.40380  0.70915  1.0000
  C   C312      1.0  0.25782  0.85402  0.70915  1.0000
  C   C313      1.0  0.07551  0.26287  0.45752  1.0000
  C   C314      1.0  0.73713  0.81265  0.45752  1.0000
  C   C315      1.0  0.18735  0.92449  0.45752  1.0000
  C   C316      1.0  0.92953  0.40885  0.37582  1.0000
  C   C317      1.0  0.47931  0.07047  0.37582  1.0000
  C   C318      1.0  0.59115  0.52069  0.37582  1.0000
  C   C319      1.0  0.40885  0.92953  0.12418  1.0000
  C   C320      1.0  0.07047  0.47931  0.12418  1.0000
  C   C321      1.0  0.52069  0.59115  0.12418  1.0000
  C   C322      1.0  0.26287  0.07551  0.04248  1.0000
  C   C323      1.0  0.81265  0.73713  0.04248  1.0000
  C   C324      1.0  0.92449  0.18735  0.04248  1.0000
  H   H289      1.0  0.23510  0.41670  0.21470  1.0000
  H   H290      1.0  0.58330  0.81840  0.21470  1.0000
  H   H291      1.0  0.18160  0.76490  0.21470  1.0000
  H   H292      1.0  0.41670  0.23510  0.28530  1.0000
  H   H293      1.0  0.81840  0.58330  0.28530  1.0000
  H   H294      1.0  0.76490  0.18160  0.28530  1.0000
  H   H295      1.0  0.90177  0.75003  0.54803  1.0000
  H   H296      1.0  0.24997  0.15173  0.54803  1.0000
  H   H297      1.0  0.84827  0.09823  0.54803  1.0000
  H   H298      1.0  0.08337  0.56843  0.61863  1.0000
  H   H299      1.0  0.48507  0.91663  0.61863  1.0000
  H   H300      1.0  0.43157  0.51493  0.61863  1.0000
  H   H301      1.0  0.56843  0.08337  0.88137  1.0000
  H   H302      1.0  0.91663  0.48507  0.88137  1.0000
  H   H303      1.0  0.51493  0.43157  0.88137  1.0000
  H   H304      1.0  0.75003  0.90177  0.95197  1.0000
  H   H305      1.0  0.15173  0.24997  0.95197  1.0000
  H   H306      1.0  0.09823  0.84827  0.95197  1.0000
  H   H307      1.0  0.76490  0.58330  0.78530  1.0000
  H   H308      1.0  0.41670  0.18160  0.78530  1.0000
  H   H309      1.0  0.81840  0.23510  0.78530  1.0000
  H   H310      1.0  0.58330  0.76490  0.71470  1.0000
  H   H311      1.0  0.18160  0.41670  0.71470  1.0000
  H   H312      1.0  0.23510  0.81840  0.71470  1.0000
  H   H313      1.0  0.09823  0.24997  0.45197  1.0000
  H   H314      1.0  0.75003  0.84827  0.45197  1.0000
  H   H315      1.0  0.15173  0.90177  0.45197  1.0000
  H   H316      1.0  0.91663  0.43157  0.38137  1.0000
  H   H317      1.0  0.51493  0.08337  0.38137  1.0000
  H   H318      1.0  0.56843  0.48507  0.38137  1.0000
  H   H319      1.0  0.43157  0.91663  0.11863  1.0000
  H   H320      1.0  0.08337  0.51493  0.11863  1.0000
  H   H321      1.0  0.48507  0.56843  0.11863  1.0000
  H   H322      1.0  0.24997  0.09823  0.04803  1.0000
  H   H323      1.0  0.84827  0.75003  0.04803  1.0000
  H   H324      1.0  0.90177  0.15173  0.04803  1.0000
  C   C325      1.0  0.24647  0.09272  0.12227  1.0000
  C   C326      1.0  0.90728  0.15375  0.12227  1.0000
  C   C327      1.0  0.84625  0.75353  0.12227  1.0000
  C   C328      1.0  0.09272  0.24647  0.37773  1.0000
  C   C329      1.0  0.15375  0.90728  0.37773  1.0000
  C   C330      1.0  0.75353  0.84625  0.37773  1.0000
  C   C331      1.0  0.91314  0.42605  0.45560  1.0000
  C   C332      1.0  0.57395  0.48708  0.45560  1.0000
  C   C333      1.0  0.51292  0.08686  0.45560  1.0000
  C   C334      1.0  0.75939  0.57980  0.71106  1.0000
  C   C335      1.0  0.82042  0.24061  0.71106  1.0000
  C   C336      1.0  0.42020  0.17958  0.71106  1.0000
  C   C337      1.0  0.57980  0.75939  0.78894  1.0000
  C   C338      1.0  0.24061  0.82042  0.78894  1.0000
  C   C339      1.0  0.17958  0.42020  0.78894  1.0000
  C   C340      1.0  0.42605  0.91314  0.04440  1.0000
  C   C341      1.0  0.48708  0.57395  0.04440  1.0000
  C   C342      1.0  0.08686  0.51292  0.04440  1.0000
  C   C343      1.0  0.75353  0.90728  0.87773  1.0000
  C   C344      1.0  0.09272  0.84625  0.87773  1.0000
  C   C345      1.0  0.15375  0.24647  0.87773  1.0000
  C   C346      1.0  0.90728  0.75353  0.62227  1.0000
  C   C347      1.0  0.84625  0.09272  0.62227  1.0000
  C   C348      1.0  0.24647  0.15375  0.62227  1.0000
  C   C349      1.0  0.08686  0.57395  0.54440  1.0000
  C   C350      1.0  0.42605  0.51292  0.54440  1.0000
  C   C351      1.0  0.48708  0.91314  0.54440  1.0000
  C   C352      1.0  0.24061  0.42020  0.28894  1.0000
  C   C353      1.0  0.17958  0.75939  0.28894  1.0000
  C   C354      1.0  0.57980  0.82042  0.28894  1.0000
  C   C355      1.0  0.42020  0.24061  0.21106  1.0000
  C   C356      1.0  0.75939  0.17958  0.21106  1.0000
  C   C357      1.0  0.82042  0.57980  0.21106  1.0000
  C   C358      1.0  0.57395  0.08686  0.95560  1.0000
  C   C359      1.0  0.51292  0.42605  0.95560  1.0000
  C   C360      1.0  0.91314  0.48708  0.95560  1.0000
  H   H325      1.0  0.26690  0.07620  0.12140  1.0000
  H   H326      1.0  0.92380  0.19070  0.12140  1.0000
  H   H327      1.0  0.80930  0.73310  0.12140  1.0000
  H   H328      1.0  0.07620  0.26690  0.37860  1.0000
  H   H329      1.0  0.19070  0.92380  0.37860  1.0000
  H   H330      1.0  0.73310  0.80930  0.37860  1.0000
  H   H331      1.0  0.93357  0.40953  0.45473  1.0000
  H   H332      1.0  0.59047  0.52403  0.45473  1.0000
  H   H333      1.0  0.47597  0.06643  0.45473  1.0000
  H   H334      1.0  0.74287  0.60023  0.71193  1.0000
  H   H335      1.0  0.85737  0.25713  0.71193  1.0000
  H   H336      1.0  0.39977  0.14263  0.71193  1.0000
  H   H337      1.0  0.60023  0.74287  0.78807  1.0000
  H   H338      1.0  0.25713  0.85737  0.78807  1.0000
  H   H339      1.0  0.14263  0.39977  0.78807  1.0000
  H   H340      1.0  0.40953  0.93357  0.04527  1.0000
  H   H341      1.0  0.52403  0.59047  0.04527  1.0000
  H   H342      1.0  0.06643  0.47597  0.04527  1.0000
  H   H343      1.0  0.73310  0.92380  0.87860  1.0000
  H   H344      1.0  0.07620  0.80930  0.87860  1.0000
  H   H345      1.0  0.19070  0.26690  0.87860  1.0000
  H   H346      1.0  0.92380  0.73310  0.62140  1.0000
  H   H347      1.0  0.80930  0.07620  0.62140  1.0000
  H   H348      1.0  0.26690  0.19070  0.62140  1.0000
  H   H349      1.0  0.06643  0.59047  0.54527  1.0000
  H   H350      1.0  0.40953  0.47597  0.54527  1.0000
  H   H351      1.0  0.52403  0.93357  0.54527  1.0000
  H   H352      1.0  0.25713  0.39977  0.28807  1.0000
  H   H353      1.0  0.14263  0.74287  0.28807  1.0000
  H   H354      1.0  0.60023  0.85737  0.28807  1.0000
  H   H355      1.0  0.39977  0.25713  0.21193  1.0000
  H   H356      1.0  0.74287  0.14263  0.21193  1.0000
  H   H357      1.0  0.85737  0.60023  0.21193  1.0000
  H   H358      1.0  0.59047  0.06643  0.95473  1.0000
  H   H359      1.0  0.47597  0.40953  0.95473  1.0000
  H   H360      1.0  0.93357  0.52403  0.95473  1.0000
  C   C361      1.0  0.09793  0.24735  0.04599  1.0000
  C   C362      1.0  0.75265  0.85058  0.04599  1.0000
  C   C363      1.0  0.14942  0.90207  0.04599  1.0000
  C   C364      1.0  0.24735  0.09793  0.45401  1.0000
  C   C365      1.0  0.85058  0.75265  0.45401  1.0000
  C   C366      1.0  0.90207  0.14942  0.45401  1.0000
  C   C367      1.0  0.76460  0.58068  0.37932  1.0000
  C   C368      1.0  0.41932  0.18391  0.37932  1.0000
  C   C369      1.0  0.81609  0.23540  0.37932  1.0000
  C   C370      1.0  0.91402  0.43126  0.78734  1.0000
  C   C371      1.0  0.51725  0.08598  0.78734  1.0000
  C   C372      1.0  0.56874  0.48275  0.78734  1.0000
  C   C373      1.0  0.43126  0.91402  0.71266  1.0000
  C   C374      1.0  0.08598  0.51725  0.71266  1.0000
  C   C375      1.0  0.48275  0.56874  0.71266  1.0000
  C   C376      1.0  0.58068  0.76460  0.12068  1.0000
  C   C377      1.0  0.18391  0.41932  0.12068  1.0000
  C   C378      1.0  0.23540  0.81609  0.12068  1.0000
  C   C379      1.0  0.90207  0.75265  0.95401  1.0000
  C   C380      1.0  0.24735  0.14942  0.95401  1.0000
  C   C381      1.0  0.85058  0.09793  0.95401  1.0000
  C   C382      1.0  0.75265  0.90207  0.54599  1.0000
  C   C383      1.0  0.14942  0.24735  0.54599  1.0000
  C   C384      1.0  0.09793  0.85058  0.54599  1.0000
  C   C385      1.0  0.23540  0.41932  0.62068  1.0000
  C   C386      1.0  0.58068  0.81609  0.62068  1.0000
  C   C387      1.0  0.18391  0.76460  0.62068  1.0000
  C   C388      1.0  0.08598  0.56874  0.21266  1.0000
  C   C389      1.0  0.48275  0.91402  0.21266  1.0000
  C   C390      1.0  0.43126  0.51725  0.21266  1.0000
  C   C391      1.0  0.56874  0.08598  0.28734  1.0000
  C   C392      1.0  0.91402  0.48275  0.28734  1.0000
  C   C393      1.0  0.51725  0.43126  0.28734  1.0000
  C   C394      1.0  0.41932  0.23540  0.87932  1.0000
  C   C395      1.0  0.81609  0.58068  0.87932  1.0000
  C   C396      1.0  0.76460  0.18391  0.87932  1.0000
  H   H361      1.0  0.09470  0.27220  0.05940  1.0000
  H   H362      1.0  0.72780  0.82250  0.05940  1.0000
  H   H363      1.0  0.17750  0.90530  0.05940  1.0000
  H   H364      1.0  0.27220  0.09470  0.44060  1.0000
  H   H365      1.0  0.82250  0.72780  0.44060  1.0000
  H   H366      1.0  0.90530  0.17750  0.44060  1.0000
  H   H367      1.0  0.76137  0.60553  0.39273  1.0000
  H   H368      1.0  0.39447  0.15583  0.39273  1.0000
  H   H369      1.0  0.84417  0.23863  0.39273  1.0000
  H   H370      1.0  0.93887  0.42803  0.77393  1.0000
  H   H371      1.0  0.48917  0.06113  0.77393  1.0000
  H   H372      1.0  0.57197  0.51083  0.77393  1.0000
  H   H373      1.0  0.42803  0.93887  0.72607  1.0000
  H   H374      1.0  0.06113  0.48917  0.72607  1.0000
  H   H375      1.0  0.51083  0.57197  0.72607  1.0000
  H   H376      1.0  0.60553  0.76137  0.10727  1.0000
  H   H377      1.0  0.15583  0.39447  0.10727  1.0000
  H   H378      1.0  0.23863  0.84417  0.10727  1.0000
  H   H379      1.0  0.90530  0.72780  0.94060  1.0000
  H   H380      1.0  0.27220  0.17750  0.94060  1.0000
  H   H381      1.0  0.82250  0.09470  0.94060  1.0000
  H   H382      1.0  0.72780  0.90530  0.55940  1.0000
  H   H383      1.0  0.17750  0.27220  0.55940  1.0000
  H   H384      1.0  0.09470  0.82250  0.55940  1.0000
  H   H385      1.0  0.23863  0.39447  0.60727  1.0000
  H   H386      1.0  0.60553  0.84417  0.60727  1.0000
  H   H387      1.0  0.15583  0.76137  0.60727  1.0000
  H   H388      1.0  0.06113  0.57197  0.22607  1.0000
  H   H389      1.0  0.51083  0.93887  0.22607  1.0000
  H   H390      1.0  0.42803  0.48917  0.22607  1.0000
  H   H391      1.0  0.57197  0.06113  0.27393  1.0000
  H   H392      1.0  0.93887  0.51083  0.27393  1.0000
  H   H393      1.0  0.48917  0.42803  0.27393  1.0000
  H   H394      1.0  0.39447  0.23863  0.89273  1.0000
  H   H395      1.0  0.84417  0.60553  0.89273  1.0000
  H   H396      1.0  0.76137  0.15583  0.89273  1.0000
  C   C397      1.0  0.32077  0.23858  0.04527  1.0000
  C   C398      1.0  0.76142  0.08219  0.04527  1.0000
  C   C399      1.0  0.91781  0.67923  0.04527  1.0000
  C   C400      1.0  0.23858  0.32077  0.45473  1.0000
  C   C401      1.0  0.08219  0.76142  0.45473  1.0000
  C   C402      1.0  0.67923  0.91781  0.45473  1.0000
  C   C403      1.0  0.98744  0.57191  0.37860  1.0000
  C   C404      1.0  0.42809  0.41552  0.37860  1.0000
  C   C405      1.0  0.58448  0.01256  0.37860  1.0000
  C   C406      1.0  0.90525  0.65410  0.78806  1.0000
  C   C407      1.0  0.74886  0.09475  0.78806  1.0000
  C   C408      1.0  0.34590  0.25114  0.78806  1.0000
  C   C409      1.0  0.65410  0.90525  0.71194  1.0000
  C   C410      1.0  0.09475  0.74886  0.71194  1.0000
  C   C411      1.0  0.25114  0.34590  0.71194  1.0000
  C   C412      1.0  0.57191  0.98744  0.12140  1.0000
  C   C413      1.0  0.41552  0.42809  0.12140  1.0000
  C   C414      1.0  0.01256  0.58448  0.12140  1.0000
  C   C415      1.0  0.67923  0.76142  0.95473  1.0000
  C   C416      1.0  0.23858  0.91781  0.95473  1.0000
  C   C417      1.0  0.08219  0.32077  0.95473  1.0000
  C   C418      1.0  0.76142  0.67923  0.54527  1.0000
  C   C419      1.0  0.91781  0.23858  0.54527  1.0000
  C   C420      1.0  0.32077  0.08219  0.54527  1.0000
  C   C421      1.0  0.01256  0.42809  0.62140  1.0000
  C   C422      1.0  0.57191  0.58448  0.62140  1.0000
  C   C423      1.0  0.41552  0.98744  0.62140  1.0000
  C   C424      1.0  0.09475  0.34590  0.21194  1.0000
  C   C425      1.0  0.25114  0.90525  0.21194  1.0000
  C   C426      1.0  0.65410  0.74886  0.21194  1.0000
  C   C427      1.0  0.34590  0.09475  0.28806  1.0000
  C   C428      1.0  0.90525  0.25114  0.28806  1.0000
  C   C429      1.0  0.74886  0.65410  0.28806  1.0000
  C   C430      1.0  0.42809  0.01256  0.87860  1.0000
  C   C431      1.0  0.58448  0.57191  0.87860  1.0000
  C   C432      1.0  0.98744  0.41552  0.87860  1.0000
  H   H397      1.0  0.35570  0.25050  0.05220  1.0000
  H   H398      1.0  0.74950  0.10520  0.05220  1.0000
  H   H399      1.0  0.89480  0.64430  0.05220  1.0000
  H   H400      1.0  0.25050  0.35570  0.44780  1.0000
  H   H401      1.0  0.10520  0.74950  0.44780  1.0000
  H   H402      1.0  0.64430  0.89480  0.44780  1.0000
  H   H403      1.0  0.02237  0.58383  0.38553  1.0000
  H   H404      1.0  0.41617  0.43853  0.38553  1.0000
  H   H405      1.0  0.56147  0.97763  0.38553  1.0000
  H   H406      1.0  0.91717  0.68903  0.78113  1.0000
  H   H407      1.0  0.77187  0.08283  0.78113  1.0000
  H   H408      1.0  0.31097  0.22813  0.78113  1.0000
  H   H409      1.0  0.68903  0.91717  0.71887  1.0000
  H   H410      1.0  0.08283  0.77187  0.71887  1.0000
  H   H411      1.0  0.22813  0.31097  0.71887  1.0000
  H   H412      1.0  0.58383  0.02237  0.11447  1.0000
  H   H413      1.0  0.43853  0.41617  0.11447  1.0000
  H   H414      1.0  0.97763  0.56147  0.11447  1.0000
  H   H415      1.0  0.64430  0.74950  0.94780  1.0000
  H   H416      1.0  0.25050  0.89480  0.94780  1.0000
  H   H417      1.0  0.10520  0.35570  0.94780  1.0000
  H   H418      1.0  0.74950  0.64430  0.55220  1.0000
  H   H419      1.0  0.89480  0.25050  0.55220  1.0000
  H   H420      1.0  0.35570  0.10520  0.55220  1.0000
  H   H421      1.0  0.97763  0.41617  0.61447  1.0000
  H   H422      1.0  0.58383  0.56147  0.61447  1.0000
  H   H423      1.0  0.43853  0.02237  0.61447  1.0000
  H   H424      1.0  0.08283  0.31097  0.21887  1.0000
  H   H425      1.0  0.22813  0.91717  0.21887  1.0000
  H   H426      1.0  0.68903  0.77187  0.21887  1.0000
  H   H427      1.0  0.31097  0.08283  0.28113  1.0000
  H   H428      1.0  0.91717  0.22813  0.28113  1.0000
  H   H429      1.0  0.77187  0.68903  0.28113  1.0000
  H   H430      1.0  0.41617  0.97763  0.88553  1.0000
  H   H431      1.0  0.56147  0.58383  0.88553  1.0000
  H   H432      1.0  0.02237  0.43853  0.88553  1.0000
