data_image0
_chemical_formula_structural       Co4O24C12H12
_chemical_formula_sum              "Co4 O24 C12 H12"
_cell_length_a       8.5322
_cell_length_b       8.5322
_cell_length_c       13.3228
_cell_angle_alpha    90
_cell_angle_beta     90
_cell_angle_gamma    120

_space_group_name_H-M_alt    "P 1"
_space_group_IT_number       1

loop_
  _space_group_symop_operation_xyz
  'x, y, z'

loop_
  _atom_site_type_symbol
  _atom_site_label
  _atom_site_symmetry_multiplicity
  _atom_site_fract_x
  _atom_site_fract_y
  _atom_site_fract_z
  _atom_site_occupancy
  Co  Co1       1.0  0.00000  0.00000  0.50000  1.0000
  Co  Co2       1.0  0.00000  0.00000  0.00000  1.0000
  Co  Co3       1.0  0.33330  0.66670  0.25000  1.0000
  Co  Co4       1.0  0.66670  0.33330  0.75000  1.0000
  O   O1        1.0  0.21324  0.20309  0.41667  1.0000
  O   O2        1.0  0.79691  0.01015  0.41667  1.0000
  O   O3        1.0  0.98985  0.78676  0.41667  1.0000
  O   O4        1.0  0.79691  0.78676  0.08333  1.0000
  O   O5        1.0  0.98985  0.20309  0.08333  1.0000
  O   O6        1.0  0.21324  0.01015  0.08333  1.0000
  O   O7        1.0  0.78676  0.79691  0.58333  1.0000
  O   O8        1.0  0.20309  0.98985  0.58333  1.0000
  O   O9        1.0  0.01015  0.21324  0.58333  1.0000
  O   O10       1.0  0.20309  0.21324  0.91667  1.0000
  O   O11       1.0  0.01015  0.79691  0.91667  1.0000
  O   O12       1.0  0.78676  0.98985  0.91667  1.0000
  O   O13       1.0  0.33922  0.47061  0.34267  1.0000
  O   O14       1.0  0.52939  0.86861  0.34267  1.0000
  O   O15       1.0  0.13139  0.66078  0.34267  1.0000
  O   O16       1.0  0.52939  0.66078  0.15733  1.0000
  O   O17       1.0  0.13139  0.47061  0.15733  1.0000
  O   O18       1.0  0.33922  0.86861  0.15733  1.0000
  O   O19       1.0  0.66078  0.52939  0.65733  1.0000
  O   O20       1.0  0.47061  0.13139  0.65733  1.0000
  O   O21       1.0  0.86861  0.33922  0.65733  1.0000
  O   O22       1.0  0.47061  0.33922  0.84267  1.0000
  O   O23       1.0  0.86861  0.52939  0.84267  1.0000
  O   O24       1.0  0.66078  0.13139  0.84267  1.0000
  C   C1        1.0  0.20820  0.32610  0.37035  1.0000
  C   C2        1.0  0.67390  0.88210  0.37035  1.0000
  C   C3        1.0  0.11790  0.79180  0.37035  1.0000
  C   C4        1.0  0.67390  0.79180  0.12965  1.0000
  C   C5        1.0  0.11790  0.32610  0.12965  1.0000
  C   C6        1.0  0.20820  0.88210  0.12965  1.0000
  C   C7        1.0  0.79180  0.67390  0.62965  1.0000
  C   C8        1.0  0.32610  0.11790  0.62965  1.0000
  C   C9        1.0  0.88210  0.20820  0.62965  1.0000
  C   C10       1.0  0.32610  0.20820  0.87035  1.0000
  C   C11       1.0  0.88210  0.67390  0.87035  1.0000
  C   C12       1.0  0.79180  0.11790  0.87035  1.0000
  H   H1        1.0  0.09410  0.30810  0.35480  1.0000
  H   H2        1.0  0.69190  0.78600  0.35480  1.0000
  H   H3        1.0  0.21400  0.90590  0.35480  1.0000
  H   H4        1.0  0.69190  0.90590  0.14520  1.0000
  H   H5        1.0  0.21400  0.30810  0.14520  1.0000
  H   H6        1.0  0.09410  0.78600  0.14520  1.0000
  H   H7        1.0  0.90590  0.69190  0.64520  1.0000
  H   H8        1.0  0.30810  0.21400  0.64520  1.0000
  H   H9        1.0  0.78600  0.09410  0.64520  1.0000
  H   H10       1.0  0.30810  0.09410  0.85480  1.0000
  H   H11       1.0  0.78600  0.69190  0.85480  1.0000
  H   H12       1.0  0.90590  0.21400  0.85480  1.0000
