data_image0
_chemical_formula_structural       Co8O48C12H12C12H12
_chemical_formula_sum              "Co8 O48 C24 H24"
_cell_length_a       8.36165
_cell_length_b       8.36165
_cell_length_c       28.3983
_cell_angle_alpha    90
_cell_angle_beta     90
_cell_angle_gamma    120

_space_group_name_H-M_alt    "P 1"
_space_group_IT_number       1

loop_
  _space_group_symop_operation_xyz
  'x, y, z'

loop_
  _atom_site_type_symbol
  _atom_site_label
  _atom_site_symmetry_multiplicity
  _atom_site_fract_x
  _atom_site_fract_y
  _atom_site_fract_z
  _atom_site_occupancy
  Co  Co1       1.0  0.00000  0.00000  0.00000  1.0000
  Co  Co2       1.0  0.00000  0.00000  0.50000  1.0000
  Co  Co3       1.0  0.66670  0.33330  0.12633  1.0000
  Co  Co4       1.0  0.66670  0.33330  0.37367  1.0000
  Co  Co5       1.0  0.33330  0.66670  0.87367  1.0000
  Co  Co6       1.0  0.33330  0.66670  0.62633  1.0000
  Co  Co7       1.0  0.00000  0.00000  0.25000  1.0000
  Co  Co8       1.0  0.00000  0.00000  0.75000  1.0000
  O   O1        1.0  0.21133  0.99952  0.03927  1.0000
  O   O2        1.0  0.00048  0.21181  0.03927  1.0000
  O   O3        1.0  0.78819  0.78867  0.03927  1.0000
  O   O4        1.0  0.00048  0.78867  0.46073  1.0000
  O   O5        1.0  0.78819  0.99952  0.46073  1.0000
  O   O6        1.0  0.21133  0.21181  0.46073  1.0000
  O   O7        1.0  0.78867  0.00048  0.96073  1.0000
  O   O8        1.0  0.99952  0.78819  0.96073  1.0000
  O   O9        1.0  0.21181  0.21133  0.96073  1.0000
  O   O10       1.0  0.99952  0.21133  0.53927  1.0000
  O   O11       1.0  0.21181  0.00048  0.53927  1.0000
  O   O12       1.0  0.78867  0.78819  0.53927  1.0000
  O   O13       1.0  0.46820  0.13280  0.08083  1.0000
  O   O14       1.0  0.86720  0.33540  0.08083  1.0000
  O   O15       1.0  0.66460  0.53180  0.08083  1.0000
  O   O16       1.0  0.86720  0.53180  0.41917  1.0000
  O   O17       1.0  0.66460  0.13280  0.41917  1.0000
  O   O18       1.0  0.46820  0.33540  0.41917  1.0000
  O   O19       1.0  0.53180  0.86720  0.91917  1.0000
  O   O20       1.0  0.13280  0.66460  0.91917  1.0000
  O   O21       1.0  0.33540  0.46820  0.91917  1.0000
  O   O22       1.0  0.13280  0.46820  0.58083  1.0000
  O   O23       1.0  0.33540  0.86720  0.58083  1.0000
  O   O24       1.0  0.53180  0.66460  0.58083  1.0000
  O   O25       1.0  0.45960  0.34160  0.16578  1.0000
  O   O26       1.0  0.65840  0.11800  0.16578  1.0000
  O   O27       1.0  0.88200  0.54040  0.16578  1.0000
  O   O28       1.0  0.65840  0.54040  0.33422  1.0000
  O   O29       1.0  0.88200  0.34160  0.33422  1.0000
  O   O30       1.0  0.45960  0.11800  0.33422  1.0000
  O   O31       1.0  0.54040  0.65840  0.83422  1.0000
  O   O32       1.0  0.34160  0.88200  0.83422  1.0000
  O   O33       1.0  0.11800  0.45960  0.83422  1.0000
  O   O34       1.0  0.34160  0.45960  0.66578  1.0000
  O   O35       1.0  0.11800  0.65840  0.66578  1.0000
  O   O36       1.0  0.54040  0.88200  0.66578  1.0000
  O   O37       1.0  0.20323  0.21095  0.20773  1.0000
  O   O38       1.0  0.78905  0.99228  0.20773  1.0000
  O   O39       1.0  0.00772  0.79677  0.20773  1.0000
  O   O40       1.0  0.78905  0.79677  0.29227  1.0000
  O   O41       1.0  0.00772  0.21095  0.29227  1.0000
  O   O42       1.0  0.20323  0.99228  0.29227  1.0000
  O   O43       1.0  0.79677  0.78905  0.79227  1.0000
  O   O44       1.0  0.21095  0.00772  0.79227  1.0000
  O   O45       1.0  0.99228  0.20323  0.79227  1.0000
  O   O46       1.0  0.21095  0.20323  0.70773  1.0000
  O   O47       1.0  0.99228  0.78905  0.70773  1.0000
  O   O48       1.0  0.79677  0.00772  0.70773  1.0000
  C   C1        1.0  0.31920  0.11490  0.06732  1.0000
  C   C2        1.0  0.88510  0.20430  0.06732  1.0000
  C   C3        1.0  0.79570  0.68080  0.06732  1.0000
  C   C4        1.0  0.88510  0.68080  0.43268  1.0000
  C   C5        1.0  0.79570  0.11490  0.43268  1.0000
  C   C6        1.0  0.31920  0.20430  0.43268  1.0000
  C   C7        1.0  0.68080  0.88510  0.93268  1.0000
  C   C8        1.0  0.11490  0.79570  0.93268  1.0000
  C   C9        1.0  0.20430  0.31920  0.93268  1.0000
  C   C10       1.0  0.11490  0.31920  0.56732  1.0000
  C   C11       1.0  0.20430  0.88510  0.56732  1.0000
  C   C12       1.0  0.68080  0.79570  0.56732  1.0000
  H   H1        1.0  0.28570  0.19700  0.07970  1.0000
  H   H2        1.0  0.80300  0.08870  0.07970  1.0000
  H   H3        1.0  0.91130  0.71430  0.07970  1.0000
  H   H4        1.0  0.80300  0.71430  0.42030  1.0000
  H   H5        1.0  0.91130  0.19700  0.42030  1.0000
  H   H6        1.0  0.28570  0.08870  0.42030  1.0000
  H   H7        1.0  0.71430  0.80300  0.92030  1.0000
  H   H8        1.0  0.19700  0.91130  0.92030  1.0000
  H   H9        1.0  0.08870  0.28570  0.92030  1.0000
  H   H10       1.0  0.19700  0.28570  0.57970  1.0000
  H   H11       1.0  0.08870  0.80300  0.57970  1.0000
  H   H12       1.0  0.71430  0.91130  0.57970  1.0000
  C   C13       1.0  0.33780  0.21350  0.18925  1.0000
  C   C14       1.0  0.78650  0.12430  0.18925  1.0000
  C   C15       1.0  0.87570  0.66220  0.18925  1.0000
  C   C16       1.0  0.78650  0.66220  0.31075  1.0000
  C   C17       1.0  0.87570  0.21350  0.31075  1.0000
  C   C18       1.0  0.33780  0.12430  0.31075  1.0000
  C   C19       1.0  0.66220  0.78650  0.81075  1.0000
  C   C20       1.0  0.21350  0.87570  0.81075  1.0000
  C   C21       1.0  0.12430  0.33780  0.81075  1.0000
  C   C22       1.0  0.21350  0.33780  0.68925  1.0000
  C   C23       1.0  0.12430  0.78650  0.68925  1.0000
  C   C24       1.0  0.66220  0.87570  0.68925  1.0000
  H   H13       1.0  0.34910  0.10930  0.19330  1.0000
  H   H14       1.0  0.89070  0.23980  0.19330  1.0000
  H   H15       1.0  0.76020  0.65090  0.19330  1.0000
  H   H16       1.0  0.89070  0.65090  0.30670  1.0000
  H   H17       1.0  0.76020  0.10930  0.30670  1.0000
  H   H18       1.0  0.34910  0.23980  0.30670  1.0000
  H   H19       1.0  0.65090  0.89070  0.80670  1.0000
  H   H20       1.0  0.10930  0.76020  0.80670  1.0000
  H   H21       1.0  0.23980  0.34910  0.80670  1.0000
  H   H22       1.0  0.10930  0.34910  0.69330  1.0000
  H   H23       1.0  0.23980  0.89070  0.69330  1.0000
  H   H24       1.0  0.65090  0.76020  0.69330  1.0000
