data_image0
_chemical_formula_structural       Co18O108C36H36C18H18
_chemical_formula_sum              "Co18 O108 C54 H54"
_cell_length_a       8.4069
_cell_length_b       8.4069
_cell_length_c       61.921
_cell_angle_alpha    90
_cell_angle_beta     90
_cell_angle_gamma    120

_space_group_name_H-M_alt    "P 1"
_space_group_IT_number       1

loop_
  _space_group_symop_operation_xyz
  'x, y, z'

loop_
  _atom_site_type_symbol
  _atom_site_label
  _atom_site_symmetry_multiplicity
  _atom_site_fract_x
  _atom_site_fract_y
  _atom_site_fract_z
  _atom_site_occupancy
  Co  Co1       1.0  0.00000  0.00000  0.00000  1.0000
  Co  Co2       1.0  0.00000  0.00000  0.50000  1.0000
  Co  Co3       1.0  0.66667  0.33333  0.33333  1.0000
  Co  Co4       1.0  0.66667  0.33333  0.83333  1.0000
  Co  Co5       1.0  0.33333  0.66667  0.66667  1.0000
  Co  Co6       1.0  0.33333  0.66667  0.16667  1.0000
  Co  Co7       1.0  0.33330  0.66670  0.05586  1.0000
  Co  Co8       1.0  0.66670  0.33330  0.44414  1.0000
  Co  Co9       1.0  0.99997  0.00003  0.38920  1.0000
  Co  Co10      1.0  0.33337  0.66663  0.77747  1.0000
  Co  Co11      1.0  0.66663  0.33337  0.72253  1.0000
  Co  Co12      1.0  0.00003  0.99997  0.11080  1.0000
  Co  Co13      1.0  0.66670  0.33330  0.94414  1.0000
  Co  Co14      1.0  0.33330  0.66670  0.55586  1.0000
  Co  Co15      1.0  0.00003  0.99997  0.61080  1.0000
  Co  Co16      1.0  0.66663  0.33337  0.22253  1.0000
  Co  Co17      1.0  0.33337  0.66663  0.27747  1.0000
  Co  Co18      1.0  0.99997  0.00003  0.88920  1.0000
  O   O1        1.0  0.99170  0.20600  0.01786  1.0000
  O   O2        1.0  0.79400  0.78570  0.01786  1.0000
  O   O3        1.0  0.21430  0.00830  0.01786  1.0000
  O   O4        1.0  0.20600  0.99170  0.48214  1.0000
  O   O5        1.0  0.78570  0.79400  0.48214  1.0000
  O   O6        1.0  0.00830  0.21430  0.48214  1.0000
  O   O7        1.0  0.65837  0.53933  0.35119  1.0000
  O   O8        1.0  0.46067  0.11903  0.35119  1.0000
  O   O9        1.0  0.88097  0.34163  0.35119  1.0000
  O   O10       1.0  0.87267  0.32503  0.81547  1.0000
  O   O11       1.0  0.45237  0.12733  0.81547  1.0000
  O   O12       1.0  0.67497  0.54763  0.81547  1.0000
  O   O13       1.0  0.32503  0.87267  0.68453  1.0000
  O   O14       1.0  0.12733  0.45237  0.68453  1.0000
  O   O15       1.0  0.54763  0.67497  0.68453  1.0000
  O   O16       1.0  0.53933  0.65837  0.14881  1.0000
  O   O17       1.0  0.11903  0.46067  0.14881  1.0000
  O   O18       1.0  0.34163  0.88097  0.14881  1.0000
  O   O19       1.0  0.00830  0.79400  0.98214  1.0000
  O   O20       1.0  0.20600  0.21430  0.98214  1.0000
  O   O21       1.0  0.78570  0.99170  0.98214  1.0000
  O   O22       1.0  0.79400  0.00830  0.51786  1.0000
  O   O23       1.0  0.21430  0.20600  0.51786  1.0000
  O   O24       1.0  0.99170  0.78570  0.51786  1.0000
  O   O25       1.0  0.34163  0.46067  0.64881  1.0000
  O   O26       1.0  0.53933  0.88097  0.64881  1.0000
  O   O27       1.0  0.11903  0.65837  0.64881  1.0000
  O   O28       1.0  0.12733  0.67497  0.18453  1.0000
  O   O29       1.0  0.54763  0.87267  0.18453  1.0000
  O   O30       1.0  0.32503  0.45237  0.18453  1.0000
  O   O31       1.0  0.67497  0.12733  0.31547  1.0000
  O   O32       1.0  0.87267  0.54763  0.31547  1.0000
  O   O33       1.0  0.45237  0.32503  0.31547  1.0000
  O   O34       1.0  0.46067  0.34163  0.85119  1.0000
  O   O35       1.0  0.88097  0.53933  0.85119  1.0000
  O   O36       1.0  0.65837  0.11903  0.85119  1.0000
  O   O37       1.0  0.13040  0.46910  0.03548  1.0000
  O   O38       1.0  0.53090  0.66130  0.03548  1.0000
  O   O39       1.0  0.33870  0.86960  0.03548  1.0000
  O   O40       1.0  0.46910  0.13040  0.46452  1.0000
  O   O41       1.0  0.66130  0.53090  0.46452  1.0000
  O   O42       1.0  0.86960  0.33870  0.46452  1.0000
  O   O43       1.0  0.79707  0.80243  0.36881  1.0000
  O   O44       1.0  0.19757  0.99463  0.36881  1.0000
  O   O45       1.0  0.00537  0.20293  0.36881  1.0000
  O   O46       1.0  0.13577  0.46373  0.79785  1.0000
  O   O47       1.0  0.32797  0.86423  0.79785  1.0000
  O   O48       1.0  0.53627  0.67203  0.79785  1.0000
  O   O49       1.0  0.46373  0.13577  0.70215  1.0000
  O   O50       1.0  0.86423  0.32797  0.70215  1.0000
  O   O51       1.0  0.67203  0.53627  0.70215  1.0000
  O   O52       1.0  0.80243  0.79707  0.13119  1.0000
  O   O53       1.0  0.99463  0.19757  0.13119  1.0000
  O   O54       1.0  0.20293  0.00537  0.13119  1.0000
  O   O55       1.0  0.86960  0.53090  0.96452  1.0000
  O   O56       1.0  0.46910  0.33870  0.96452  1.0000
  O   O57       1.0  0.66130  0.13040  0.96452  1.0000
  O   O58       1.0  0.53090  0.86960  0.53548  1.0000
  O   O59       1.0  0.33870  0.46910  0.53548  1.0000
  O   O60       1.0  0.13040  0.66130  0.53548  1.0000
  O   O61       1.0  0.20293  0.19757  0.63119  1.0000
  O   O62       1.0  0.80243  0.00537  0.63119  1.0000
  O   O63       1.0  0.99463  0.79707  0.63119  1.0000
  O   O64       1.0  0.86423  0.53627  0.20215  1.0000
  O   O65       1.0  0.67203  0.13577  0.20215  1.0000
  O   O66       1.0  0.46373  0.32797  0.20215  1.0000
  O   O67       1.0  0.53627  0.86423  0.29785  1.0000
  O   O68       1.0  0.13577  0.67203  0.29785  1.0000
  O   O69       1.0  0.32797  0.46373  0.29785  1.0000
  O   O70       1.0  0.19757  0.20293  0.86881  1.0000
  O   O71       1.0  0.00537  0.80243  0.86881  1.0000
  O   O72       1.0  0.79707  0.99463  0.86881  1.0000
  O   O73       1.0  0.34710  0.46430  0.07441  1.0000
  O   O74       1.0  0.53570  0.88280  0.07441  1.0000
  O   O75       1.0  0.11720  0.65290  0.07441  1.0000
  O   O76       1.0  0.46430  0.34710  0.42559  1.0000
  O   O77       1.0  0.88280  0.53570  0.42559  1.0000
  O   O78       1.0  0.65290  0.11720  0.42559  1.0000
  O   O79       1.0  0.01377  0.79763  0.40774  1.0000
  O   O80       1.0  0.20237  0.21613  0.40774  1.0000
  O   O81       1.0  0.78387  0.98623  0.40774  1.0000
  O   O82       1.0  0.13097  0.68043  0.75892  1.0000
  O   O83       1.0  0.54947  0.86903  0.75892  1.0000
  O   O84       1.0  0.31957  0.45053  0.75892  1.0000
  O   O85       1.0  0.68043  0.13097  0.74108  1.0000
  O   O86       1.0  0.86903  0.54947  0.74108  1.0000
  O   O87       1.0  0.45053  0.31957  0.74108  1.0000
  O   O88       1.0  0.79763  0.01377  0.09226  1.0000
  O   O89       1.0  0.21613  0.20237  0.09226  1.0000
  O   O90       1.0  0.98623  0.78387  0.09226  1.0000
  O   O91       1.0  0.65290  0.53570  0.92559  1.0000
  O   O92       1.0  0.46430  0.11720  0.92559  1.0000
  O   O93       1.0  0.88280  0.34710  0.92559  1.0000
  O   O94       1.0  0.53570  0.65290  0.57441  1.0000
  O   O95       1.0  0.11720  0.46430  0.57441  1.0000
  O   O96       1.0  0.34710  0.88280  0.57441  1.0000
  O   O97       1.0  0.98623  0.20237  0.59226  1.0000
  O   O98       1.0  0.79763  0.78387  0.59226  1.0000
  O   O99       1.0  0.21613  0.01377  0.59226  1.0000
  O   O100      1.0  0.86903  0.31957  0.24108  1.0000
  O   O101      1.0  0.45053  0.13097  0.24108  1.0000
  O   O102      1.0  0.68043  0.54947  0.24108  1.0000
  O   O103      1.0  0.31957  0.86903  0.25892  1.0000
  O   O104      1.0  0.13097  0.45053  0.25892  1.0000
  O   O105      1.0  0.54947  0.68043  0.25892  1.0000
  O   O106      1.0  0.20237  0.98623  0.90774  1.0000
  O   O107      1.0  0.78387  0.79763  0.90774  1.0000
  O   O108      1.0  0.01377  0.21613  0.90774  1.0000
  C   C1        1.0  0.11670  0.32360  0.02925  1.0000
  C   C2        1.0  0.67640  0.79310  0.02925  1.0000
  C   C3        1.0  0.20690  0.88330  0.02925  1.0000
  C   C4        1.0  0.32360  0.11670  0.47075  1.0000
  C   C5        1.0  0.79310  0.67640  0.47075  1.0000
  C   C6        1.0  0.88330  0.20690  0.47075  1.0000
  C   C7        1.0  0.78337  0.65693  0.36258  1.0000
  C   C8        1.0  0.34307  0.12643  0.36258  1.0000
  C   C9        1.0  0.87357  0.21663  0.36258  1.0000
  C   C10       1.0  0.99027  0.45003  0.80408  1.0000
  C   C11       1.0  0.45977  0.00973  0.80408  1.0000
  C   C12       1.0  0.54997  0.54023  0.80408  1.0000
  C   C13       1.0  0.45003  0.99027  0.69592  1.0000
  C   C14       1.0  0.00973  0.45977  0.69592  1.0000
  C   C15       1.0  0.54023  0.54997  0.69592  1.0000
  C   C16       1.0  0.65693  0.78337  0.13742  1.0000
  C   C17       1.0  0.12643  0.34307  0.13742  1.0000
  C   C18       1.0  0.21663  0.87357  0.13742  1.0000
  C   C19       1.0  0.88330  0.67640  0.97075  1.0000
  C   C20       1.0  0.32360  0.20690  0.97075  1.0000
  C   C21       1.0  0.79310  0.11670  0.97075  1.0000
  C   C22       1.0  0.67640  0.88330  0.52925  1.0000
  C   C23       1.0  0.20690  0.32360  0.52925  1.0000
  C   C24       1.0  0.11670  0.79310  0.52925  1.0000
  C   C25       1.0  0.21663  0.34307  0.63742  1.0000
  C   C26       1.0  0.65693  0.87357  0.63742  1.0000
  C   C27       1.0  0.12643  0.78337  0.63742  1.0000
  C   C28       1.0  0.00973  0.54997  0.19592  1.0000
  C   C29       1.0  0.54023  0.99027  0.19592  1.0000
  C   C30       1.0  0.45003  0.45977  0.19592  1.0000
  C   C31       1.0  0.54997  0.00973  0.30408  1.0000
  C   C32       1.0  0.99027  0.54023  0.30408  1.0000
  C   C33       1.0  0.45977  0.45003  0.30408  1.0000
  C   C34       1.0  0.34307  0.21663  0.86258  1.0000
  C   C35       1.0  0.87357  0.65693  0.86258  1.0000
  C   C36       1.0  0.78337  0.12643  0.86258  1.0000
  H   H1        1.0  0.20870  0.29960  0.03350  1.0000
  H   H2        1.0  0.70040  0.90910  0.03350  1.0000
  H   H3        1.0  0.09090  0.79130  0.03350  1.0000
  H   H4        1.0  0.29960  0.20870  0.46650  1.0000
  H   H5        1.0  0.90910  0.70040  0.46650  1.0000
  H   H6        1.0  0.79130  0.09090  0.46650  1.0000
  H   H7        1.0  0.87537  0.63293  0.36683  1.0000
  H   H8        1.0  0.36707  0.24243  0.36683  1.0000
  H   H9        1.0  0.75757  0.12463  0.36683  1.0000
  H   H10       1.0  0.96627  0.54203  0.79983  1.0000
  H   H11       1.0  0.57577  0.03373  0.79983  1.0000
  H   H12       1.0  0.45797  0.42423  0.79983  1.0000
  H   H13       1.0  0.54203  0.96627  0.70017  1.0000
  H   H14       1.0  0.03373  0.57577  0.70017  1.0000
  H   H15       1.0  0.42423  0.45797  0.70017  1.0000
  H   H16       1.0  0.63293  0.87537  0.13317  1.0000
  H   H17       1.0  0.24243  0.36707  0.13317  1.0000
  H   H18       1.0  0.12463  0.75757  0.13317  1.0000
  H   H19       1.0  0.79130  0.70040  0.96650  1.0000
  H   H20       1.0  0.29960  0.09090  0.96650  1.0000
  H   H21       1.0  0.90910  0.20870  0.96650  1.0000
  H   H22       1.0  0.70040  0.79130  0.53350  1.0000
  H   H23       1.0  0.09090  0.29960  0.53350  1.0000
  H   H24       1.0  0.20870  0.90910  0.53350  1.0000
  H   H25       1.0  0.12463  0.36707  0.63317  1.0000
  H   H26       1.0  0.63293  0.75757  0.63317  1.0000
  H   H27       1.0  0.24243  0.87537  0.63317  1.0000
  H   H28       1.0  0.03373  0.45797  0.20017  1.0000
  H   H29       1.0  0.42423  0.96627  0.20017  1.0000
  H   H30       1.0  0.54203  0.57577  0.20017  1.0000
  H   H31       1.0  0.45797  0.03373  0.29983  1.0000
  H   H32       1.0  0.96627  0.42423  0.29983  1.0000
  H   H33       1.0  0.57577  0.54203  0.29983  1.0000
  H   H34       1.0  0.36707  0.12463  0.86683  1.0000
  H   H35       1.0  0.75757  0.63293  0.86683  1.0000
  H   H36       1.0  0.87537  0.24243  0.86683  1.0000
  C   C37       1.0  0.21320  0.33330  0.08330  1.0000
  C   C38       1.0  0.66670  0.87990  0.08330  1.0000
  C   C39       1.0  0.12010  0.78680  0.08330  1.0000
  C   C40       1.0  0.33330  0.21320  0.41670  1.0000
  C   C41       1.0  0.87990  0.66670  0.41670  1.0000
  C   C42       1.0  0.78680  0.12010  0.41670  1.0000
  C   C43       1.0  0.99997  0.54653  0.75003  1.0000
  C   C44       1.0  0.54657  0.00003  0.75003  1.0000
  C   C45       1.0  0.45347  0.45343  0.75003  1.0000
  C   C46       1.0  0.78680  0.66670  0.91670  1.0000
  C   C47       1.0  0.33330  0.12010  0.91670  1.0000
  C   C48       1.0  0.87990  0.21320  0.91670  1.0000
  C   C49       1.0  0.66670  0.78680  0.58330  1.0000
  C   C50       1.0  0.12010  0.33330  0.58330  1.0000
  C   C51       1.0  0.21320  0.87990  0.58330  1.0000
  C   C52       1.0  0.00003  0.45347  0.24997  1.0000
  C   C53       1.0  0.45343  0.99997  0.24997  1.0000
  C   C54       1.0  0.54653  0.54657  0.24997  1.0000
  H   H37       1.0  0.10260  0.33330  0.08330  1.0000
  H   H38       1.0  0.66670  0.76930  0.08330  1.0000
  H   H39       1.0  0.23070  0.89740  0.08330  1.0000
  H   H40       1.0  0.33330  0.10260  0.41670  1.0000
  H   H41       1.0  0.76930  0.66670  0.41670  1.0000
  H   H42       1.0  0.89740  0.23070  0.41670  1.0000
  H   H43       1.0  0.99997  0.43593  0.75003  1.0000
  H   H44       1.0  0.43597  0.00003  0.75003  1.0000
  H   H45       1.0  0.56407  0.56403  0.75003  1.0000
  H   H46       1.0  0.89740  0.66670  0.91670  1.0000
  H   H47       1.0  0.33330  0.23070  0.91670  1.0000
  H   H48       1.0  0.76930  0.10260  0.91670  1.0000
  H   H49       1.0  0.66670  0.89740  0.58330  1.0000
  H   H50       1.0  0.23070  0.33330  0.58330  1.0000
  H   H51       1.0  0.10260  0.76930  0.58330  1.0000
  H   H52       1.0  0.00003  0.56407  0.24997  1.0000
  H   H53       1.0  0.56403  0.99997  0.24997  1.0000
  H   H54       1.0  0.43593  0.43597  0.24997  1.0000
