data_image0
_chemical_formula_structural       Cu4N4O24C2H4C4H4C4H4C4H4C4H4C4H4C2
_chemical_formula_sum              "Cu4 N4 O24 C24 H24"
_cell_length_a       6.3535
_cell_length_b       16.253
_cell_length_c       11.271
_cell_angle_alpha    90
_cell_angle_beta     93.824
_cell_angle_gamma    90

_space_group_name_H-M_alt    "P 1"
_space_group_IT_number       1

loop_
  _space_group_symop_operation_xyz
  'x, y, z'

loop_
  _atom_site_type_symbol
  _atom_site_label
  _atom_site_symmetry_multiplicity
  _atom_site_fract_x
  _atom_site_fract_y
  _atom_site_fract_z
  _atom_site_occupancy
  Cu  Cu1       1.0  0.00932  0.34104  0.75431  1.0000
  Cu  Cu2       1.0  0.99068  0.84104  0.24569  1.0000
  Cu  Cu3       1.0  0.51090  0.21165  0.76207  1.0000
  Cu  Cu4       1.0  0.48910  0.71165  0.23793  1.0000
  N   N1        1.0  0.89900  0.45760  0.73600  1.0000
  N   N2        1.0  0.10100  0.95760  0.26400  1.0000
  N   N3        1.0  0.40360  0.09460  0.75760  1.0000
  N   N4        1.0  0.59640  0.59460  0.24240  1.0000
  O   O1        1.0  0.05100  0.48030  0.04070  1.0000
  O   O2        1.0  0.94900  0.98030  0.95930  1.0000
  O   O3        1.0  0.05150  0.37270  0.92310  1.0000
  O   O4        1.0  0.94850  0.87270  0.07690  1.0000
  O   O5        1.0  0.92100  0.42200  0.42670  1.0000
  O   O6        1.0  0.07900  0.92200  0.57330  1.0000
  O   O7        1.0  0.96700  0.33860  0.58080  1.0000
  O   O8        1.0  0.03300  0.83860  0.41920  1.0000
  O   O9        1.0  0.35880  0.39060  0.71410  1.0000
  O   O10       1.0  0.64120  0.89060  0.28590  1.0000
  O   O11       1.0  0.64490  0.31830  0.76890  1.0000
  O   O12       1.0  0.35510  0.81830  0.23110  1.0000
  O   O13       1.0  0.86190  0.15960  0.76750  1.0000
  O   O14       1.0  0.13810  0.65960  0.23250  1.0000
  O   O15       1.0  0.15000  0.23640  0.76890  1.0000
  O   O16       1.0  0.85000  0.73640  0.23110  1.0000
  O   O17       1.0  0.54880  0.10180  0.45650  1.0000
  O   O18       1.0  0.45120  0.60180  0.54350  1.0000
  O   O19       1.0  0.50860  0.19810  0.58800  1.0000
  O   O20       1.0  0.49140  0.69810  0.41200  1.0000
  O   O21       1.0  0.51360  0.09580  0.06900  1.0000
  O   O22       1.0  0.48640  0.59580  0.93100  1.0000
  O   O23       1.0  0.52510  0.19360  0.93560  1.0000
  O   O24       1.0  0.47490  0.69360  0.06440  1.0000
  C   C1        1.0  0.01300  0.50290  0.83340  1.0000
  C   C2        1.0  0.98700  0.00290  0.16660  1.0000
  H   H1        1.0  0.93580  0.55250  0.85070  1.0000
  H   H2        1.0  0.06420  0.05250  0.14930  1.0000
  H   H3        1.0  0.15100  0.51890  0.80950  1.0000
  H   H4        1.0  0.84900  0.01890  0.19050  1.0000
  C   C3        1.0  0.03740  0.45070  0.94200  1.0000
  C   C4        1.0  0.96260  0.95070  0.05800  1.0000
  C   C5        1.0  0.95450  0.48050  0.61760  1.0000
  C   C6        1.0  0.04550  0.98050  0.38240  1.0000
  H   H5        1.0  0.09710  0.50210  0.62180  1.0000
  H   H6        1.0  0.90290  0.00210  0.37820  1.0000
  H   H7        1.0  0.86020  0.52350  0.58690  1.0000
  H   H8        1.0  0.13980  0.02350  0.41310  1.0000
  C   C7        1.0  0.94020  0.40780  0.53380  1.0000
  C   C8        1.0  0.05980  0.90780  0.46620  1.0000
  C   C9        1.0  0.67150  0.46280  0.74470  1.0000
  C   C10       1.0  0.32850  0.96280  0.25530  1.0000
  H   H9        1.0  0.61500  0.49830  0.68110  1.0000
  H   H10       1.0  0.38500  0.99830  0.31890  1.0000
  H   H11       1.0  0.64670  0.49010  0.81910  1.0000
  H   H12       1.0  0.35330  0.99010  0.18090  1.0000
  C   C11       1.0  0.54570  0.38450  0.73940  1.0000
  C   C12       1.0  0.45430  0.88450  0.26060  1.0000
  C   C13       1.0  0.17640  0.09120  0.74580  1.0000
  C   C14       1.0  0.82360  0.59120  0.25420  1.0000
  H   H13       1.0  0.13180  0.05080  0.80230  1.0000
  H   H14       1.0  0.86820  0.55080  0.19770  1.0000
  H   H15       1.0  0.13590  0.07030  0.66700  1.0000
  H   H16       1.0  0.86410  0.57030  0.33300  1.0000
  C   C15       1.0  0.05250  0.16800  0.76290  1.0000
  C   C16       1.0  0.94750  0.66800  0.23710  1.0000
  C   C17       1.0  0.49330  0.05930  0.64990  1.0000
  C   C18       1.0  0.50670  0.55930  0.35010  1.0000
  H   H17       1.0  0.40210  0.01560  0.61830  1.0000
  H   H18       1.0  0.59790  0.51560  0.38170  1.0000
  H   H19       1.0  0.63050  0.03560  0.67200  1.0000
  H   H20       1.0  0.36950  0.53560  0.32800  1.0000
  C   C19       1.0  0.51580  0.12330  0.55550  1.0000
  C   C20       1.0  0.48420  0.62330  0.44450  1.0000
  C   C21       1.0  0.49060  0.05700  0.86770  1.0000
  C   C22       1.0  0.50940  0.55700  0.13230  1.0000
  H   H21       1.0  0.62850  0.03420  0.85550  1.0000
  H   H22       1.0  0.37150  0.53420  0.14450  1.0000
  H   H23       1.0  0.39960  0.01250  0.89000  1.0000
  H   H24       1.0  0.60040  0.51250  0.11000  1.0000
  C   C23       1.0  0.50910  0.11830  0.96360  1.0000
  C   C24       1.0  0.49090  0.61830  0.03640  1.0000
