data_image0
_chemical_formula_structural       Cu8N8O48C4H8C8H8C8H8C8H8C8H8C8H8C4
_chemical_formula_sum              "Cu8 N8 O48 C48 H48"
_cell_length_a       12.646
_cell_length_b       11.234
_cell_length_c       16.298
_cell_angle_alpha    90
_cell_angle_beta     90
_cell_angle_gamma    90

_space_group_name_H-M_alt    "P 1"
_space_group_IT_number       1

loop_
  _space_group_symop_operation_xyz
  'x, y, z'

loop_
  _atom_site_type_symbol
  _atom_site_label
  _atom_site_symmetry_multiplicity
  _atom_site_fract_x
  _atom_site_fract_y
  _atom_site_fract_z
  _atom_site_occupancy
  Cu  Cu1       1.0  0.76141  0.26151  0.29099  1.0000
  Cu  Cu2       1.0  0.23859  0.73849  0.79099  1.0000
  Cu  Cu3       1.0  0.26141  0.23849  0.29099  1.0000
  Cu  Cu4       1.0  0.73859  0.76151  0.79099  1.0000
  Cu  Cu5       1.0  0.01451  0.26859  0.42207  1.0000
  Cu  Cu6       1.0  0.98549  0.73141  0.92207  1.0000
  Cu  Cu7       1.0  0.51451  0.23141  0.42207  1.0000
  Cu  Cu8       1.0  0.48549  0.76859  0.92207  1.0000
  N   N1        1.0  0.70380  0.27100  0.17511  1.0000
  N   N2        1.0  0.29620  0.72900  0.67511  1.0000
  N   N3        1.0  0.20380  0.22900  0.17511  1.0000
  N   N4        1.0  0.79620  0.77100  0.67511  1.0000
  N   N5        1.0  0.96020  0.26820  0.53803  1.0000
  N   N6        1.0  0.03980  0.73180  0.03803  1.0000
  N   N7        1.0  0.46020  0.23180  0.53803  1.0000
  N   N8        1.0  0.53980  0.76820  0.03803  1.0000
  O   O1        1.0  0.78490  0.97280  0.15443  1.0000
  O   O2        1.0  0.21510  0.02720  0.65443  1.0000
  O   O3        1.0  0.28490  0.52720  0.15443  1.0000
  O   O4        1.0  0.71510  0.47280  0.65443  1.0000
  O   O5        1.0  0.78430  0.09250  0.26098  1.0000
  O   O6        1.0  0.21570  0.90750  0.76098  1.0000
  O   O7        1.0  0.28430  0.40750  0.26098  1.0000
  O   O8        1.0  0.71570  0.59250  0.76098  1.0000
  O   O9        1.0  0.71450  0.58320  0.20315  1.0000
  O   O10       1.0  0.28550  0.41680  0.70315  1.0000
  O   O11       1.0  0.21450  0.91680  0.20315  1.0000
  O   O12       1.0  0.78550  0.08320  0.70315  1.0000
  O   O13       1.0  0.73980  0.43548  0.28874  1.0000
  O   O14       1.0  0.26020  0.56452  0.78874  1.0000
  O   O15       1.0  0.23980  0.06452  0.28874  1.0000
  O   O16       1.0  0.76020  0.93548  0.78874  1.0000
  O   O17       1.0  0.43820  0.20370  0.24194  1.0000
  O   O18       1.0  0.56180  0.79630  0.74194  1.0000
  O   O19       1.0  0.93820  0.29630  0.24194  1.0000
  O   O20       1.0  0.06180  0.70370  0.74194  1.0000
  O   O21       1.0  0.58190  0.23140  0.31532  1.0000
  O   O22       1.0  0.41810  0.76860  0.81532  1.0000
  O   O23       1.0  0.08190  0.26860  0.31532  1.0000
  O   O24       1.0  0.91810  0.73140  0.81532  1.0000
  O   O25       1.0  0.69050  0.22650  0.47380  1.0000
  O   O26       1.0  0.30950  0.77350  0.97380  1.0000
  O   O27       1.0  0.19050  0.27350  0.47380  1.0000
  O   O28       1.0  0.80950  0.72650  0.97380  1.0000
  O   O29       1.0  0.83210  0.25850  0.39638  1.0000
  O   O30       1.0  0.16790  0.74150  0.89638  1.0000
  O   O31       1.0  0.33210  0.24150  0.39638  1.0000
  O   O32       1.0  0.66790  0.75850  0.89638  1.0000
  O   O33       1.0  0.02770  0.57350  0.53882  1.0000
  O   O34       1.0  0.97230  0.42650  0.03882  1.0000
  O   O35       1.0  0.52770  0.92650  0.53882  1.0000
  O   O36       1.0  0.47230  0.07350  0.03882  1.0000
  O   O37       1.0  0.01653  0.44170  0.43937  1.0000
  O   O38       1.0  0.98347  0.55830  0.93937  1.0000
  O   O39       1.0  0.51653  0.05830  0.43937  1.0000
  O   O40       1.0  0.48347  0.94170  0.93937  1.0000
  O   O41       1.0  0.00850  0.95710  0.53066  1.0000
  O   O42       1.0  0.99150  0.04290  0.03066  1.0000
  O   O43       1.0  0.50850  0.54290  0.53066  1.0000
  O   O44       1.0  0.49150  0.45710  0.03066  1.0000
  O   O45       1.0  0.01590  0.09520  0.43547  1.0000
  O   O46       1.0  0.98410  0.90480  0.93547  1.0000
  O   O47       1.0  0.51590  0.40480  0.43547  1.0000
  O   O48       1.0  0.48410  0.59520  0.93547  1.0000
  C   C1        1.0  0.76120  0.17710  0.13020  1.0000
  C   C2        1.0  0.23880  0.82290  0.63020  1.0000
  C   C3        1.0  0.26120  0.32290  0.13020  1.0000
  C   C4        1.0  0.73880  0.67710  0.63020  1.0000
  H   H1        1.0  0.82930  0.20710  0.11230  1.0000
  H   H2        1.0  0.17070  0.79290  0.61230  1.0000
  H   H3        1.0  0.32930  0.29290  0.11230  1.0000
  H   H4        1.0  0.67070  0.70710  0.61230  1.0000
  H   H5        1.0  0.72120  0.15380  0.08200  1.0000
  H   H6        1.0  0.27880  0.84620  0.58200  1.0000
  H   H7        1.0  0.22120  0.34620  0.08200  1.0000
  H   H8        1.0  0.77880  0.65380  0.58200  1.0000
  C   C5        1.0  0.77670  0.07170  0.18510  1.0000
  C   C6        1.0  0.22330  0.92830  0.68510  1.0000
  C   C7        1.0  0.27670  0.42830  0.18510  1.0000
  C   C8        1.0  0.72330  0.57170  0.68510  1.0000
  C   C9        1.0  0.73090  0.39090  0.14730  1.0000
  C   C10       1.0  0.26910  0.60910  0.64730  1.0000
  C   C11       1.0  0.23090  0.10910  0.14730  1.0000
  C   C12       1.0  0.76910  0.89090  0.64730  1.0000
  H   H9        1.0  0.68180  0.41570  0.10490  1.0000
  H   H10       1.0  0.31820  0.58430  0.60490  1.0000
  H   H11       1.0  0.18180  0.08430  0.10490  1.0000
  H   H12       1.0  0.81820  0.91570  0.60490  1.0000
  H   H13       1.0  0.80150  0.39070  0.12400  1.0000
  H   H14       1.0  0.19850  0.60930  0.62400  1.0000
  H   H15       1.0  0.30150  0.10930  0.12400  1.0000
  H   H16       1.0  0.69850  0.89070  0.62400  1.0000
  C   C13       1.0  0.72640  0.47710  0.21820  1.0000
  C   C14       1.0  0.27360  0.52290  0.71820  1.0000
  C   C15       1.0  0.22640  0.02290  0.21820  1.0000
  C   C16       1.0  0.77360  0.97710  0.71820  1.0000
  C   C17       1.0  0.58920  0.25200  0.17030  1.0000
  C   C18       1.0  0.41080  0.74800  0.67030  1.0000
  C   C19       1.0  0.08920  0.24800  0.17030  1.0000
  C   C20       1.0  0.91080  0.75200  0.67030  1.0000
  H   H17       1.0  0.57640  0.18640  0.13290  1.0000
  H   H18       1.0  0.42360  0.81360  0.63290  1.0000
  H   H19       1.0  0.07640  0.31360  0.13290  1.0000
  H   H20       1.0  0.92360  0.68640  0.63290  1.0000
  H   H21       1.0  0.55770  0.32250  0.14600  1.0000
  H   H22       1.0  0.44230  0.67750  0.64600  1.0000
  H   H23       1.0  0.05770  0.17750  0.14600  1.0000
  H   H24       1.0  0.94230  0.82250  0.64600  1.0000
  C   C21       1.0  0.53170  0.22610  0.24910  1.0000
  C   C22       1.0  0.46830  0.77390  0.74910  1.0000
  C   C23       1.0  0.03170  0.27390  0.24910  1.0000
  C   C24       1.0  0.96830  0.72610  0.74910  1.0000
  C   C25       1.0  0.84420  0.27600  0.53960  1.0000
  C   C26       1.0  0.15580  0.72400  0.03960  1.0000
  C   C27       1.0  0.34420  0.22400  0.53960  1.0000
  C   C28       1.0  0.65580  0.77600  0.03960  1.0000
  H   H25       1.0  0.80950  0.29740  0.58770  1.0000
  H   H26       1.0  0.19050  0.70260  0.08770  1.0000
  H   H27       1.0  0.30950  0.20260  0.58770  1.0000
  H   H28       1.0  0.69050  0.79740  0.08770  1.0000
  H   H29       1.0  0.83070  0.35690  0.52380  1.0000
  H   H30       1.0  0.16930  0.64310  0.02380  1.0000
  H   H31       1.0  0.33070  0.14310  0.52380  1.0000
  H   H32       1.0  0.66930  0.85690  0.02380  1.0000
  C   C29       1.0  0.78290  0.24980  0.46440  1.0000
  C   C30       1.0  0.21710  0.75020  0.96440  1.0000
  C   C31       1.0  0.28290  0.25020  0.46440  1.0000
  C   C32       1.0  0.71710  0.74980  0.96440  1.0000
  C   C33       1.0  0.00930  0.37360  0.57620  1.0000
  C   C34       1.0  0.99070  0.62640  0.07620  1.0000
  C   C35       1.0  0.50930  0.12640  0.57620  1.0000
  C   C36       1.0  0.49070  0.87360  0.07620  1.0000
  H   H33       1.0  0.07930  0.35320  0.59610  1.0000
  H   H34       1.0  0.92070  0.64680  0.09610  1.0000
  H   H35       1.0  0.57930  0.14680  0.59610  1.0000
  H   H36       1.0  0.42070  0.85320  0.09610  1.0000
  H   H37       1.0  0.96710  0.39920  0.62270  1.0000
  H   H38       1.0  0.03290  0.60080  0.12270  1.0000
  H   H39       1.0  0.46710  0.10080  0.62270  1.0000
  H   H40       1.0  0.53290  0.89920  0.12270  1.0000
  C   C37       1.0  0.01730  0.47250  0.51520  1.0000
  C   C38       1.0  0.98270  0.52750  0.01520  1.0000
  C   C39       1.0  0.51730  0.02750  0.51520  1.0000
  C   C40       1.0  0.48270  0.97250  0.01520  1.0000
  C   C41       1.0  0.99610  0.15490  0.57310  1.0000
  C   C42       1.0  0.00390  0.84510  0.07310  1.0000
  C   C43       1.0  0.49610  0.34510  0.57310  1.0000
  C   C44       1.0  0.50390  0.65490  0.07310  1.0000
  H   H41       1.0  0.94620  0.12920  0.61460  1.0000
  H   H42       1.0  0.05380  0.87080  0.11460  1.0000
  H   H43       1.0  0.44620  0.37080  0.61460  1.0000
  H   H44       1.0  0.55380  0.62920  0.11460  1.0000
  H   H45       1.0  0.06410  0.16660  0.59950  1.0000
  H   H46       1.0  0.93590  0.83340  0.09950  1.0000
  H   H47       1.0  0.56410  0.33340  0.59950  1.0000
  H   H48       1.0  0.43590  0.66660  0.09950  1.0000
  C   C45       1.0  0.00620  0.06010  0.50930  1.0000
  C   C46       1.0  0.99380  0.93990  0.00930  1.0000
  C   C47       1.0  0.50620  0.43990  0.50930  1.0000
  C   C48       1.0  0.49380  0.56010  0.00930  1.0000
