data_image0
_chemical_formula_structural       W22Al2W2O14Cu6O66N12C4H2C4H2C2H2C2H2C8H2C4H2C2H2C2H2C2H2C2H2C2H2C2H2C2H2C2H2C2H2C2H2C2H2C2H2C2H2C2H2C2H2C2H2C2H2C2H2
_chemical_formula_sum              "W24 Al2 O80 Cu6 N12 C60 H48"
_cell_length_a       12.6484
_cell_length_b       13.7085
_cell_length_c       18.5245
_cell_angle_alpha    89.671
_cell_angle_beta     85.908
_cell_angle_gamma    75.421

_space_group_name_H-M_alt    "P 1"
_space_group_IT_number       1

loop_
  _space_group_symop_operation_xyz
  'x, y, z'

loop_
  _atom_site_type_symbol
  _atom_site_label
  _atom_site_symmetry_multiplicity
  _atom_site_fract_x
  _atom_site_fract_y
  _atom_site_fract_z
  _atom_site_occupancy
  W   W1        1.0  0.49776  0.35876  0.67795  1.0000
  W   W2        1.0  0.50224  0.64124  0.32205  1.0000
  W   W3        1.0  0.11346  0.33007  0.72806  1.0000
  W   W4        1.0  0.88654  0.66993  0.27194  1.0000
  W   W5        1.0  0.28401  0.41273  0.58041  1.0000
  W   W6        1.0  0.71599  0.58727  0.41959  1.0000
  W   W7        1.0  0.24911  0.61278  0.93226  1.0000
  W   W8        1.0  0.75089  0.38722  0.06774  1.0000
  W   W9        1.0  0.40922  0.58973  0.61353  1.0000
  W   W10       1.0  0.59078  0.41027  0.38647  1.0000
  W   W11       1.0  0.02531  0.58734  0.65610  1.0000
  W   W12       1.0  0.97469  0.41266  0.34390  1.0000
  W   W13       1.0  0.10474  0.41648  0.89650  1.0000
  W   W14       1.0  0.89526  0.58352  0.10350  1.0000
  W   W15       1.0  0.33249  0.26528  0.82255  1.0000
  W   W16       1.0  0.66751  0.73472  0.17745  1.0000
  W   W17       1.0  0.40021  0.68736  0.80108  1.0000
  W   W18       1.0  0.59979  0.31264  0.19892  1.0000
  W   W19       1.0  0.15336  0.75852  0.69596  1.0000
  W   W20       1.0  0.84664  0.24148  0.30404  1.0000
  W   W21       1.0  0.47855  0.45799  0.86566  1.0000
  W   W22       1.0  0.52145  0.54201  0.13434  1.0000
  Al  Al1       1.0  0.25468  0.51211  0.75750  1.0000
  Al  Al2       1.0  0.74532  0.48789  0.24250  1.0000
  W   W23       1.0  0.00592  0.67379  0.82541  1.0000
  W   W24       1.0  0.99408  0.32621  0.17459  1.0000
  O   O1        1.0  0.21320  0.33790  0.64720  1.0000
  O   O2        1.0  0.78680  0.66210  0.35280  1.0000
  O   O3        1.0  0.12470  0.67690  0.88330  1.0000
  O   O4        1.0  0.87530  0.32310  0.11670  1.0000
  O   O5        1.0  0.44060  0.63380  0.70600  1.0000
  O   O6        1.0  0.55940  0.36620  0.29400  1.0000
  O   O7        1.0  0.33790  0.47750  0.67850  1.0000
  O   O8        1.0  0.66210  0.52250  0.32150  1.0000
  O   O9        1.0  0.22190  0.29560  0.90180  1.0000
  O   O10       1.0  0.77810  0.70440  0.09820  1.0000
  O   O11       1.0  0.21310  0.40690  0.79100  1.0000
  O   O12       1.0  0.78690  0.59310  0.20900  1.0000
  O   O13       1.0  0.26980  0.68250  0.63020  1.0000
  O   O14       1.0  0.73020  0.31750  0.36980  1.0000
  Cu  Cu1       1.0  0.00395  0.11018  0.64738  1.0000
  Cu  Cu2       1.0  0.99605  0.88982  0.35262  1.0000
  Cu  Cu3       1.0  0.24929  0.03765  0.75470  1.0000
  Cu  Cu4       1.0  0.75071  0.96235  0.24530  1.0000
  Cu  Cu5       1.0  0.50516  0.03554  0.13911  1.0000
  Cu  Cu6       1.0  0.49484  0.96446  0.86089  1.0000
  O   O15       1.0  0.35070  0.51720  0.54420  1.0000
  O   O16       1.0  0.64930  0.48280  0.45580  1.0000
  O   O17       1.0  0.13980  0.60720  0.73820  1.0000
  O   O18       1.0  0.86020  0.39280  0.26180  1.0000
  O   O19       1.0  0.42190  0.32690  0.59610  1.0000
  O   O20       1.0  0.57810  0.67310  0.40390  1.0000
  O   O21       1.0  0.01990  0.54060  0.85790  1.0000
  O   O22       1.0  0.98010  0.45940  0.14210  1.0000
  O   O23       1.0  0.04310  0.34620  0.82430  1.0000
  O   O24       1.0  0.95690  0.65380  0.17570  1.0000
  O   O25       1.0  0.02420  0.39650  0.96930  1.0000
  O   O26       1.0  0.97580  0.60350  0.03070  1.0000
  O   O27       1.0  0.14880  0.51820  0.59790  1.0000
  O   O28       1.0  0.85120  0.48180  0.40210  1.0000
  O   O29       1.0  0.52070  0.41730  0.76440  1.0000
  O   O30       1.0  0.47930  0.58270  0.23560  1.0000
  O   O31       1.0  0.39080  0.52170  0.94800  1.0000
  O   O32       1.0  0.60920  0.47830  0.05200  1.0000
  O   O33       1.0  0.41770  0.28100  0.73690  1.0000
  O   O34       1.0  0.58230  0.71900  0.26310  1.0000
  O   O35       1.0  0.04020  0.78730  0.77200  1.0000
  O   O36       1.0  0.95980  0.21270  0.22800  1.0000
  O   O37       1.0  0.26250  0.36500  0.49910  1.0000
  O   O38       1.0  0.73750  0.63500  0.50090  1.0000
  O   O39       1.0  0.52950  0.46950  0.62260  1.0000
  O   O40       1.0  0.47050  0.53050  0.37740  1.0000
  O   O41       1.0  0.59700  0.40050  0.90280  1.0000
  O   O42       1.0  0.40300  0.59950  0.09720  1.0000
  O   O43       1.0  0.51380  0.58510  0.84060  1.0000
  O   O44       1.0  0.48620  0.41490  0.15940  1.0000
  O   O45       1.0  0.62110  0.27270  0.65900  1.0000
  O   O46       1.0  0.37890  0.72730  0.34100  1.0000
  O   O47       1.0  0.26330  0.75200  0.76100  1.0000
  O   O48       1.0  0.73670  0.24800  0.23900  1.0000
  O   O49       1.0  0.40680  0.35090  0.86740  1.0000
  O   O50       1.0  0.59320  0.64910  0.13260  1.0000
  O   O51       1.0  0.40440  0.14810  0.84810  1.0000
  O   O52       1.0  0.59560  0.85190  0.15190  1.0000
  O   O53       1.0  0.03240  0.45810  0.70320  1.0000
  O   O54       1.0  0.96760  0.54190  0.29680  1.0000
  O   O55       1.0  0.32660  0.55510  0.82100  1.0000
  O   O56       1.0  0.67340  0.44490  0.17900  1.0000
  O   O57       1.0  0.19080  0.49510  0.93390  1.0000
  O   O58       1.0  0.80920  0.50490  0.06610  1.0000
  O   O59       1.0  0.91910  0.59090  0.60250  1.0000
  O   O60       1.0  0.08090  0.40910  0.39750  1.0000
  O   O61       1.0  0.04010  0.25460  0.69260  1.0000
  O   O62       1.0  0.95990  0.74540  0.30740  1.0000
  O   O63       1.0  0.93210  0.64680  0.74290  1.0000
  O   O64       1.0  0.06790  0.35320  0.25710  1.0000
  O   O65       1.0  0.05160  0.71590  0.63550  1.0000
  O   O66       1.0  0.94840  0.28410  0.36450  1.0000
  O   O67       1.0  0.22900  0.22300  0.76630  1.0000
  O   O68       1.0  0.77100  0.77700  0.23370  1.0000
  O   O69       1.0  0.47590  0.65680  0.55780  1.0000
  O   O70       1.0  0.52410  0.34320  0.44220  1.0000
  O   O71       1.0  0.32430  0.71030  0.89590  1.0000
  O   O72       1.0  0.67570  0.28970  0.10410  1.0000
  O   O73       1.0  0.89300  0.74050  0.87710  1.0000
  O   O74       1.0  0.10700  0.25950  0.12290  1.0000
  O   O75       1.0  0.13750  0.87820  0.66370  1.0000
  O   O76       1.0  0.86250  0.12180  0.33630  1.0000
  O   O77       1.0  0.21020  0.66320  0.01700  1.0000
  O   O78       1.0  0.78980  0.33680  0.98300  1.0000
  O   O79       1.0  0.46130  0.78600  0.80060  1.0000
  O   O80       1.0  0.53870  0.21400  0.19940  1.0000
  N   N1        1.0  0.33990  0.02290  0.66750  1.0000
  N   N2        1.0  0.66010  0.97710  0.33250  1.0000
  N   N3        1.0  0.16230  0.02820  0.84050  1.0000
  N   N4        1.0  0.83770  0.97180  0.15950  1.0000
  N   N5        1.0  0.40570  0.04660  0.22250  1.0000
  N   N6        1.0  0.59430  0.95340  0.77750  1.0000
  N   N7        1.0  0.90710  0.09620  0.72790  1.0000
  N   N8        1.0  0.09290  0.90380  0.27210  1.0000
  N   N9        1.0  0.58830  0.04630  0.05040  1.0000
  N   N10       1.0  0.41170  0.95370  0.94960  1.0000
  N   N11       1.0  0.08830  0.09820  0.55710  1.0000
  N   N12       1.0  0.91170  0.90180  0.44290  1.0000
  C   C1        1.0  0.03410  0.00640  0.96670  1.0000
  C   C2        1.0  0.96590  0.99360  0.03330  1.0000
  C   C3        1.0  0.41560  0.09650  0.56500  1.0000
  C   C4        1.0  0.58440  0.90350  0.43500  1.0000
  H   H1        1.0  0.42215  0.15507  0.54157  1.0000
  H   H2        1.0  0.57785  0.84493  0.45843  1.0000
  C   C5        1.0  0.70870  0.06710  0.92060  1.0000
  C   C6        1.0  0.29130  0.93290  0.07940  1.0000
  C   C7        1.0  0.26490  0.14710  0.30310  1.0000
  C   C8        1.0  0.73510  0.85290  0.69690  1.0000
  H   H3        1.0  0.21632  0.20931  0.31375  1.0000
  H   H4        1.0  0.78368  0.79069  0.68625  1.0000
  C   C9        1.0  0.34310  0.97780  0.33060  1.0000
  C   C10       1.0  0.65690  0.02220  0.66940  1.0000
  H   H5        1.0  0.34884  0.92224  0.36041  1.0000
  H   H6        1.0  0.65116  0.07776  0.63959  1.0000
  C   C11       1.0  0.40780  0.96860  0.26740  1.0000
  C   C12       1.0  0.59220  0.03140  0.73260  1.0000
  H   H7        1.0  0.45491  0.90621  0.25490  1.0000
  H   H8        1.0  0.54509  0.09379  0.74510  1.0000
  C   C13       1.0  0.20460  0.07930  0.42240  1.0000
  C   C14       1.0  0.79540  0.92070  0.57760  1.0000
  C   C15       1.0  0.46620  0.00400  0.53440  1.0000
  C   C16       1.0  0.53380  0.99600  0.46560  1.0000
  C   C17       1.0  0.27020  0.06680  0.35100  1.0000
  C   C18       1.0  0.72980  0.93320  0.64900  1.0000
  C   C19       1.0  0.35510  0.10260  0.63060  1.0000
  C   C20       1.0  0.64490  0.89740  0.36940  1.0000
  H   H9        1.0  0.32301  0.16625  0.65035  1.0000
  H   H10       1.0  0.67699  0.83375  0.34965  1.0000
  C   C21       1.0  0.77510  0.07660  0.85430  1.0000
  C   C22       1.0  0.22490  0.92340  0.14570  1.0000
  C   C23       1.0  0.63830  0.14780  0.95500  1.0000
  C   C24       1.0  0.36170  0.85220  0.04500  1.0000
  H   H11       1.0  0.62993  0.21176  0.93556  1.0000
  H   H12       1.0  0.37007  0.78824  0.06444  1.0000
  C   C25       1.0  0.11310  0.17740  0.52420  1.0000
  C   C26       1.0  0.88690  0.82260  0.47580  1.0000
  H   H13       1.0  0.09023  0.24001  0.54733  1.0000
  H   H14       1.0  0.90977  0.75999  0.45267  1.0000
  C   C27       1.0  0.09380  0.10950  0.87540  1.0000
  C   C28       1.0  0.90620  0.89050  0.12460  1.0000
  H   H15       1.0  0.08963  0.17346  0.85683  1.0000
  H   H16       1.0  0.91037  0.82654  0.14317  1.0000
  C   C29       1.0  0.65590  0.96640  0.01710  1.0000
  C   C30       1.0  0.34410  0.03360  0.98290  1.0000
  H   H17       1.0  0.66246  0.90336  0.03785  1.0000
  H   H18       1.0  0.33754  0.09664  0.96215  1.0000
  C   C31       1.0  0.33210  0.13350  0.23990  1.0000
  C   C32       1.0  0.66790  0.86650  0.76010  1.0000
  H   H19       1.0  0.32607  0.18706  0.20802  1.0000
  H   H20       1.0  0.67393  0.81294  0.79198  1.0000
  C   C33       1.0  0.85290  0.99630  0.82210  1.0000
  C   C34       1.0  0.14710  0.00370  0.17790  1.0000
  H   H21       1.0  0.86340  0.93280  0.84257  1.0000
  H   H22       1.0  0.13660  0.06720  0.15743  1.0000
  C   C35       1.0  0.17040  0.17100  0.45810  1.0000
  C   C36       1.0  0.82960  0.82900  0.54190  1.0000
  H   H23       1.0  0.18624  0.22812  0.43745  1.0000
  H   H24       1.0  0.81376  0.77188  0.56255  1.0000
  C   C37       1.0  0.91440  0.00880  0.76110  1.0000
  C   C38       1.0  0.08560  0.99120  0.23890  1.0000
  H   H25       1.0  0.96500  0.95223  0.74133  1.0000
  H   H26       1.0  0.03500  0.04777  0.25867  1.0000
  C   C39       1.0  0.17870  0.99850  0.45510  1.0000
  C   C40       1.0  0.82130  0.00150  0.54490  1.0000
  H   H27       1.0  0.19989  0.93557  0.43246  1.0000
  H   H28       1.0  0.80011  0.06443  0.56754  1.0000
  C   C41       1.0  0.16450  0.93830  0.86930  1.0000
  C   C42       1.0  0.83550  0.06170  0.13070  1.0000
  H   H29       1.0  0.21012  0.88174  0.84594  1.0000
  H   H30       1.0  0.78988  0.11826  0.15406  1.0000
  C   C43       1.0  0.45450  0.92180  0.57330  1.0000
  C   C44       1.0  0.54550  0.07820  0.42670  1.0000
  H   H31       1.0  0.48999  0.85762  0.55587  1.0000
  H   H32       1.0  0.51001  0.14238  0.44413  1.0000
  C   C45       1.0  0.39140  0.93220  0.63750  1.0000
  C   C46       1.0  0.60860  0.06780  0.36250  1.0000
  H   H33       1.0  0.38377  0.87428  0.66140  1.0000
  H   H34       1.0  0.61623  0.12572  0.33860  1.0000
  C   C47       1.0  0.76310  0.16830  0.81780  1.0000
  C   C48       1.0  0.23690  0.83170  0.18220  1.0000
  H   H35       1.0  0.70962  0.22479  0.83486  1.0000
  H   H36       1.0  0.29038  0.77521  0.16514  1.0000
  C   C49       1.0  0.02980  0.09990  0.93790  1.0000
  C   C50       1.0  0.97020  0.90010  0.06210  1.0000
  H   H37       1.0  0.98385  0.15703  0.96035  1.0000
  H   H38       1.0  0.01615  0.84297  0.03965  1.0000
  C   C51       1.0  0.83020  0.17530  0.75660  1.0000
  C   C52       1.0  0.16980  0.82470  0.24340  1.0000
  H   H39       1.0  0.82167  0.23755  0.73437  1.0000
  H   H40       1.0  0.17833  0.76245  0.26563  1.0000
  C   C53       1.0  0.71660  0.97290  0.95350  1.0000
  C   C54       1.0  0.28340  0.02710  0.04650  1.0000
  H   H41       1.0  0.76283  0.91504  0.93216  1.0000
  H   H42       1.0  0.23717  0.08496  0.06784  1.0000
  C   C55       1.0  0.57840  0.13520  0.01940  1.0000
  C   C56       1.0  0.42160  0.86480  0.98060  1.0000
  H   H43       1.0  0.52976  0.19138  0.04126  1.0000
  H   H44       1.0  0.47024  0.80862  0.95874  1.0000
  C   C57       1.0  0.10440  0.92390  0.93060  1.0000
  C   C58       1.0  0.89560  0.07610  0.06940  1.0000
  H   H45       1.0  0.11044  0.85923  0.94827  1.0000
  H   H46       1.0  0.88956  0.14077  0.05173  1.0000
  C   C59       1.0  0.12100  0.00980  0.52230  1.0000
  C   C60       1.0  0.87900  0.99020  0.47770  1.0000
  H   H47       1.0  0.10434  0.95348  0.54385  1.0000
  H   H48       1.0  0.89566  0.04652  0.45615  1.0000
