data_image0
_chemical_formula_structural       U16O128C32H16C8H16C24H16C8H16C8
_chemical_formula_sum              "U16 O128 C80 H64"
_cell_length_a       28.9556
_cell_length_b       22.8106
_cell_length_c       8.5853
_cell_angle_alpha    90
_cell_angle_beta     105.353
_cell_angle_gamma    90

_space_group_name_H-M_alt    "P 1"
_space_group_IT_number       1

loop_
  _space_group_symop_operation_xyz
  'x, y, z'

loop_
  _atom_site_type_symbol
  _atom_site_label
  _atom_site_symmetry_multiplicity
  _atom_site_fract_x
  _atom_site_fract_y
  _atom_site_fract_z
  _atom_site_occupancy
  U   U1        1.0  0.26550  0.60957  0.52110  1.0000
  U   U2        1.0  0.73450  0.60957  0.97890  1.0000
  U   U3        1.0  0.76550  0.10957  0.52110  1.0000
  U   U4        1.0  0.23450  0.10957  0.97890  1.0000
  U   U5        1.0  0.73450  0.39043  0.47890  1.0000
  U   U6        1.0  0.26550  0.39043  0.02110  1.0000
  U   U7        1.0  0.23450  0.89043  0.47890  1.0000
  U   U8        1.0  0.76550  0.89043  0.02110  1.0000
  U   U9        1.0  0.00000  0.41060  0.75000  1.0000
  U   U10       1.0  0.50000  0.91060  0.75000  1.0000
  U   U11       1.0  0.00000  0.58940  0.25000  1.0000
  U   U12       1.0  0.50000  0.08940  0.25000  1.0000
  U   U13       1.0  0.50000  0.37232  0.25000  1.0000
  U   U14       1.0  0.00000  0.87232  0.25000  1.0000
  U   U15       1.0  0.50000  0.62768  0.75000  1.0000
  U   U16       1.0  0.00000  0.12768  0.75000  1.0000
  O   O1        1.0  0.23055  0.60889  0.31820  1.0000
  O   O2        1.0  0.76945  0.60889  0.18180  1.0000
  O   O3        1.0  0.73055  0.10889  0.31820  1.0000
  O   O4        1.0  0.26945  0.10889  0.18180  1.0000
  O   O5        1.0  0.76945  0.39111  0.68180  1.0000
  O   O6        1.0  0.23055  0.39111  0.81820  1.0000
  O   O7        1.0  0.26945  0.89111  0.68180  1.0000
  O   O8        1.0  0.73055  0.89111  0.81820  1.0000
  O   O9        1.0  0.29898  0.61315  0.72520  1.0000
  O   O10       1.0  0.70102  0.61315  0.77480  1.0000
  O   O11       1.0  0.79898  0.11315  0.72520  1.0000
  O   O12       1.0  0.20102  0.11315  0.77480  1.0000
  O   O13       1.0  0.70102  0.38685  0.27480  1.0000
  O   O14       1.0  0.29898  0.38685  0.22520  1.0000
  O   O15       1.0  0.20102  0.88685  0.27480  1.0000
  O   O16       1.0  0.79898  0.88685  0.22520  1.0000
  O   O17       1.0  0.97459  0.40873  0.53900  1.0000
  O   O18       1.0  0.02541  0.40873  0.96100  1.0000
  O   O19       1.0  0.47459  0.90873  0.53900  1.0000
  O   O20       1.0  0.52541  0.90873  0.96100  1.0000
  O   O21       1.0  0.02541  0.59127  0.46100  1.0000
  O   O22       1.0  0.97459  0.59127  0.03900  1.0000
  O   O23       1.0  0.52541  0.09127  0.46100  1.0000
  O   O24       1.0  0.47459  0.09127  0.03900  1.0000
  O   O25       1.0  0.53814  0.37178  0.44930  1.0000
  O   O26       1.0  0.46186  0.37178  0.05070  1.0000
  O   O27       1.0  0.03814  0.87178  0.44930  1.0000
  O   O28       1.0  0.96186  0.87178  0.05070  1.0000
  O   O29       1.0  0.46186  0.62822  0.55070  1.0000
  O   O30       1.0  0.53814  0.62822  0.94930  1.0000
  O   O31       1.0  0.96186  0.12822  0.55070  1.0000
  O   O32       1.0  0.03814  0.12822  0.94930  1.0000
  O   O33       1.0  0.21656  0.69574  0.56100  1.0000
  O   O34       1.0  0.78344  0.69574  0.93900  1.0000
  O   O35       1.0  0.71656  0.19574  0.56100  1.0000
  O   O36       1.0  0.28344  0.19574  0.93900  1.0000
  O   O37       1.0  0.78344  0.30426  0.43900  1.0000
  O   O38       1.0  0.21656  0.30426  0.06100  1.0000
  O   O39       1.0  0.28344  0.80426  0.43900  1.0000
  O   O40       1.0  0.71656  0.80426  0.06100  1.0000
  O   O41       1.0  0.20311  0.79259  0.52660  1.0000
  O   O42       1.0  0.79689  0.79259  0.97340  1.0000
  O   O43       1.0  0.70311  0.29259  0.52660  1.0000
  O   O44       1.0  0.29689  0.29259  0.97340  1.0000
  O   O45       1.0  0.79689  0.20741  0.47340  1.0000
  O   O46       1.0  0.20311  0.20741  0.02660  1.0000
  O   O47       1.0  0.29689  0.70741  0.47340  1.0000
  O   O48       1.0  0.70311  0.70741  0.02660  1.0000
  O   O49       1.0  0.04334  0.31904  0.72390  1.0000
  O   O50       1.0  0.95666  0.31904  0.77610  1.0000
  O   O51       1.0  0.54334  0.81904  0.72390  1.0000
  O   O52       1.0  0.45666  0.81904  0.77610  1.0000
  O   O53       1.0  0.95666  0.68096  0.27610  1.0000
  O   O54       1.0  0.04334  0.68096  0.22390  1.0000
  O   O55       1.0  0.45666  0.18096  0.27610  1.0000
  O   O56       1.0  0.54334  0.18096  0.22390  1.0000
  O   O57       1.0  0.04118  0.22117  0.71150  1.0000
  O   O58       1.0  0.95882  0.22117  0.78850  1.0000
  O   O59       1.0  0.54118  0.72117  0.71150  1.0000
  O   O60       1.0  0.45882  0.72117  0.78850  1.0000
  O   O61       1.0  0.95882  0.77883  0.28850  1.0000
  O   O62       1.0  0.04118  0.77883  0.21150  1.0000
  O   O63       1.0  0.45882  0.27883  0.28850  1.0000
  O   O64       1.0  0.54118  0.27883  0.21150  1.0000
  O   O65       1.0  0.19324  0.58579  0.62050  1.0000
  O   O66       1.0  0.80676  0.58579  0.87950  1.0000
  O   O67       1.0  0.69324  0.08579  0.62050  1.0000
  O   O68       1.0  0.30676  0.08579  0.87950  1.0000
  O   O69       1.0  0.80676  0.41421  0.37950  1.0000
  O   O70       1.0  0.19324  0.41421  0.12050  1.0000
  O   O71       1.0  0.30676  0.91421  0.37950  1.0000
  O   O72       1.0  0.69324  0.91421  0.12050  1.0000
  O   O73       1.0  0.22847  0.51140  0.54140  1.0000
  O   O74       1.0  0.77153  0.51140  0.95860  1.0000
  O   O75       1.0  0.72847  0.01140  0.54140  1.0000
  O   O76       1.0  0.27153  0.01140  0.95860  1.0000
  O   O77       1.0  0.77153  0.48860  0.45860  1.0000
  O   O78       1.0  0.22847  0.48860  0.04140  1.0000
  O   O79       1.0  0.27153  0.98860  0.45860  1.0000
  O   O80       1.0  0.72847  0.98860  0.04140  1.0000
  O   O81       1.0  0.04507  0.50192  0.75080  1.0000
  O   O82       1.0  0.95493  0.50192  0.74920  1.0000
  O   O83       1.0  0.54507  0.00192  0.75080  1.0000
  O   O84       1.0  0.45493  0.00192  0.74920  1.0000
  O   O85       1.0  0.95493  0.49808  0.24920  1.0000
  O   O86       1.0  0.04507  0.49808  0.25080  1.0000
  O   O87       1.0  0.45493  0.99808  0.24920  1.0000
  O   O88       1.0  0.54507  0.99808  0.25080  1.0000
  O   O89       1.0  0.08009  0.42442  0.68620  1.0000
  O   O90       1.0  0.91991  0.42442  0.81380  1.0000
  O   O91       1.0  0.58009  0.92442  0.68620  1.0000
  O   O92       1.0  0.41991  0.92442  0.81380  1.0000
  O   O93       1.0  0.91991  0.57558  0.31380  1.0000
  O   O94       1.0  0.08009  0.57558  0.18620  1.0000
  O   O95       1.0  0.41991  0.07558  0.31380  1.0000
  O   O96       1.0  0.58009  0.07558  0.18620  1.0000
  O   O97       1.0  0.33585  0.60960  0.41190  1.0000
  O   O98       1.0  0.66415  0.60960  0.08810  1.0000
  O   O99       1.0  0.83585  0.10960  0.41190  1.0000
  O   O100      1.0  0.16415  0.10960  0.08810  1.0000
  O   O101      1.0  0.66415  0.39040  0.58810  1.0000
  O   O102      1.0  0.33585  0.39040  0.91190  1.0000
  O   O103      1.0  0.16415  0.89040  0.58810  1.0000
  O   O104      1.0  0.83585  0.89040  0.91190  1.0000
  O   O105      1.0  0.31491  0.52541  0.49050  1.0000
  O   O106      1.0  0.68509  0.52541  0.00950  1.0000
  O   O107      1.0  0.81491  0.02541  0.49050  1.0000
  O   O108      1.0  0.18509  0.02541  0.00950  1.0000
  O   O109      1.0  0.68509  0.47459  0.50950  1.0000
  O   O110      1.0  0.31491  0.47459  0.99050  1.0000
  O   O111      1.0  0.18509  0.97459  0.50950  1.0000
  O   O112      1.0  0.81491  0.97459  0.99050  1.0000
  O   O113      1.0  0.45923  0.46199  0.30540  1.0000
  O   O114      1.0  0.54077  0.46199  0.19460  1.0000
  O   O115      1.0  0.95923  0.96199  0.30540  1.0000
  O   O116      1.0  0.04077  0.96199  0.19460  1.0000
  O   O117      1.0  0.54077  0.53801  0.69460  1.0000
  O   O118      1.0  0.45923  0.53801  0.80540  1.0000
  O   O119      1.0  0.04077  0.03801  0.69460  1.0000
  O   O120      1.0  0.95923  0.03801  0.80540  1.0000
  O   O121      1.0  0.43218  0.37920  0.36990  1.0000
  O   O122      1.0  0.56782  0.37920  0.13010  1.0000
  O   O123      1.0  0.93218  0.87920  0.36990  1.0000
  O   O124      1.0  0.06782  0.87920  0.13010  1.0000
  O   O125      1.0  0.56782  0.62080  0.63010  1.0000
  O   O126      1.0  0.43218  0.62080  0.86990  1.0000
  O   O127      1.0  0.06782  0.12080  0.63010  1.0000
  O   O128      1.0  0.93218  0.12080  0.86990  1.0000
  C   C1        1.0  0.22703  0.74638  0.52600  1.0000
  C   C2        1.0  0.77297  0.74638  0.97400  1.0000
  C   C3        1.0  0.72703  0.24638  0.52600  1.0000
  C   C4        1.0  0.27297  0.24638  0.97400  1.0000
  C   C5        1.0  0.77297  0.25362  0.47400  1.0000
  C   C6        1.0  0.22703  0.25362  0.02600  1.0000
  C   C7        1.0  0.27297  0.75362  0.47400  1.0000
  C   C8        1.0  0.72703  0.75362  0.02600  1.0000
  C   C9        1.0  0.02407  0.27001  0.73130  1.0000
  C   C10       1.0  0.97593  0.27001  0.76870  1.0000
  C   C11       1.0  0.52407  0.77001  0.73130  1.0000
  C   C12       1.0  0.47593  0.77001  0.76870  1.0000
  C   C13       1.0  0.97593  0.72999  0.26870  1.0000
  C   C14       1.0  0.02407  0.72999  0.23130  1.0000
  C   C15       1.0  0.47593  0.22999  0.26870  1.0000
  C   C16       1.0  0.52407  0.22999  0.23130  1.0000
  C   C17       1.0  0.19488  0.53105  0.59480  1.0000
  C   C18       1.0  0.80512  0.53105  0.90520  1.0000
  C   C19       1.0  0.69488  0.03105  0.59480  1.0000
  C   C20       1.0  0.30512  0.03105  0.90520  1.0000
  C   C21       1.0  0.80512  0.46895  0.40520  1.0000
  C   C22       1.0  0.19488  0.46895  0.09480  1.0000
  C   C23       1.0  0.30512  0.96895  0.40520  1.0000
  C   C24       1.0  0.69488  0.96895  0.09480  1.0000
  C   C25       1.0  0.15867  0.48974  0.63110  1.0000
  C   C26       1.0  0.84133  0.48974  0.86890  1.0000
  C   C27       1.0  0.65867  0.98974  0.63110  1.0000
  C   C28       1.0  0.34133  0.98974  0.86890  1.0000
  C   C29       1.0  0.84133  0.51026  0.36890  1.0000
  C   C30       1.0  0.15867  0.51026  0.13110  1.0000
  C   C31       1.0  0.34133  0.01026  0.36890  1.0000
  C   C32       1.0  0.65867  0.01026  0.13110  1.0000
  H   H1        1.0  0.17472  0.46528  0.72514  1.0000
  H   H2        1.0  0.82528  0.46528  0.77486  1.0000
  H   H3        1.0  0.67472  0.96528  0.72514  1.0000
  H   H4        1.0  0.32528  0.96528  0.77486  1.0000
  H   H5        1.0  0.82528  0.53472  0.27486  1.0000
  H   H6        1.0  0.17472  0.53472  0.22514  1.0000
  H   H7        1.0  0.32528  0.03472  0.27486  1.0000
  H   H8        1.0  0.67472  0.03472  0.22514  1.0000
  H   H9        1.0  0.14707  0.46323  0.53761  1.0000
  H   H10       1.0  0.85293  0.46323  0.96239  1.0000
  H   H11       1.0  0.64707  0.96323  0.53761  1.0000
  H   H12       1.0  0.35293  0.96323  0.96239  1.0000
  H   H13       1.0  0.85293  0.53677  0.46239  1.0000
  H   H14       1.0  0.14707  0.53677  0.03761  1.0000
  H   H15       1.0  0.35293  0.03677  0.46239  1.0000
  H   H16       1.0  0.64707  0.03677  0.03761  1.0000
  C   C33       1.0  0.11602  0.51957  0.66700  1.0000
  C   C34       1.0  0.88398  0.51957  0.83300  1.0000
  C   C35       1.0  0.61602  0.01957  0.66700  1.0000
  C   C36       1.0  0.38398  0.01957  0.83300  1.0000
  C   C37       1.0  0.88398  0.48043  0.33300  1.0000
  C   C38       1.0  0.11602  0.48043  0.16700  1.0000
  C   C39       1.0  0.38398  0.98043  0.33300  1.0000
  C   C40       1.0  0.61602  0.98043  0.16700  1.0000
  H   H17       1.0  0.12779  0.54590  0.76082  1.0000
  H   H18       1.0  0.87221  0.54590  0.73918  1.0000
  H   H19       1.0  0.62779  0.04590  0.76082  1.0000
  H   H20       1.0  0.37221  0.04590  0.73918  1.0000
  H   H21       1.0  0.87221  0.45410  0.23918  1.0000
  H   H22       1.0  0.12779  0.45410  0.26082  1.0000
  H   H23       1.0  0.37221  0.95410  0.23918  1.0000
  H   H24       1.0  0.62779  0.95410  0.26082  1.0000
  H   H25       1.0  0.10034  0.54436  0.57328  1.0000
  H   H26       1.0  0.89966  0.54436  0.92672  1.0000
  H   H27       1.0  0.60034  0.04436  0.57328  1.0000
  H   H28       1.0  0.39966  0.04436  0.92672  1.0000
  H   H29       1.0  0.89966  0.45564  0.42672  1.0000
  H   H30       1.0  0.10034  0.45564  0.07328  1.0000
  H   H31       1.0  0.39966  0.95564  0.42672  1.0000
  H   H32       1.0  0.60034  0.95564  0.07328  1.0000
  C   C41       1.0  0.07915  0.47959  0.70240  1.0000
  C   C42       1.0  0.92085  0.47959  0.79760  1.0000
  C   C43       1.0  0.57915  0.97959  0.70240  1.0000
  C   C44       1.0  0.42085  0.97959  0.79760  1.0000
  C   C45       1.0  0.92085  0.52041  0.29760  1.0000
  C   C46       1.0  0.07915  0.52041  0.20240  1.0000
  C   C47       1.0  0.42085  0.02041  0.29760  1.0000
  C   C48       1.0  0.57915  0.02041  0.20240  1.0000
  C   C49       1.0  0.34202  0.55446  0.42560  1.0000
  C   C50       1.0  0.65798  0.55446  0.07440  1.0000
  C   C51       1.0  0.84202  0.05446  0.42560  1.0000
  C   C52       1.0  0.15798  0.05446  0.07440  1.0000
  C   C53       1.0  0.65798  0.44554  0.57440  1.0000
  C   C54       1.0  0.34202  0.44554  0.92560  1.0000
  C   C55       1.0  0.15798  0.94554  0.57440  1.0000
  C   C56       1.0  0.84202  0.94554  0.92560  1.0000
  C   C57       1.0  0.37961  0.52552  0.36160  1.0000
  C   C58       1.0  0.62039  0.52552  0.13840  1.0000
  C   C59       1.0  0.87961  0.02552  0.36160  1.0000
  C   C60       1.0  0.12039  0.02552  0.13840  1.0000
  C   C61       1.0  0.62039  0.47448  0.63840  1.0000
  C   C62       1.0  0.37961  0.47448  0.86160  1.0000
  C   C63       1.0  0.12039  0.97448  0.63840  1.0000
  C   C64       1.0  0.87961  0.97448  0.86160  1.0000
  H   H33       1.0  0.40810  0.55130  0.38263  1.0000
  H   H34       1.0  0.59190  0.55130  0.11737  1.0000
  H   H35       1.0  0.90810  0.05130  0.38263  1.0000
  H   H36       1.0  0.09190  0.05130  0.11737  1.0000
  H   H37       1.0  0.59190  0.44870  0.61737  1.0000
  H   H38       1.0  0.40810  0.44870  0.88263  1.0000
  H   H39       1.0  0.09190  0.94870  0.61737  1.0000
  H   H40       1.0  0.90810  0.94870  0.88263  1.0000
  H   H41       1.0  0.36729  0.52108  0.24313  1.0000
  H   H42       1.0  0.63271  0.52108  0.25687  1.0000
  H   H43       1.0  0.86729  0.02108  0.24313  1.0000
  H   H44       1.0  0.13271  0.02108  0.25687  1.0000
  H   H45       1.0  0.63271  0.47892  0.75687  1.0000
  H   H46       1.0  0.36729  0.47892  0.74313  1.0000
  H   H47       1.0  0.13271  0.97892  0.75687  1.0000
  H   H48       1.0  0.86729  0.97892  0.74313  1.0000
  C   C65       1.0  0.39471  0.46574  0.43560  1.0000
  C   C66       1.0  0.60529  0.46574  0.06440  1.0000
  C   C67       1.0  0.89471  0.96574  0.43560  1.0000
  C   C68       1.0  0.10529  0.96574  0.06440  1.0000
  C   C69       1.0  0.60529  0.53426  0.56440  1.0000
  C   C70       1.0  0.39471  0.53426  0.93560  1.0000
  C   C71       1.0  0.10529  0.03426  0.56440  1.0000
  C   C72       1.0  0.89471  0.03426  0.93560  1.0000
  H   H49       1.0  0.40886  0.47066  0.55315  1.0000
  H   H50       1.0  0.59114  0.47066  0.94685  1.0000
  H   H51       1.0  0.90886  0.97066  0.55315  1.0000
  H   H52       1.0  0.09114  0.97066  0.94685  1.0000
  H   H53       1.0  0.59114  0.52934  0.44685  1.0000
  H   H54       1.0  0.40886  0.52934  0.05315  1.0000
  H   H55       1.0  0.09114  0.02934  0.44685  1.0000
  H   H56       1.0  0.90886  0.02934  0.05315  1.0000
  H   H57       1.0  0.36583  0.44091  0.42088  1.0000
  H   H58       1.0  0.63417  0.44091  0.07912  1.0000
  H   H59       1.0  0.86583  0.94091  0.42088  1.0000
  H   H60       1.0  0.13417  0.94091  0.07912  1.0000
  H   H61       1.0  0.63417  0.55909  0.57912  1.0000
  H   H62       1.0  0.36583  0.55909  0.92088  1.0000
  H   H63       1.0  0.13417  0.05909  0.57912  1.0000
  H   H64       1.0  0.86583  0.05909  0.92088  1.0000
  C   C73       1.0  0.43000  0.43454  0.36580  1.0000
  C   C74       1.0  0.57000  0.43454  0.13420  1.0000
  C   C75       1.0  0.93000  0.93454  0.36580  1.0000
  C   C76       1.0  0.07000  0.93454  0.13420  1.0000
  C   C77       1.0  0.57000  0.56546  0.63420  1.0000
  C   C78       1.0  0.43000  0.56546  0.86580  1.0000
  C   C79       1.0  0.07000  0.06546  0.63420  1.0000
  C   C80       1.0  0.93000  0.06546  0.86580  1.0000
