data_image0
_chemical_formula_structural       O8C32H8C8H8C16O24Zn24O32C8O8C8H8C16H8C8H8C16O8C8H8O8C24O16H8
_chemical_formula_sum              "O104 C144 H56 Zn24"
_cell_length_a       16.379
_cell_length_b       16.361
_cell_length_c       28.999
_cell_angle_alpha    90
_cell_angle_beta     90
_cell_angle_gamma    90

_space_group_name_H-M_alt    "P 1"
_space_group_IT_number       1

loop_
  _space_group_symop_operation_xyz
  'x, y, z'

loop_
  _atom_site_type_symbol
  _atom_site_label
  _atom_site_symmetry_multiplicity
  _atom_site_fract_x
  _atom_site_fract_y
  _atom_site_fract_z
  _atom_site_occupancy
  O   O1        1.0  0.41471  0.71506  0.72163  1.0000
  O   O2        1.0  0.08529  0.28494  0.22163  1.0000
  O   O3        1.0  0.91471  0.78494  0.27837  1.0000
  O   O4        1.0  0.58529  0.21506  0.77837  1.0000
  O   O5        1.0  0.58529  0.28494  0.27837  1.0000
  O   O6        1.0  0.91471  0.71506  0.77837  1.0000
  O   O7        1.0  0.08529  0.21506  0.72163  1.0000
  O   O8        1.0  0.41471  0.78494  0.22163  1.0000
  C   C1        1.0  0.44061  0.64204  0.72849  1.0000
  C   C2        1.0  0.05939  0.35796  0.22849  1.0000
  C   C3        1.0  0.94061  0.85796  0.27151  1.0000
  C   C4        1.0  0.55939  0.14204  0.77151  1.0000
  C   C5        1.0  0.55939  0.35796  0.27151  1.0000
  C   C6        1.0  0.94061  0.64204  0.77151  1.0000
  C   C7        1.0  0.05939  0.14204  0.72849  1.0000
  C   C8        1.0  0.44061  0.85796  0.22849  1.0000
  C   C9        1.0  0.39975  0.59785  0.76793  1.0000
  C   C10       1.0  0.10025  0.40215  0.26793  1.0000
  C   C11       1.0  0.89975  0.90215  0.23207  1.0000
  C   C12       1.0  0.60025  0.09785  0.73207  1.0000
  C   C13       1.0  0.60025  0.40215  0.23207  1.0000
  C   C14       1.0  0.89975  0.59785  0.73207  1.0000
  C   C15       1.0  0.10025  0.09785  0.76793  1.0000
  C   C16       1.0  0.39975  0.90215  0.26793  1.0000
  C   C17       1.0  0.29652  0.59312  0.82711  1.0000
  C   C18       1.0  0.20348  0.40688  0.32711  1.0000
  C   C19       1.0  0.79652  0.90688  0.17289  1.0000
  C   C20       1.0  0.70348  0.09312  0.67289  1.0000
  C   C21       1.0  0.70348  0.40688  0.17289  1.0000
  C   C22       1.0  0.79652  0.59312  0.67289  1.0000
  C   C23       1.0  0.20348  0.09312  0.82711  1.0000
  C   C24       1.0  0.29652  0.90688  0.32711  1.0000
  C   C25       1.0  0.42830  0.52215  0.78220  1.0000
  C   C26       1.0  0.07170  0.47785  0.28220  1.0000
  C   C27       1.0  0.92830  0.97785  0.21780  1.0000
  C   C28       1.0  0.57170  0.02215  0.71780  1.0000
  C   C29       1.0  0.57170  0.47785  0.21780  1.0000
  C   C30       1.0  0.92830  0.52215  0.71780  1.0000
  C   C31       1.0  0.07170  0.02215  0.78220  1.0000
  C   C32       1.0  0.42830  0.97785  0.28220  1.0000
  H   H1        1.0  0.47250  0.49840  0.76710  1.0000
  H   H2        1.0  0.02750  0.50160  0.26710  1.0000
  H   H3        1.0  0.97250  0.00160  0.23290  1.0000
  H   H4        1.0  0.52750  0.99840  0.73290  1.0000
  H   H5        1.0  0.52750  0.50160  0.23290  1.0000
  H   H6        1.0  0.97250  0.49840  0.73290  1.0000
  H   H7        1.0  0.02750  0.99840  0.76710  1.0000
  H   H8        1.0  0.47250  0.00160  0.26710  1.0000
  C   C33       1.0  0.32515  0.51764  0.84116  1.0000
  C   C34       1.0  0.17485  0.48236  0.34116  1.0000
  C   C35       1.0  0.82515  0.98236  0.15884  1.0000
  C   C36       1.0  0.67485  0.01764  0.65884  1.0000
  C   C37       1.0  0.67485  0.48236  0.15884  1.0000
  C   C38       1.0  0.82515  0.51764  0.65884  1.0000
  C   C39       1.0  0.17485  0.01764  0.84116  1.0000
  C   C40       1.0  0.32515  0.98236  0.34116  1.0000
  H   H9        1.0  0.30010  0.49080  0.86560  1.0000
  H   H10       1.0  0.19990  0.50920  0.36560  1.0000
  H   H11       1.0  0.80010  0.00920  0.13440  1.0000
  H   H12       1.0  0.69990  0.99080  0.63440  1.0000
  H   H13       1.0  0.69990  0.50920  0.13440  1.0000
  H   H14       1.0  0.80010  0.49080  0.63440  1.0000
  H   H15       1.0  0.19990  0.99080  0.86560  1.0000
  H   H16       1.0  0.30010  0.00920  0.36560  1.0000
  C   C41       1.0  0.39151  0.48150  0.81880  1.0000
  C   C42       1.0  0.10849  0.51850  0.31880  1.0000
  C   C43       1.0  0.89151  0.01850  0.18120  1.0000
  C   C44       1.0  0.60849  0.98150  0.68120  1.0000
  C   C45       1.0  0.60849  0.51850  0.18120  1.0000
  C   C46       1.0  0.89151  0.48150  0.68120  1.0000
  C   C47       1.0  0.10849  0.98150  0.81880  1.0000
  C   C48       1.0  0.39151  0.01850  0.31880  1.0000
  C   C49       1.0  0.42168  0.39983  0.83397  1.0000
  C   C50       1.0  0.07832  0.60017  0.33397  1.0000
  C   C51       1.0  0.92168  0.10017  0.16603  1.0000
  C   C52       1.0  0.57832  0.89983  0.66603  1.0000
  C   C53       1.0  0.57832  0.60017  0.16603  1.0000
  C   C54       1.0  0.92168  0.39983  0.66603  1.0000
  C   C55       1.0  0.07832  0.89983  0.83397  1.0000
  C   C56       1.0  0.42168  0.10017  0.33397  1.0000
  O   O9        1.0  0.48483  0.37227  0.81348  1.0000
  O   O10       1.0  0.01517  0.62773  0.31348  1.0000
  O   O11       1.0  0.98483  0.12773  0.18652  1.0000
  O   O12       1.0  0.51517  0.87227  0.68652  1.0000
  O   O13       1.0  0.51517  0.62773  0.18652  1.0000
  O   O14       1.0  0.98483  0.37227  0.68652  1.0000
  O   O15       1.0  0.01517  0.87227  0.81348  1.0000
  O   O16       1.0  0.48483  0.12773  0.31348  1.0000
  O   O17       1.0  0.38343  0.36317  0.86509  1.0000
  O   O18       1.0  0.11657  0.63683  0.36509  1.0000
  O   O19       1.0  0.88343  0.13683  0.13491  1.0000
  O   O20       1.0  0.61657  0.86317  0.63491  1.0000
  O   O21       1.0  0.61657  0.63683  0.13491  1.0000
  O   O22       1.0  0.88343  0.36317  0.63491  1.0000
  O   O23       1.0  0.11657  0.86317  0.86509  1.0000
  O   O24       1.0  0.38343  0.13683  0.36509  1.0000
  O   O25       1.0  0.17972  0.59221  0.87606  1.0000
  O   O26       1.0  0.32028  0.40779  0.37606  1.0000
  O   O27       1.0  0.67972  0.90779  0.12394  1.0000
  O   O28       1.0  0.82028  0.09221  0.62394  1.0000
  O   O29       1.0  0.82028  0.40779  0.12394  1.0000
  O   O30       1.0  0.67972  0.59221  0.62394  1.0000
  O   O31       1.0  0.32028  0.09221  0.87606  1.0000
  O   O32       1.0  0.17972  0.90779  0.37606  1.0000
  Zn  Zn1       1.0  0.54027  0.15991  0.92001  1.0000
  Zn  Zn2       1.0  0.95973  0.84009  0.42001  1.0000
  Zn  Zn3       1.0  0.04027  0.34009  0.07999  1.0000
  Zn  Zn4       1.0  0.45973  0.65991  0.57999  1.0000
  Zn  Zn5       1.0  0.45973  0.84009  0.07999  1.0000
  Zn  Zn6       1.0  0.04027  0.15991  0.57999  1.0000
  Zn  Zn7       1.0  0.95973  0.65991  0.92001  1.0000
  Zn  Zn8       1.0  0.54027  0.34009  0.42001  1.0000
  Zn  Zn9       1.0  0.54948  0.27750  0.83072  1.0000
  Zn  Zn10      1.0  0.95052  0.72250  0.33072  1.0000
  Zn  Zn11      1.0  0.04948  0.22250  0.16928  1.0000
  Zn  Zn12      1.0  0.45052  0.77750  0.66928  1.0000
  Zn  Zn13      1.0  0.45052  0.72250  0.16928  1.0000
  Zn  Zn14      1.0  0.04948  0.27750  0.66928  1.0000
  Zn  Zn15      1.0  0.95052  0.77750  0.83072  1.0000
  Zn  Zn16      1.0  0.54948  0.22250  0.33072  1.0000
  Zn  Zn17      1.0  0.37289  0.24667  0.88234  1.0000
  Zn  Zn18      1.0  0.12711  0.75333  0.38234  1.0000
  Zn  Zn19      1.0  0.87289  0.25333  0.11766  1.0000
  Zn  Zn20      1.0  0.62711  0.74667  0.61766  1.0000
  Zn  Zn21      1.0  0.62711  0.75333  0.11766  1.0000
  Zn  Zn22      1.0  0.87289  0.24667  0.61766  1.0000
  Zn  Zn23      1.0  0.12711  0.74667  0.88234  1.0000
  Zn  Zn24      1.0  0.37289  0.25333  0.38234  1.0000
  O   O33       1.0  0.35022  0.24145  0.94835  1.0000
  O   O34       1.0  0.14978  0.75855  0.44835  1.0000
  O   O35       1.0  0.85022  0.25855  0.05165  1.0000
  O   O36       1.0  0.64978  0.74145  0.55165  1.0000
  O   O37       1.0  0.64978  0.75855  0.05165  1.0000
  O   O38       1.0  0.85022  0.24145  0.55165  1.0000
  O   O39       1.0  0.14978  0.74145  0.94835  1.0000
  O   O40       1.0  0.35022  0.25855  0.44835  1.0000
  O   O41       1.0  0.21953  0.71053  0.84632  1.0000
  O   O42       1.0  0.28047  0.28947  0.34632  1.0000
  O   O43       1.0  0.71953  0.78947  0.15368  1.0000
  O   O44       1.0  0.78047  0.21053  0.65368  1.0000
  O   O45       1.0  0.78047  0.28947  0.15368  1.0000
  O   O46       1.0  0.71953  0.71053  0.65368  1.0000
  O   O47       1.0  0.28047  0.21053  0.84632  1.0000
  O   O48       1.0  0.21953  0.78947  0.34632  1.0000
  O   O49       1.0  0.48011  0.19942  0.86589  1.0000
  O   O50       1.0  0.01989  0.80058  0.36589  1.0000
  O   O51       1.0  0.98011  0.30058  0.13411  1.0000
  O   O52       1.0  0.51989  0.69942  0.63411  1.0000
  O   O53       1.0  0.51989  0.80058  0.13411  1.0000
  O   O54       1.0  0.98011  0.19942  0.63411  1.0000
  O   O55       1.0  0.01989  0.69942  0.86589  1.0000
  O   O56       1.0  0.48011  0.30058  0.36589  1.0000
  O   O57       1.0  0.42905  0.95061  0.07404  1.0000
  O   O58       1.0  0.07095  0.04939  0.57404  1.0000
  O   O59       1.0  0.92905  0.54939  0.92596  1.0000
  O   O60       1.0  0.57095  0.45061  0.42596  1.0000
  O   O61       1.0  0.57095  0.04939  0.92596  1.0000
  O   O62       1.0  0.92905  0.95061  0.42596  1.0000
  O   O63       1.0  0.07095  0.45061  0.07404  1.0000
  O   O64       1.0  0.42905  0.54939  0.57404  1.0000
  C   C57       1.0  0.23347  0.16516  0.07123  1.0000
  C   C58       1.0  0.26653  0.83484  0.57123  1.0000
  C   C59       1.0  0.73347  0.33484  0.92877  1.0000
  C   C60       1.0  0.76653  0.66516  0.42877  1.0000
  C   C61       1.0  0.76653  0.83484  0.92877  1.0000
  C   C62       1.0  0.73347  0.16516  0.42877  1.0000
  C   C63       1.0  0.26653  0.66516  0.07123  1.0000
  C   C64       1.0  0.23347  0.33484  0.57123  1.0000
  O   O65       1.0  0.46100  0.17183  0.97040  1.0000
  O   O66       1.0  0.03900  0.82817  0.47040  1.0000
  O   O67       1.0  0.96100  0.32817  0.02960  1.0000
  O   O68       1.0  0.53900  0.67183  0.52960  1.0000
  O   O69       1.0  0.53900  0.82817  0.02960  1.0000
  O   O70       1.0  0.96100  0.17183  0.52960  1.0000
  O   O71       1.0  0.03900  0.67183  0.97040  1.0000
  O   O72       1.0  0.46100  0.32817  0.47040  1.0000
  C   C65       1.0  0.26333  0.09348  0.09137  1.0000
  C   C66       1.0  0.23667  0.90652  0.59137  1.0000
  C   C67       1.0  0.76333  0.40652  0.90863  1.0000
  C   C68       1.0  0.73667  0.59348  0.40863  1.0000
  C   C69       1.0  0.73667  0.90652  0.90863  1.0000
  C   C70       1.0  0.76333  0.09348  0.40863  1.0000
  C   C71       1.0  0.23667  0.59348  0.09137  1.0000
  C   C72       1.0  0.26333  0.40652  0.59137  1.0000
  H   H17       1.0  0.23630  0.07060  0.11640  1.0000
  H   H18       1.0  0.26370  0.92940  0.61640  1.0000
  H   H19       1.0  0.73630  0.42940  0.88360  1.0000
  H   H20       1.0  0.76370  0.57060  0.38360  1.0000
  H   H21       1.0  0.76370  0.92940  0.88360  1.0000
  H   H22       1.0  0.73630  0.07060  0.38360  1.0000
  H   H23       1.0  0.26370  0.57060  0.11640  1.0000
  H   H24       1.0  0.23630  0.42940  0.61640  1.0000
  C   C73       1.0  0.34413  0.16251  0.01659  1.0000
  C   C74       1.0  0.15587  0.83749  0.51659  1.0000
  C   C75       1.0  0.84413  0.33749  0.98341  1.0000
  C   C76       1.0  0.65587  0.66251  0.48341  1.0000
  C   C77       1.0  0.65587  0.83749  0.98341  1.0000
  C   C78       1.0  0.84413  0.16251  0.48341  1.0000
  C   C79       1.0  0.15587  0.66251  0.01659  1.0000
  C   C80       1.0  0.34413  0.33749  0.51659  1.0000
  C   C81       1.0  0.27319  0.19836  0.03324  1.0000
  C   C82       1.0  0.22681  0.80164  0.53324  1.0000
  C   C83       1.0  0.77319  0.30164  0.96676  1.0000
  C   C84       1.0  0.72681  0.69836  0.46676  1.0000
  C   C85       1.0  0.72681  0.80164  0.96676  1.0000
  C   C86       1.0  0.77319  0.19836  0.46676  1.0000
  C   C87       1.0  0.22681  0.69836  0.03324  1.0000
  C   C88       1.0  0.27319  0.30164  0.53324  1.0000
  H   H25       1.0  0.25220  0.24470  0.01890  1.0000
  H   H26       1.0  0.24780  0.75530  0.51890  1.0000
  H   H27       1.0  0.75220  0.25530  0.98110  1.0000
  H   H28       1.0  0.74780  0.74470  0.48110  1.0000
  H   H29       1.0  0.74780  0.75530  0.98110  1.0000
  H   H30       1.0  0.75220  0.24470  0.48110  1.0000
  H   H31       1.0  0.24780  0.74470  0.01890  1.0000
  H   H32       1.0  0.25220  0.25530  0.51890  1.0000
  C   C89       1.0  0.37360  0.09270  0.03740  1.0000
  C   C90       1.0  0.12640  0.90730  0.53740  1.0000
  C   C91       1.0  0.87360  0.40730  0.96260  1.0000
  C   C92       1.0  0.62640  0.59270  0.46260  1.0000
  C   C93       1.0  0.62640  0.90730  0.96260  1.0000
  C   C94       1.0  0.87360  0.09270  0.46260  1.0000
  C   C95       1.0  0.12640  0.59270  0.03740  1.0000
  C   C96       1.0  0.37360  0.40730  0.53740  1.0000
  H   H33       1.0  0.42170  0.06940  0.02660  1.0000
  H   H34       1.0  0.07830  0.93060  0.52660  1.0000
  H   H35       1.0  0.92170  0.43060  0.97340  1.0000
  H   H36       1.0  0.57830  0.56940  0.47340  1.0000
  H   H37       1.0  0.57830  0.93060  0.97340  1.0000
  H   H38       1.0  0.92170  0.06940  0.47340  1.0000
  H   H39       1.0  0.07830  0.56940  0.02660  1.0000
  H   H40       1.0  0.42170  0.43060  0.52660  1.0000
  C   C97       1.0  0.38813  0.19515  0.97512  1.0000
  C   C98       1.0  0.11187  0.80485  0.47512  1.0000
  C   C99       1.0  0.88813  0.30485  0.02488  1.0000
  C   C100      1.0  0.61187  0.69515  0.52488  1.0000
  C   C101      1.0  0.61187  0.80485  0.02488  1.0000
  C   C102      1.0  0.88813  0.19515  0.52488  1.0000
  C   C103      1.0  0.11187  0.69515  0.97512  1.0000
  C   C104      1.0  0.38813  0.30485  0.47512  1.0000
  C   C105      1.0  0.33329  0.05636  0.07406  1.0000
  C   C106      1.0  0.16671  0.94364  0.57406  1.0000
  C   C107      1.0  0.83329  0.44364  0.92594  1.0000
  C   C108      1.0  0.66671  0.55636  0.42594  1.0000
  C   C109      1.0  0.66671  0.94364  0.92594  1.0000
  C   C110      1.0  0.83329  0.05636  0.42594  1.0000
  C   C111      1.0  0.16671  0.55636  0.07406  1.0000
  C   C112      1.0  0.33329  0.44364  0.57406  1.0000
  O   O73       1.0  0.49426  0.60692  0.70655  1.0000
  O   O74       1.0  0.00574  0.39308  0.20655  1.0000
  O   O75       1.0  0.99426  0.89308  0.29345  1.0000
  O   O76       1.0  0.50574  0.10692  0.79345  1.0000
  O   O77       1.0  0.50574  0.39308  0.29345  1.0000
  O   O78       1.0  0.99426  0.60692  0.79345  1.0000
  O   O79       1.0  0.00574  0.10692  0.70655  1.0000
  O   O80       1.0  0.49426  0.89308  0.20655  1.0000
  C   C113      1.0  0.33400  0.63245  0.79061  1.0000
  C   C114      1.0  0.16600  0.36755  0.29061  1.0000
  C   C115      1.0  0.83400  0.86755  0.20939  1.0000
  C   C116      1.0  0.66600  0.13245  0.70939  1.0000
  C   C117      1.0  0.66600  0.36755  0.20939  1.0000
  C   C118      1.0  0.83400  0.63245  0.70939  1.0000
  C   C119      1.0  0.16600  0.13245  0.79061  1.0000
  C   C120      1.0  0.33400  0.86755  0.29061  1.0000
  H   H41       1.0  0.31460  0.68320  0.78110  1.0000
  H   H42       1.0  0.18540  0.31680  0.28110  1.0000
  H   H43       1.0  0.81460  0.81680  0.21890  1.0000
  H   H44       1.0  0.68540  0.18320  0.71890  1.0000
  H   H45       1.0  0.68540  0.31680  0.21890  1.0000
  H   H46       1.0  0.81460  0.68320  0.71890  1.0000
  H   H47       1.0  0.18540  0.18320  0.78110  1.0000
  H   H48       1.0  0.31460  0.81680  0.28110  1.0000
  O   O81       1.0  0.32675  0.94001  0.12317  1.0000
  O   O82       1.0  0.17325  0.05999  0.62317  1.0000
  O   O83       1.0  0.82675  0.55999  0.87683  1.0000
  O   O84       1.0  0.67325  0.44001  0.37683  1.0000
  O   O85       1.0  0.67325  0.05999  0.87683  1.0000
  O   O86       1.0  0.82675  0.94001  0.37683  1.0000
  O   O87       1.0  0.17325  0.44001  0.12317  1.0000
  O   O88       1.0  0.32675  0.55999  0.62317  1.0000
  C   C121      1.0  0.22637  0.63272  0.85205  1.0000
  C   C122      1.0  0.27363  0.36728  0.35205  1.0000
  C   C123      1.0  0.72637  0.86728  0.14795  1.0000
  C   C124      1.0  0.77363  0.13272  0.64795  1.0000
  C   C125      1.0  0.77363  0.36728  0.14795  1.0000
  C   C126      1.0  0.72637  0.63272  0.64795  1.0000
  C   C127      1.0  0.27363  0.13272  0.85205  1.0000
  C   C128      1.0  0.22637  0.86728  0.35205  1.0000
  C   C129      1.0  0.36361  0.97582  0.09318  1.0000
  C   C130      1.0  0.13639  0.02418  0.59318  1.0000
  C   C131      1.0  0.86361  0.52418  0.90682  1.0000
  C   C132      1.0  0.63639  0.47582  0.40682  1.0000
  C   C133      1.0  0.63639  0.02418  0.90682  1.0000
  C   C134      1.0  0.86361  0.97582  0.40682  1.0000
  C   C135      1.0  0.13639  0.47582  0.09318  1.0000
  C   C136      1.0  0.36361  0.52418  0.59318  1.0000
  C   C137      1.0  0.15954  0.20638  0.09106  1.0000
  C   C138      1.0  0.34046  0.79362  0.59106  1.0000
  C   C139      1.0  0.65954  0.29362  0.90894  1.0000
  C   C140      1.0  0.84046  0.70638  0.40894  1.0000
  C   C141      1.0  0.84046  0.79362  0.90894  1.0000
  C   C142      1.0  0.65954  0.20638  0.40894  1.0000
  C   C143      1.0  0.34046  0.70638  0.09106  1.0000
  C   C144      1.0  0.15954  0.29362  0.59106  1.0000
  O   O89       1.0  0.12666  0.26130  0.06701  1.0000
  O   O90       1.0  0.37334  0.73870  0.56701  1.0000
  O   O91       1.0  0.62666  0.23870  0.93299  1.0000
  O   O92       1.0  0.87334  0.76130  0.43299  1.0000
  O   O93       1.0  0.87334  0.73870  0.93299  1.0000
  O   O94       1.0  0.62666  0.26130  0.43299  1.0000
  O   O95       1.0  0.37334  0.76130  0.06701  1.0000
  O   O96       1.0  0.12666  0.23870  0.56701  1.0000
  O   O97       1.0  0.13613  0.18309  0.13019  1.0000
  O   O98       1.0  0.36387  0.81691  0.63019  1.0000
  O   O99       1.0  0.63613  0.31691  0.86981  1.0000
  O   O100      1.0  0.86387  0.68309  0.36981  1.0000
  O   O101      1.0  0.86387  0.81691  0.86981  1.0000
  O   O102      1.0  0.63613  0.18309  0.36981  1.0000
  O   O103      1.0  0.36387  0.68309  0.13019  1.0000
  O   O104      1.0  0.13613  0.31691  0.63019  1.0000
  H   H49       1.0  0.48100  0.16530  0.84470  1.0000
  H   H50       1.0  0.01900  0.83470  0.34470  1.0000
  H   H51       1.0  0.98100  0.33470  0.15530  1.0000
  H   H52       1.0  0.51900  0.66530  0.65530  1.0000
  H   H53       1.0  0.51900  0.83470  0.15530  1.0000
  H   H54       1.0  0.98100  0.16530  0.65530  1.0000
  H   H55       1.0  0.01900  0.66530  0.84470  1.0000
  H   H56       1.0  0.48100  0.33470  0.34470  1.0000
