data_image0
_chemical_formula_structural       C16H8C16H8C16H8C40H8C16H8C16H8C24O104H8Zn24
_chemical_formula_sum              "C144 H56 O104 Zn24"
_cell_length_a       16.295
_cell_length_b       16.295
_cell_length_c       28.946
_cell_angle_alpha    90
_cell_angle_beta     90
_cell_angle_gamma    90

_space_group_name_H-M_alt    "P 1"
_space_group_IT_number       1

loop_
  _space_group_symop_operation_xyz
  'x, y, z'

loop_
  _atom_site_type_symbol
  _atom_site_label
  _atom_site_symmetry_multiplicity
  _atom_site_fract_x
  _atom_site_fract_y
  _atom_site_fract_z
  _atom_site_occupancy
  C   C1        1.0  0.76518  0.33240  0.57153  1.0000
  C   C2        1.0  0.73482  0.66760  0.07153  1.0000
  C   C3        1.0  0.26518  0.16760  0.42847  1.0000
  C   C4        1.0  0.23482  0.83240  0.92847  1.0000
  C   C5        1.0  0.23482  0.66760  0.42847  1.0000
  C   C6        1.0  0.26518  0.33240  0.92847  1.0000
  C   C7        1.0  0.73482  0.83240  0.57153  1.0000
  C   C8        1.0  0.76518  0.16760  0.07153  1.0000
  C   C9        1.0  0.72626  0.29980  0.53324  1.0000
  C   C10       1.0  0.77374  0.70020  0.03324  1.0000
  C   C11       1.0  0.22626  0.20020  0.46676  1.0000
  C   C12       1.0  0.27374  0.79980  0.96676  1.0000
  C   C13       1.0  0.27374  0.70020  0.46676  1.0000
  C   C14       1.0  0.22626  0.29980  0.96676  1.0000
  C   C15       1.0  0.77374  0.79980  0.53324  1.0000
  C   C16       1.0  0.72626  0.20020  0.03324  1.0000
  H   H1        1.0  0.74750  0.25340  0.51880  1.0000
  H   H2        1.0  0.75250  0.74660  0.01880  1.0000
  H   H3        1.0  0.24750  0.24660  0.48120  1.0000
  H   H4        1.0  0.25250  0.75340  0.98120  1.0000
  H   H5        1.0  0.25250  0.74660  0.48120  1.0000
  H   H6        1.0  0.24750  0.25340  0.98120  1.0000
  H   H7        1.0  0.75250  0.75340  0.51880  1.0000
  H   H8        1.0  0.74750  0.24660  0.01880  1.0000
  C   C17       1.0  0.65577  0.33640  0.51636  1.0000
  C   C18       1.0  0.84423  0.66360  0.01636  1.0000
  C   C19       1.0  0.15577  0.16360  0.48364  1.0000
  C   C20       1.0  0.34423  0.83640  0.98364  1.0000
  C   C21       1.0  0.34423  0.66360  0.48364  1.0000
  C   C22       1.0  0.15577  0.33640  0.98364  1.0000
  C   C23       1.0  0.84423  0.83640  0.51636  1.0000
  C   C24       1.0  0.65577  0.16360  0.01636  1.0000
  C   C25       1.0  0.62623  0.40650  0.53724  1.0000
  C   C26       1.0  0.87377  0.59350  0.03724  1.0000
  C   C27       1.0  0.12623  0.09350  0.46276  1.0000
  C   C28       1.0  0.37377  0.90650  0.96276  1.0000
  C   C29       1.0  0.37377  0.59350  0.46276  1.0000
  C   C30       1.0  0.12623  0.40650  0.96276  1.0000
  C   C31       1.0  0.87377  0.90650  0.53724  1.0000
  C   C32       1.0  0.62623  0.09350  0.03724  1.0000
  H   H9        1.0  0.57830  0.43050  0.52620  1.0000
  H   H10       1.0  0.92170  0.56950  0.02620  1.0000
  H   H11       1.0  0.07830  0.06950  0.47380  1.0000
  H   H12       1.0  0.42170  0.93050  0.97380  1.0000
  H   H13       1.0  0.42170  0.56950  0.47380  1.0000
  H   H14       1.0  0.07830  0.43050  0.97380  1.0000
  H   H15       1.0  0.92170  0.93050  0.52620  1.0000
  H   H16       1.0  0.57830  0.06950  0.02620  1.0000
  C   C33       1.0  0.66650  0.44180  0.57412  1.0000
  C   C34       1.0  0.83350  0.55820  0.07412  1.0000
  C   C35       1.0  0.16650  0.05820  0.42588  1.0000
  C   C36       1.0  0.33350  0.94180  0.92588  1.0000
  C   C37       1.0  0.33350  0.55820  0.42588  1.0000
  C   C38       1.0  0.16650  0.44180  0.92588  1.0000
  C   C39       1.0  0.83350  0.94180  0.57412  1.0000
  C   C40       1.0  0.66650  0.05820  0.07412  1.0000
  C   C41       1.0  0.73540  0.40380  0.59158  1.0000
  C   C42       1.0  0.76460  0.59620  0.09158  1.0000
  C   C43       1.0  0.23540  0.09620  0.40842  1.0000
  C   C44       1.0  0.26460  0.90380  0.90842  1.0000
  C   C45       1.0  0.26460  0.59620  0.40842  1.0000
  C   C46       1.0  0.23540  0.40380  0.90842  1.0000
  C   C47       1.0  0.76460  0.90380  0.59158  1.0000
  C   C48       1.0  0.73540  0.09620  0.09158  1.0000
  H   H17       1.0  0.76210  0.42620  0.61700  1.0000
  H   H18       1.0  0.73790  0.57380  0.11700  1.0000
  H   H19       1.0  0.26210  0.07380  0.38300  1.0000
  H   H20       1.0  0.23790  0.92620  0.88300  1.0000
  H   H21       1.0  0.23790  0.57380  0.38300  1.0000
  H   H22       1.0  0.26210  0.42620  0.88300  1.0000
  H   H23       1.0  0.73790  0.92620  0.61700  1.0000
  H   H24       1.0  0.76210  0.07380  0.11700  1.0000
  C   C49       1.0  0.83920  0.29000  0.59169  1.0000
  C   C50       1.0  0.66080  0.71000  0.09169  1.0000
  C   C51       1.0  0.33920  0.21000  0.40831  1.0000
  C   C52       1.0  0.16080  0.79000  0.90831  1.0000
  C   C53       1.0  0.16080  0.71000  0.40831  1.0000
  C   C54       1.0  0.33920  0.29000  0.90831  1.0000
  C   C55       1.0  0.66080  0.79000  0.59169  1.0000
  C   C56       1.0  0.83920  0.21000  0.09169  1.0000
  C   C57       1.0  0.61160  0.30570  0.47464  1.0000
  C   C58       1.0  0.88840  0.69430  0.97464  1.0000
  C   C59       1.0  0.11160  0.19430  0.52536  1.0000
  C   C60       1.0  0.38840  0.80570  0.02536  1.0000
  C   C61       1.0  0.38840  0.69430  0.52536  1.0000
  C   C62       1.0  0.11160  0.30570  0.02536  1.0000
  C   C63       1.0  0.88840  0.80570  0.47464  1.0000
  C   C64       1.0  0.61160  0.19430  0.97464  1.0000
  C   C65       1.0  0.63550  0.52180  0.59296  1.0000
  C   C66       1.0  0.86450  0.47820  0.09296  1.0000
  C   C67       1.0  0.13550  0.97820  0.40704  1.0000
  C   C68       1.0  0.36450  0.02180  0.90704  1.0000
  C   C69       1.0  0.36450  0.47820  0.40704  1.0000
  C   C70       1.0  0.13550  0.52180  0.90704  1.0000
  C   C71       1.0  0.86450  0.02180  0.59296  1.0000
  C   C72       1.0  0.63550  0.97820  0.09296  1.0000
  C   C73       1.0  0.90040  0.09570  0.76805  1.0000
  C   C74       1.0  0.59960  0.90430  0.26805  1.0000
  C   C75       1.0  0.40040  0.40430  0.23195  1.0000
  C   C76       1.0  0.09960  0.59570  0.73195  1.0000
  C   C77       1.0  0.09960  0.90430  0.23195  1.0000
  C   C78       1.0  0.40040  0.09570  0.73195  1.0000
  C   C79       1.0  0.59960  0.59570  0.76805  1.0000
  C   C80       1.0  0.90040  0.40430  0.26805  1.0000
  C   C81       1.0  0.92903  0.02060  0.78223  1.0000
  C   C82       1.0  0.57097  0.97940  0.28223  1.0000
  C   C83       1.0  0.42903  0.47940  0.21777  1.0000
  C   C84       1.0  0.07097  0.52060  0.71777  1.0000
  C   C85       1.0  0.07097  0.97940  0.21777  1.0000
  C   C86       1.0  0.42903  0.02060  0.71777  1.0000
  C   C87       1.0  0.57097  0.52060  0.78223  1.0000
  C   C88       1.0  0.92903  0.47940  0.28223  1.0000
  H   H25       1.0  0.97370  0.99710  0.76720  1.0000
  H   H26       1.0  0.52630  0.00290  0.26720  1.0000
  H   H27       1.0  0.47370  0.50290  0.23280  1.0000
  H   H28       1.0  0.02630  0.49710  0.73280  1.0000
  H   H29       1.0  0.02630  0.00290  0.23280  1.0000
  H   H30       1.0  0.47370  0.99710  0.73280  1.0000
  H   H31       1.0  0.52630  0.49710  0.76720  1.0000
  H   H32       1.0  0.97370  0.50290  0.26720  1.0000
  C   C89       1.0  0.89223  0.97960  0.81857  1.0000
  C   C90       1.0  0.60777  0.02040  0.31857  1.0000
  C   C91       1.0  0.39223  0.52040  0.18143  1.0000
  C   C92       1.0  0.10777  0.47960  0.68143  1.0000
  C   C93       1.0  0.10777  0.02040  0.18143  1.0000
  C   C94       1.0  0.39223  0.97960  0.68143  1.0000
  C   C95       1.0  0.60777  0.47960  0.81857  1.0000
  C   C96       1.0  0.89223  0.52040  0.31857  1.0000
  C   C97       1.0  0.82612  0.01570  0.84119  1.0000
  C   C98       1.0  0.67388  0.98430  0.34119  1.0000
  C   C99       1.0  0.32612  0.48430  0.15881  1.0000
  C   C100      1.0  0.17388  0.51570  0.65881  1.0000
  C   C101      1.0  0.17388  0.98430  0.15881  1.0000
  C   C102      1.0  0.32612  0.01570  0.65881  1.0000
  C   C103      1.0  0.67388  0.51570  0.84119  1.0000
  C   C104      1.0  0.82612  0.48430  0.34119  1.0000
  H   H33       1.0  0.80120  0.98870  0.86580  1.0000
  H   H34       1.0  0.69880  0.01130  0.36580  1.0000
  H   H35       1.0  0.30120  0.51130  0.13420  1.0000
  H   H36       1.0  0.19880  0.48870  0.63420  1.0000
  H   H37       1.0  0.19880  0.01130  0.13420  1.0000
  H   H38       1.0  0.30120  0.98870  0.63420  1.0000
  H   H39       1.0  0.69880  0.48870  0.86580  1.0000
  H   H40       1.0  0.80120  0.51130  0.36580  1.0000
  C   C105      1.0  0.79740  0.09120  0.82739  1.0000
  C   C106      1.0  0.70260  0.90880  0.32739  1.0000
  C   C107      1.0  0.29740  0.40880  0.17261  1.0000
  C   C108      1.0  0.20260  0.59120  0.67261  1.0000
  C   C109      1.0  0.20260  0.90880  0.17261  1.0000
  C   C110      1.0  0.29740  0.09120  0.67261  1.0000
  C   C111      1.0  0.70260  0.59120  0.82739  1.0000
  C   C112      1.0  0.79740  0.40880  0.32739  1.0000
  C   C113      1.0  0.83441  0.13050  0.79074  1.0000
  C   C114      1.0  0.66559  0.86950  0.29074  1.0000
  C   C115      1.0  0.33441  0.36950  0.20926  1.0000
  C   C116      1.0  0.16559  0.63050  0.70926  1.0000
  C   C117      1.0  0.16559  0.86950  0.20926  1.0000
  C   C118      1.0  0.33441  0.13050  0.70926  1.0000
  C   C119      1.0  0.66559  0.63050  0.79074  1.0000
  C   C120      1.0  0.83441  0.36950  0.29074  1.0000
  H   H41       1.0  0.81460  0.18130  0.78110  1.0000
  H   H42       1.0  0.68540  0.81870  0.28110  1.0000
  H   H43       1.0  0.31460  0.31870  0.21890  1.0000
  H   H44       1.0  0.18540  0.68130  0.71890  1.0000
  H   H45       1.0  0.18540  0.81870  0.21890  1.0000
  H   H46       1.0  0.31460  0.18130  0.71890  1.0000
  H   H47       1.0  0.68540  0.68130  0.78110  1.0000
  H   H48       1.0  0.81460  0.31870  0.28110  1.0000
  C   C121      1.0  0.94090  0.13960  0.72901  1.0000
  C   C122      1.0  0.55910  0.86040  0.22901  1.0000
  C   C123      1.0  0.44090  0.36040  0.27099  1.0000
  C   C124      1.0  0.05910  0.63960  0.77099  1.0000
  C   C125      1.0  0.05910  0.86040  0.27099  1.0000
  C   C126      1.0  0.44090  0.13960  0.77099  1.0000
  C   C127      1.0  0.55910  0.63960  0.72901  1.0000
  C   C128      1.0  0.94090  0.36040  0.22901  1.0000
  C   C129      1.0  0.92250  0.89730  0.83342  1.0000
  C   C130      1.0  0.57750  0.10270  0.33342  1.0000
  C   C131      1.0  0.42250  0.60270  0.16658  1.0000
  C   C132      1.0  0.07750  0.39730  0.66658  1.0000
  C   C133      1.0  0.07750  0.10270  0.16658  1.0000
  C   C134      1.0  0.42250  0.89730  0.66658  1.0000
  C   C135      1.0  0.57750  0.39730  0.83342  1.0000
  C   C136      1.0  0.92250  0.60270  0.33342  1.0000
  C   C137      1.0  0.72680  0.13040  0.85213  1.0000
  C   C138      1.0  0.77320  0.86960  0.35213  1.0000
  C   C139      1.0  0.22680  0.36960  0.14787  1.0000
  C   C140      1.0  0.27320  0.63040  0.64787  1.0000
  C   C141      1.0  0.27320  0.86960  0.14787  1.0000
  C   C142      1.0  0.22680  0.13040  0.64787  1.0000
  C   C143      1.0  0.77320  0.63040  0.85213  1.0000
  C   C144      1.0  0.72680  0.36960  0.35213  1.0000
  O   O1        1.0  0.87184  0.23552  0.56768  1.0000
  O   O2        1.0  0.62816  0.76448  0.06768  1.0000
  O   O3        1.0  0.37184  0.26448  0.43232  1.0000
  O   O4        1.0  0.12816  0.73552  0.93232  1.0000
  O   O5        1.0  0.12816  0.76448  0.43232  1.0000
  O   O6        1.0  0.37184  0.23552  0.93232  1.0000
  O   O7        1.0  0.62816  0.73552  0.56768  1.0000
  O   O8        1.0  0.87184  0.26448  0.06768  1.0000
  O   O9        1.0  0.86264  0.31397  0.63058  1.0000
  O   O10       1.0  0.63736  0.68603  0.13058  1.0000
  O   O11       1.0  0.36264  0.18603  0.36942  1.0000
  O   O12       1.0  0.13736  0.81397  0.86942  1.0000
  O   O13       1.0  0.13736  0.68603  0.36942  1.0000
  O   O14       1.0  0.36264  0.31397  0.86942  1.0000
  O   O15       1.0  0.63736  0.81397  0.63058  1.0000
  O   O16       1.0  0.86264  0.18603  0.13058  1.0000
  O   O17       1.0  0.64976  0.25944  0.44788  1.0000
  O   O18       1.0  0.85024  0.74056  0.94788  1.0000
  O   O19       1.0  0.14976  0.24056  0.55212  1.0000
  O   O20       1.0  0.35024  0.75944  0.05212  1.0000
  O   O21       1.0  0.35024  0.74056  0.55212  1.0000
  O   O22       1.0  0.14976  0.25944  0.05212  1.0000
  O   O23       1.0  0.85024  0.75944  0.44788  1.0000
  O   O24       1.0  0.64976  0.24056  0.94788  1.0000
  O   O25       1.0  0.53918  0.32934  0.46956  1.0000
  O   O26       1.0  0.96082  0.67066  0.96956  1.0000
  O   O27       1.0  0.03918  0.17066  0.53044  1.0000
  O   O28       1.0  0.46082  0.82934  0.03044  1.0000
  O   O29       1.0  0.46082  0.67066  0.53044  1.0000
  O   O30       1.0  0.03918  0.32934  0.03044  1.0000
  O   O31       1.0  0.96082  0.82934  0.46956  1.0000
  O   O32       1.0  0.53918  0.17066  0.96956  1.0000
  O   O33       1.0  0.57056  0.54736  0.57447  1.0000
  O   O34       1.0  0.92944  0.45264  0.07447  1.0000
  O   O35       1.0  0.07056  0.95264  0.42553  1.0000
  O   O36       1.0  0.42944  0.04736  0.92553  1.0000
  O   O37       1.0  0.42944  0.45264  0.42553  1.0000
  O   O38       1.0  0.07056  0.54736  0.92553  1.0000
  O   O39       1.0  0.92944  0.04736  0.57447  1.0000
  O   O40       1.0  0.57056  0.95264  0.07447  1.0000
  O   O41       1.0  0.67374  0.55794  0.62306  1.0000
  O   O42       1.0  0.82626  0.44206  0.12306  1.0000
  O   O43       1.0  0.17374  0.94206  0.37694  1.0000
  O   O44       1.0  0.32626  0.05794  0.87694  1.0000
  O   O45       1.0  0.32626  0.44206  0.37694  1.0000
  O   O46       1.0  0.17374  0.55794  0.87694  1.0000
  O   O47       1.0  0.82626  0.05794  0.62306  1.0000
  O   O48       1.0  0.67374  0.94206  0.12306  1.0000
  O   O49       1.0  0.91524  0.21258  0.72211  1.0000
  O   O50       1.0  0.58476  0.78742  0.22211  1.0000
  O   O51       1.0  0.41524  0.28742  0.27789  1.0000
  O   O52       1.0  0.08476  0.71258  0.77789  1.0000
  O   O53       1.0  0.08476  0.78742  0.27789  1.0000
  O   O54       1.0  0.41524  0.21258  0.77789  1.0000
  O   O55       1.0  0.58476  0.71258  0.72211  1.0000
  O   O56       1.0  0.91524  0.28742  0.22211  1.0000
  O   O57       1.0  0.99505  0.10514  0.70684  1.0000
  O   O58       1.0  0.50495  0.89486  0.20684  1.0000
  O   O59       1.0  0.49505  0.39486  0.29316  1.0000
  O   O60       1.0  0.00495  0.60514  0.79316  1.0000
  O   O61       1.0  0.00495  0.89486  0.29316  1.0000
  O   O62       1.0  0.49505  0.10514  0.79316  1.0000
  O   O63       1.0  0.50495  0.60514  0.70684  1.0000
  O   O64       1.0  0.99505  0.39486  0.20684  1.0000
  O   O65       1.0  0.98565  0.87005  0.81338  1.0000
  O   O66       1.0  0.51435  0.12995  0.31338  1.0000
  O   O67       1.0  0.48565  0.62995  0.18662  1.0000
  O   O68       1.0  0.01435  0.37005  0.68662  1.0000
  O   O69       1.0  0.01435  0.12995  0.18662  1.0000
  O   O70       1.0  0.48565  0.87005  0.68662  1.0000
  O   O71       1.0  0.51435  0.37005  0.81338  1.0000
  O   O72       1.0  0.98565  0.62995  0.31338  1.0000
  O   O73       1.0  0.88317  0.86107  0.86430  1.0000
  O   O74       1.0  0.61683  0.13893  0.36430  1.0000
  O   O75       1.0  0.38317  0.63893  0.13570  1.0000
  O   O76       1.0  0.11683  0.36107  0.63570  1.0000
  O   O77       1.0  0.11683  0.13893  0.13570  1.0000
  O   O78       1.0  0.38317  0.86107  0.63570  1.0000
  O   O79       1.0  0.61683  0.36107  0.86430  1.0000
  O   O80       1.0  0.88317  0.63893  0.36430  1.0000
  O   O81       1.0  0.71941  0.20737  0.84644  1.0000
  O   O82       1.0  0.78059  0.79263  0.34644  1.0000
  O   O83       1.0  0.21941  0.29263  0.15356  1.0000
  O   O84       1.0  0.28059  0.70737  0.65356  1.0000
  O   O85       1.0  0.28059  0.79263  0.15356  1.0000
  O   O86       1.0  0.21941  0.20737  0.65356  1.0000
  O   O87       1.0  0.78059  0.70737  0.84644  1.0000
  O   O88       1.0  0.71941  0.29263  0.34644  1.0000
  O   O89       1.0  0.68018  0.09061  0.87645  1.0000
  O   O90       1.0  0.81982  0.90939  0.37645  1.0000
  O   O91       1.0  0.18018  0.40939  0.12355  1.0000
  O   O92       1.0  0.31982  0.59061  0.62355  1.0000
  O   O93       1.0  0.31982  0.90939  0.12355  1.0000
  O   O94       1.0  0.18018  0.09061  0.62355  1.0000
  O   O95       1.0  0.81982  0.59061  0.87645  1.0000
  O   O96       1.0  0.68018  0.40939  0.37645  1.0000
  O   O97       1.0  0.02002  0.19730  0.63449  1.0000
  O   O98       1.0  0.47998  0.80270  0.13449  1.0000
  O   O99       1.0  0.52002  0.30270  0.36551  1.0000
  O   O100      1.0  0.97998  0.69730  0.86551  1.0000
  O   O101      1.0  0.97998  0.80270  0.36551  1.0000
  O   O102      1.0  0.52002  0.19730  0.86551  1.0000
  O   O103      1.0  0.47998  0.69730  0.63449  1.0000
  O   O104      1.0  0.02002  0.30270  0.13449  1.0000
  H   H49       1.0  0.02460  0.16070  0.65880  1.0000
  H   H50       1.0  0.47540  0.83930  0.15880  1.0000
  H   H51       1.0  0.52460  0.33930  0.34120  1.0000
  H   H52       1.0  0.97540  0.66070  0.84120  1.0000
  H   H53       1.0  0.97540  0.83930  0.34120  1.0000
  H   H54       1.0  0.52460  0.16070  0.84120  1.0000
  H   H55       1.0  0.47540  0.66070  0.65880  1.0000
  H   H56       1.0  0.02460  0.33930  0.15880  1.0000
  Zn  Zn1       1.0  0.95951  0.15787  0.58058  1.0000
  Zn  Zn2       1.0  0.54049  0.84213  0.08058  1.0000
  Zn  Zn3       1.0  0.45951  0.34213  0.41942  1.0000
  Zn  Zn4       1.0  0.04049  0.65787  0.91942  1.0000
  Zn  Zn5       1.0  0.04049  0.84213  0.41942  1.0000
  Zn  Zn6       1.0  0.45951  0.15787  0.91942  1.0000
  Zn  Zn7       1.0  0.54049  0.65787  0.58058  1.0000
  Zn  Zn8       1.0  0.95951  0.34213  0.08058  1.0000
  Zn  Zn9       1.0  0.95001  0.27515  0.66967  1.0000
  Zn  Zn10      1.0  0.54999  0.72485  0.16967  1.0000
  Zn  Zn11      1.0  0.45001  0.22485  0.33033  1.0000
  Zn  Zn12      1.0  0.04999  0.77515  0.83033  1.0000
  Zn  Zn13      1.0  0.04999  0.72485  0.33033  1.0000
  Zn  Zn14      1.0  0.45001  0.27515  0.83033  1.0000
  Zn  Zn15      1.0  0.54999  0.77515  0.66967  1.0000
  Zn  Zn16      1.0  0.95001  0.22485  0.16967  1.0000
  Zn  Zn17      1.0  0.62713  0.25505  0.38191  1.0000
  Zn  Zn18      1.0  0.87287  0.74495  0.88191  1.0000
  Zn  Zn19      1.0  0.12713  0.24495  0.61809  1.0000
  Zn  Zn20      1.0  0.37287  0.75505  0.11809  1.0000
  Zn  Zn21      1.0  0.37287  0.74495  0.61809  1.0000
  Zn  Zn22      1.0  0.12713  0.25505  0.11809  1.0000
  Zn  Zn23      1.0  0.87287  0.75505  0.38191  1.0000
  Zn  Zn24      1.0  0.62713  0.24495  0.88191  1.0000
