data_image0
_chemical_formula_structural       Zn8Li4O32C32H8C8H8C24H8C8H8C8H8C8H8C8O16C32H8C8H8C8H8C8H8C8
_chemical_formula_sum              "Zn8 Li4 O48 C160 H80"
_cell_length_a       15.6794
_cell_length_b       13.2596
_cell_length_c       19.9294
_cell_angle_alpha    90
_cell_angle_beta     104.551
_cell_angle_gamma    90

_space_group_name_H-M_alt    "P 1"
_space_group_IT_number       1

loop_
  _space_group_symop_operation_xyz
  'x, y, z'

loop_
  _atom_site_type_symbol
  _atom_site_label
  _atom_site_symmetry_multiplicity
  _atom_site_fract_x
  _atom_site_fract_y
  _atom_site_fract_z
  _atom_site_occupancy
  Zn  Zn1       1.0  0.51627  0.57327  0.42854  1.0000
  Zn  Zn2       1.0  0.48373  0.57327  0.07146  1.0000
  Zn  Zn3       1.0  0.01627  0.07327  0.42854  1.0000
  Zn  Zn4       1.0  0.98373  0.07327  0.07146  1.0000
  Zn  Zn5       1.0  0.48373  0.42673  0.57146  1.0000
  Zn  Zn6       1.0  0.51627  0.42673  0.92854  1.0000
  Zn  Zn7       1.0  0.98373  0.92673  0.57146  1.0000
  Zn  Zn8       1.0  0.01627  0.92673  0.92854  1.0000
  Li  Li1       1.0  0.50000  0.51740  0.25000  1.0000
  Li  Li2       1.0  0.00000  0.01740  0.25000  1.0000
  Li  Li3       1.0  0.50000  0.48260  0.75000  1.0000
  Li  Li4       1.0  0.00000  0.98260  0.75000  1.0000
  O   O1        1.0  0.40436  0.51580  0.38241  1.0000
  O   O2        1.0  0.59564  0.51580  0.11759  1.0000
  O   O3        1.0  0.90436  0.01580  0.38241  1.0000
  O   O4        1.0  0.09564  0.01580  0.11759  1.0000
  O   O5        1.0  0.59564  0.48420  0.61759  1.0000
  O   O6        1.0  0.40436  0.48420  0.88241  1.0000
  O   O7        1.0  0.09564  0.98420  0.61759  1.0000
  O   O8        1.0  0.90436  0.98420  0.88241  1.0000
  O   O9        1.0  0.43831  0.42910  0.29693  1.0000
  O   O10       1.0  0.56169  0.42910  0.20307  1.0000
  O   O11       1.0  0.93831  0.92910  0.29693  1.0000
  O   O12       1.0  0.06169  0.92910  0.20307  1.0000
  O   O13       1.0  0.56169  0.57090  0.70307  1.0000
  O   O14       1.0  0.43831  0.57090  0.79693  1.0000
  O   O15       1.0  0.06169  0.07090  0.70307  1.0000
  O   O16       1.0  0.93831  0.07090  0.79693  1.0000
  O   O17       1.0  0.08144  0.18504  0.40439  1.0000
  O   O18       1.0  0.91856  0.18504  0.09561  1.0000
  O   O19       1.0  0.58144  0.68504  0.40439  1.0000
  O   O20       1.0  0.41856  0.68504  0.09561  1.0000
  O   O21       1.0  0.91856  0.81496  0.59561  1.0000
  O   O22       1.0  0.08144  0.81496  0.90439  1.0000
  O   O23       1.0  0.41856  0.31496  0.59561  1.0000
  O   O24       1.0  0.58144  0.31496  0.90439  1.0000
  O   O25       1.0  0.08336  0.10340  0.30754  1.0000
  O   O26       1.0  0.91664  0.10340  0.19246  1.0000
  O   O27       1.0  0.58336  0.60340  0.30754  1.0000
  O   O28       1.0  0.41664  0.60340  0.19246  1.0000
  O   O29       1.0  0.91664  0.89660  0.69246  1.0000
  O   O30       1.0  0.08336  0.89660  0.80754  1.0000
  O   O31       1.0  0.41664  0.39660  0.69246  1.0000
  O   O32       1.0  0.58336  0.39660  0.80754  1.0000
  C   C1        1.0  0.39130  0.44660  0.33681  1.0000
  C   C2        1.0  0.60870  0.44660  0.16319  1.0000
  C   C3        1.0  0.89130  0.94660  0.33681  1.0000
  C   C4        1.0  0.10870  0.94660  0.16319  1.0000
  C   C5        1.0  0.60870  0.55340  0.66319  1.0000
  C   C6        1.0  0.39130  0.55340  0.83681  1.0000
  C   C7        1.0  0.10870  0.05340  0.66319  1.0000
  C   C8        1.0  0.89130  0.05340  0.83681  1.0000
  C   C9        1.0  0.10830  0.17200  0.34961  1.0000
  C   C10       1.0  0.89170  0.17200  0.15039  1.0000
  C   C11       1.0  0.60830  0.67200  0.34961  1.0000
  C   C12       1.0  0.39170  0.67200  0.15039  1.0000
  C   C13       1.0  0.89170  0.82800  0.65039  1.0000
  C   C14       1.0  0.10830  0.82800  0.84961  1.0000
  C   C15       1.0  0.39170  0.32800  0.65039  1.0000
  C   C16       1.0  0.60830  0.32800  0.84961  1.0000
  C   C17       1.0  0.17740  0.24560  0.34055  1.0000
  C   C18       1.0  0.82260  0.24560  0.15945  1.0000
  C   C19       1.0  0.67740  0.74560  0.34055  1.0000
  C   C20       1.0  0.32260  0.74560  0.15945  1.0000
  C   C21       1.0  0.82260  0.75440  0.65945  1.0000
  C   C22       1.0  0.17740  0.75440  0.84055  1.0000
  C   C23       1.0  0.32260  0.25440  0.65945  1.0000
  C   C24       1.0  0.67740  0.25440  0.84055  1.0000
  C   C25       1.0  0.23940  0.27150  0.39870  1.0000
  C   C26       1.0  0.76060  0.27150  0.10130  1.0000
  C   C27       1.0  0.73940  0.77150  0.39870  1.0000
  C   C28       1.0  0.26060  0.77150  0.10130  1.0000
  C   C29       1.0  0.76060  0.72850  0.60130  1.0000
  C   C30       1.0  0.23940  0.72850  0.89870  1.0000
  C   C31       1.0  0.26060  0.22850  0.60130  1.0000
  C   C32       1.0  0.73940  0.22850  0.89870  1.0000
  H   H1        1.0  0.23664  0.24338  0.44195  1.0000
  H   H2        1.0  0.76336  0.24338  0.05805  1.0000
  H   H3        1.0  0.73664  0.74338  0.44195  1.0000
  H   H4        1.0  0.26336  0.74338  0.05805  1.0000
  H   H5        1.0  0.76336  0.75662  0.55805  1.0000
  H   H6        1.0  0.23664  0.75662  0.94195  1.0000
  H   H7        1.0  0.26336  0.25662  0.55805  1.0000
  H   H8        1.0  0.73664  0.25662  0.94195  1.0000
  C   C33       1.0  0.30810  0.33940  0.39620  1.0000
  C   C34       1.0  0.69190  0.33940  0.10380  1.0000
  C   C35       1.0  0.80810  0.83940  0.39620  1.0000
  C   C36       1.0  0.19190  0.83940  0.10380  1.0000
  C   C37       1.0  0.69190  0.66060  0.60380  1.0000
  C   C38       1.0  0.30810  0.66060  0.89620  1.0000
  C   C39       1.0  0.19190  0.16060  0.60380  1.0000
  C   C40       1.0  0.80810  0.16060  0.89620  1.0000
  H   H9        1.0  0.35050  0.35670  0.43771  1.0000
  H   H10       1.0  0.64950  0.35670  0.06229  1.0000
  H   H11       1.0  0.85050  0.85670  0.43771  1.0000
  H   H12       1.0  0.14950  0.85670  0.06229  1.0000
  H   H13       1.0  0.64950  0.64330  0.56229  1.0000
  H   H14       1.0  0.35050  0.64330  0.93771  1.0000
  H   H15       1.0  0.14950  0.14330  0.56229  1.0000
  H   H16       1.0  0.85050  0.14330  0.93771  1.0000
  C   C41       1.0  0.31370  0.37980  0.33519  1.0000
  C   C42       1.0  0.68630  0.37980  0.16481  1.0000
  C   C43       1.0  0.81370  0.87980  0.33519  1.0000
  C   C44       1.0  0.18630  0.87980  0.16481  1.0000
  C   C45       1.0  0.68630  0.62020  0.66481  1.0000
  C   C46       1.0  0.31370  0.62020  0.83519  1.0000
  C   C47       1.0  0.18630  0.12020  0.66481  1.0000
  C   C48       1.0  0.81370  0.12020  0.83519  1.0000
  C   C49       1.0  0.25060  0.35510  0.27278  1.0000
  C   C50       1.0  0.74940  0.35510  0.22722  1.0000
  C   C51       1.0  0.75060  0.85510  0.27278  1.0000
  C   C52       1.0  0.24940  0.85510  0.22722  1.0000
  C   C53       1.0  0.74940  0.64490  0.72722  1.0000
  C   C54       1.0  0.25060  0.64490  0.77278  1.0000
  C   C55       1.0  0.24940  0.14490  0.72722  1.0000
  C   C56       1.0  0.75060  0.14490  0.77278  1.0000
  C   C57       1.0  0.25140  0.40120  0.20820  1.0000
  C   C58       1.0  0.74860  0.40120  0.29180  1.0000
  C   C59       1.0  0.75140  0.90120  0.20820  1.0000
  C   C60       1.0  0.24860  0.90120  0.29180  1.0000
  C   C61       1.0  0.74860  0.59880  0.79180  1.0000
  C   C62       1.0  0.25140  0.59880  0.70820  1.0000
  C   C63       1.0  0.24860  0.09880  0.79180  1.0000
  C   C64       1.0  0.75140  0.09880  0.70820  1.0000
  H   H17       1.0  0.29668  0.44779  0.20611  1.0000
  H   H18       1.0  0.70332  0.44779  0.29389  1.0000
  H   H19       1.0  0.79668  0.94779  0.20611  1.0000
  H   H20       1.0  0.20332  0.94779  0.29389  1.0000
  H   H21       1.0  0.70332  0.55221  0.79389  1.0000
  H   H22       1.0  0.29668  0.55221  0.70611  1.0000
  H   H23       1.0  0.20332  0.05221  0.79389  1.0000
  H   H24       1.0  0.79668  0.05221  0.70611  1.0000
  C   C65       1.0  0.18760  0.37910  0.14910  1.0000
  C   C66       1.0  0.81240  0.37910  0.35090  1.0000
  C   C67       1.0  0.68760  0.87910  0.14910  1.0000
  C   C68       1.0  0.31240  0.87910  0.35090  1.0000
  C   C69       1.0  0.81240  0.62090  0.85090  1.0000
  C   C70       1.0  0.18760  0.62090  0.64910  1.0000
  C   C71       1.0  0.31240  0.12090  0.85090  1.0000
  C   C72       1.0  0.68760  0.12090  0.64910  1.0000
  H   H25       1.0  0.18849  0.41125  0.10674  1.0000
  H   H26       1.0  0.81151  0.41125  0.39326  1.0000
  H   H27       1.0  0.68849  0.91125  0.10674  1.0000
  H   H28       1.0  0.31151  0.91125  0.39326  1.0000
  H   H29       1.0  0.81151  0.58875  0.89326  1.0000
  H   H30       1.0  0.18849  0.58875  0.60674  1.0000
  H   H31       1.0  0.31151  0.08875  0.89326  1.0000
  H   H32       1.0  0.68849  0.08875  0.60674  1.0000
  C   C73       1.0  0.12080  0.30910  0.15090  1.0000
  C   C74       1.0  0.87920  0.30910  0.34910  1.0000
  C   C75       1.0  0.62080  0.80910  0.15090  1.0000
  C   C76       1.0  0.37920  0.80910  0.34910  1.0000
  C   C77       1.0  0.87920  0.69090  0.84910  1.0000
  C   C78       1.0  0.12080  0.69090  0.65090  1.0000
  C   C79       1.0  0.37920  0.19090  0.84910  1.0000
  C   C80       1.0  0.62080  0.19090  0.65090  1.0000
  H   H33       1.0  0.07763  0.29321  0.10955  1.0000
  H   H34       1.0  0.92237  0.29321  0.39045  1.0000
  H   H35       1.0  0.57763  0.79321  0.10955  1.0000
  H   H36       1.0  0.42237  0.79321  0.39045  1.0000
  H   H37       1.0  0.92237  0.70679  0.89045  1.0000
  H   H38       1.0  0.07763  0.70679  0.60955  1.0000
  H   H39       1.0  0.42237  0.20679  0.89045  1.0000
  H   H40       1.0  0.57763  0.20679  0.60955  1.0000
  C   C81       1.0  0.11780  0.26350  0.21217  1.0000
  C   C82       1.0  0.88220  0.26350  0.28783  1.0000
  C   C83       1.0  0.61780  0.76350  0.21217  1.0000
  C   C84       1.0  0.38220  0.76350  0.28783  1.0000
  C   C85       1.0  0.88220  0.73650  0.78783  1.0000
  C   C86       1.0  0.11780  0.73650  0.71217  1.0000
  C   C87       1.0  0.38220  0.23650  0.78783  1.0000
  C   C88       1.0  0.61780  0.23650  0.71217  1.0000
  H   H41       1.0  0.07239  0.21625  0.21265  1.0000
  H   H42       1.0  0.92761  0.21625  0.28735  1.0000
  H   H43       1.0  0.57239  0.71625  0.21265  1.0000
  H   H44       1.0  0.42761  0.71625  0.28735  1.0000
  H   H45       1.0  0.92761  0.78375  0.78735  1.0000
  H   H46       1.0  0.07239  0.78375  0.71265  1.0000
  H   H47       1.0  0.42761  0.28375  0.78735  1.0000
  H   H48       1.0  0.57239  0.28375  0.71265  1.0000
  C   C89       1.0  0.18160  0.28610  0.27496  1.0000
  C   C90       1.0  0.81840  0.28610  0.22504  1.0000
  C   C91       1.0  0.68160  0.78610  0.27496  1.0000
  C   C92       1.0  0.31840  0.78610  0.22504  1.0000
  C   C93       1.0  0.81840  0.71390  0.72504  1.0000
  C   C94       1.0  0.18160  0.71390  0.77496  1.0000
  C   C95       1.0  0.31840  0.21390  0.72504  1.0000
  C   C96       1.0  0.68160  0.21390  0.77496  1.0000
  O   O33       1.0  0.61042  0.47355  0.45870  1.0000
  O   O34       1.0  0.38958  0.47355  0.04130  1.0000
  O   O35       1.0  0.11042  0.97355  0.45870  1.0000
  O   O36       1.0  0.88958  0.97355  0.04130  1.0000
  O   O37       1.0  0.38958  0.52645  0.54130  1.0000
  O   O38       1.0  0.61042  0.52645  0.95870  1.0000
  O   O39       1.0  0.88958  0.02645  0.54130  1.0000
  O   O40       1.0  0.11042  0.02645  0.95870  1.0000
  O   O41       1.0  0.53317  0.35838  0.50005  1.0000
  O   O42       1.0  0.46683  0.35838  0.99995  1.0000
  O   O43       1.0  0.03317  0.85838  0.50005  1.0000
  O   O44       1.0  0.96683  0.85838  0.99995  1.0000
  O   O45       1.0  0.46683  0.64162  0.49995  1.0000
  O   O46       1.0  0.53317  0.64162  0.00005  1.0000
  O   O47       1.0  0.96683  0.14162  0.49995  1.0000
  O   O48       1.0  0.03317  0.14162  0.00005  1.0000
  C   C97       1.0  0.60130  0.38800  0.48307  1.0000
  C   C98       1.0  0.39870  0.38800  0.01693  1.0000
  C   C99       1.0  0.10130  0.88800  0.48307  1.0000
  C   C100      1.0  0.89870  0.88800  0.01693  1.0000
  C   C101      1.0  0.39870  0.61200  0.51693  1.0000
  C   C102      1.0  0.60130  0.61200  0.98307  1.0000
  C   C103      1.0  0.89870  0.11200  0.51693  1.0000
  C   C104      1.0  0.10130  0.11200  0.98307  1.0000
  C   C105      1.0  0.67780  0.31520  0.49150  1.0000
  C   C106      1.0  0.32220  0.31520  0.00850  1.0000
  C   C107      1.0  0.17780  0.81520  0.49150  1.0000
  C   C108      1.0  0.82220  0.81520  0.00850  1.0000
  C   C109      1.0  0.32220  0.68480  0.50850  1.0000
  C   C110      1.0  0.67780  0.68480  0.99150  1.0000
  C   C111      1.0  0.82220  0.18480  0.50850  1.0000
  C   C112      1.0  0.17780  0.18480  0.99150  1.0000
  C   C113      1.0  0.65850  0.20930  0.47400  1.0000
  C   C114      1.0  0.34150  0.20930  0.02600  1.0000
  C   C115      1.0  0.15850  0.70930  0.47400  1.0000
  C   C116      1.0  0.84150  0.70930  0.02600  1.0000
  C   C117      1.0  0.34150  0.79070  0.52600  1.0000
  C   C118      1.0  0.65850  0.79070  0.97400  1.0000
  C   C119      1.0  0.84150  0.29070  0.52600  1.0000
  C   C120      1.0  0.15850  0.29070  0.97400  1.0000
  C   C121      1.0  0.56590  0.16530  0.44670  1.0000
  C   C122      1.0  0.43410  0.16530  0.05330  1.0000
  C   C123      1.0  0.06590  0.66530  0.44670  1.0000
  C   C124      1.0  0.93410  0.66530  0.05330  1.0000
  C   C125      1.0  0.43410  0.83470  0.55330  1.0000
  C   C126      1.0  0.56590  0.83470  0.94670  1.0000
  C   C127      1.0  0.93410  0.33470  0.55330  1.0000
  C   C128      1.0  0.06590  0.33470  0.94670  1.0000
  H   H49       1.0  0.51633  0.20878  0.43939  1.0000
  H   H50       1.0  0.48367  0.20878  0.06061  1.0000
  H   H51       1.0  0.01633  0.70878  0.43939  1.0000
  H   H52       1.0  0.98367  0.70878  0.06061  1.0000
  H   H53       1.0  0.48367  0.79122  0.56061  1.0000
  H   H54       1.0  0.51633  0.79122  0.93939  1.0000
  H   H55       1.0  0.98367  0.29122  0.56061  1.0000
  H   H56       1.0  0.01633  0.29122  0.93939  1.0000
  C   C129      1.0  0.55260  0.06030  0.43180  1.0000
  C   C130      1.0  0.44740  0.06030  0.06820  1.0000
  C   C131      1.0  0.05260  0.56030  0.43180  1.0000
  C   C132      1.0  0.94740  0.56030  0.06820  1.0000
  C   C133      1.0  0.44740  0.93970  0.56820  1.0000
  C   C134      1.0  0.55260  0.93970  0.93180  1.0000
  C   C135      1.0  0.94740  0.43970  0.56820  1.0000
  C   C136      1.0  0.05260  0.43970  0.93180  1.0000
  H   H57       1.0  0.49422  0.03521  0.41579  1.0000
  H   H58       1.0  0.50578  0.03521  0.08421  1.0000
  H   H59       1.0  0.99422  0.53521  0.41579  1.0000
  H   H60       1.0  0.00578  0.53521  0.08421  1.0000
  H   H61       1.0  0.50578  0.96479  0.58421  1.0000
  H   H62       1.0  0.49422  0.96479  0.91579  1.0000
  H   H63       1.0  0.00578  0.46479  0.58421  1.0000
  H   H64       1.0  0.99422  0.46479  0.91579  1.0000
  C   C137      1.0  0.62200  0.99510  0.44000  1.0000
  C   C138      1.0  0.37800  0.99510  0.06000  1.0000
  C   C139      1.0  0.12200  0.49510  0.44000  1.0000
  C   C140      1.0  0.87800  0.49510  0.06000  1.0000
  C   C141      1.0  0.37800  0.00490  0.56000  1.0000
  C   C142      1.0  0.62200  0.00490  0.94000  1.0000
  C   C143      1.0  0.87800  0.50490  0.56000  1.0000
  C   C144      1.0  0.12200  0.50490  0.94000  1.0000
  H   H65       1.0  0.61117  0.92511  0.43168  1.0000
  H   H66       1.0  0.38883  0.92511  0.06832  1.0000
  H   H67       1.0  0.11117  0.42511  0.43168  1.0000
  H   H68       1.0  0.88883  0.42511  0.06832  1.0000
  H   H69       1.0  0.38883  0.07489  0.56832  1.0000
  H   H70       1.0  0.61117  0.07489  0.93168  1.0000
  H   H71       1.0  0.88883  0.57489  0.56832  1.0000
  H   H72       1.0  0.11117  0.57489  0.93168  1.0000
  C   C145      1.0  0.71110  0.03130  0.46130  1.0000
  C   C146      1.0  0.28890  0.03130  0.03870  1.0000
  C   C147      1.0  0.21110  0.53130  0.46130  1.0000
  C   C148      1.0  0.78890  0.53130  0.03870  1.0000
  C   C149      1.0  0.28890  0.96870  0.53870  1.0000
  C   C150      1.0  0.71110  0.96870  0.96130  1.0000
  C   C151      1.0  0.78890  0.46870  0.53870  1.0000
  C   C152      1.0  0.21110  0.46870  0.96130  1.0000
  H   H73       1.0  0.75821  0.98578  0.46252  1.0000
  H   H74       1.0  0.24179  0.98578  0.03748  1.0000
  H   H75       1.0  0.25821  0.48578  0.46252  1.0000
  H   H76       1.0  0.74179  0.48578  0.03748  1.0000
  H   H77       1.0  0.24179  0.01422  0.53748  1.0000
  H   H78       1.0  0.75821  0.01422  0.96252  1.0000
  H   H79       1.0  0.74179  0.51422  0.53748  1.0000
  H   H80       1.0  0.25821  0.51422  0.96252  1.0000
  C   C153      1.0  0.73190  0.14130  0.48190  1.0000
  C   C154      1.0  0.26810  0.14130  0.01810  1.0000
  C   C155      1.0  0.23190  0.64130  0.48190  1.0000
  C   C156      1.0  0.76810  0.64130  0.01810  1.0000
  C   C157      1.0  0.26810  0.85870  0.51810  1.0000
  C   C158      1.0  0.73190  0.85870  0.98190  1.0000
  C   C159      1.0  0.76810  0.35870  0.51810  1.0000
  C   C160      1.0  0.23190  0.35870  0.98190  1.0000
