data_image0
_chemical_formula_structural       Ag16C16H8C8H8C16H24C8H16C16H16C16H16C8N8H16N24O48
_chemical_formula_sum              "Ag16 C88 H104 N32 O48"
_cell_length_a       24.864
_cell_length_b       10.098
_cell_length_c       15.504
_cell_angle_alpha    90
_cell_angle_beta     90
_cell_angle_gamma    90

_space_group_name_H-M_alt    "P 1"
_space_group_IT_number       1

loop_
  _space_group_symop_operation_xyz
  'x, y, z'

loop_
  _atom_site_type_symbol
  _atom_site_label
  _atom_site_symmetry_multiplicity
  _atom_site_fract_x
  _atom_site_fract_y
  _atom_site_fract_z
  _atom_site_occupancy
  Ag  Ag1       1.0  0.55120  0.47561  0.29244  1.0000
  Ag  Ag2       1.0  0.94880  0.02439  0.29244  1.0000
  Ag  Ag3       1.0  0.44880  0.97561  0.20756  1.0000
  Ag  Ag4       1.0  0.05120  0.52439  0.20756  1.0000
  Ag  Ag5       1.0  0.44880  0.52439  0.70756  1.0000
  Ag  Ag6       1.0  0.05120  0.97561  0.70756  1.0000
  Ag  Ag7       1.0  0.55120  0.02439  0.79244  1.0000
  Ag  Ag8       1.0  0.94880  0.47561  0.79244  1.0000
  Ag  Ag9       1.0  0.46894  0.90450  0.56901  1.0000
  Ag  Ag10      1.0  0.03106  0.59550  0.56901  1.0000
  Ag  Ag11      1.0  0.53106  0.40450  0.93099  1.0000
  Ag  Ag12      1.0  0.96894  0.09550  0.93099  1.0000
  Ag  Ag13      1.0  0.53106  0.09550  0.43099  1.0000
  Ag  Ag14      1.0  0.96894  0.40450  0.43099  1.0000
  Ag  Ag15      1.0  0.46894  0.59550  0.06901  1.0000
  Ag  Ag16      1.0  0.03106  0.90450  0.06901  1.0000
  C   C1        1.0  0.49687  0.66410  0.42720  1.0000
  C   C2        1.0  0.00313  0.83590  0.42720  1.0000
  C   C3        1.0  0.50313  0.16410  0.07280  1.0000
  C   C4        1.0  0.99687  0.33590  0.07280  1.0000
  C   C5        1.0  0.50313  0.33590  0.57280  1.0000
  C   C6        1.0  0.99687  0.16410  0.57280  1.0000
  C   C7        1.0  0.49687  0.83590  0.92720  1.0000
  C   C8        1.0  0.00313  0.66410  0.92720  1.0000
  C   C9        1.0  0.41724  0.63580  0.49830  1.0000
  C   C10       1.0  0.08276  0.86420  0.49830  1.0000
  C   C11       1.0  0.58276  0.13580  0.00170  1.0000
  C   C12       1.0  0.91724  0.36420  0.00170  1.0000
  C   C13       1.0  0.58276  0.36420  0.50170  1.0000
  C   C14       1.0  0.91724  0.13580  0.50170  1.0000
  C   C15       1.0  0.41724  0.86420  0.99830  1.0000
  C   C16       1.0  0.08276  0.63580  0.99830  1.0000
  H   H1        1.0  0.39220  0.66390  0.53890  1.0000
  H   H2        1.0  0.10780  0.83610  0.53890  1.0000
  H   H3        1.0  0.60780  0.16390  0.96110  1.0000
  H   H4        1.0  0.89220  0.33610  0.96110  1.0000
  H   H5        1.0  0.60780  0.33610  0.46110  1.0000
  H   H6        1.0  0.89220  0.16390  0.46110  1.0000
  H   H7        1.0  0.39220  0.83610  0.03890  1.0000
  H   H8        1.0  0.10780  0.66390  0.03890  1.0000
  C   C17       1.0  0.40720  0.52150  0.45480  1.0000
  C   C18       1.0  0.09280  0.97850  0.45480  1.0000
  C   C19       1.0  0.59280  0.02150  0.04520  1.0000
  C   C20       1.0  0.90720  0.47850  0.04520  1.0000
  C   C21       1.0  0.59280  0.47850  0.54520  1.0000
  C   C22       1.0  0.90720  0.02150  0.54520  1.0000
  C   C23       1.0  0.40720  0.97850  0.95480  1.0000
  C   C24       1.0  0.09280  0.52150  0.95480  1.0000
  H   H9        1.0  0.37600  0.47300  0.46490  1.0000
  H   H10       1.0  0.12400  0.02700  0.46490  1.0000
  H   H11       1.0  0.62400  0.97300  0.03510  1.0000
  H   H12       1.0  0.87600  0.52700  0.03510  1.0000
  H   H13       1.0  0.62400  0.52700  0.53510  1.0000
  H   H14       1.0  0.87600  0.97300  0.53510  1.0000
  H   H15       1.0  0.37600  0.02700  0.96490  1.0000
  H   H16       1.0  0.12400  0.47300  0.96490  1.0000
  C   C25       1.0  0.44493  0.47930  0.39460  1.0000
  C   C26       1.0  0.05507  0.02070  0.39460  1.0000
  C   C27       1.0  0.55507  0.97930  0.10540  1.0000
  C   C28       1.0  0.94493  0.52070  0.10540  1.0000
  C   C29       1.0  0.55507  0.52070  0.60540  1.0000
  C   C30       1.0  0.94493  0.97930  0.60540  1.0000
  C   C31       1.0  0.44493  0.02070  0.89460  1.0000
  C   C32       1.0  0.05507  0.47930  0.89460  1.0000
  C   C33       1.0  0.43760  0.35750  0.34240  1.0000
  C   C34       1.0  0.06240  0.14250  0.34240  1.0000
  C   C35       1.0  0.56240  0.85750  0.15760  1.0000
  C   C36       1.0  0.93760  0.64250  0.15760  1.0000
  C   C37       1.0  0.56240  0.64250  0.65760  1.0000
  C   C38       1.0  0.93760  0.85750  0.65760  1.0000
  C   C39       1.0  0.43760  0.14250  0.84240  1.0000
  C   C40       1.0  0.06240  0.35750  0.84240  1.0000
  H   H17       1.0  0.46780  0.29970  0.35080  1.0000
  H   H18       1.0  0.03220  0.20030  0.35080  1.0000
  H   H19       1.0  0.53220  0.79970  0.14920  1.0000
  H   H20       1.0  0.96780  0.70030  0.14920  1.0000
  H   H21       1.0  0.53220  0.70030  0.64920  1.0000
  H   H22       1.0  0.96780  0.79970  0.64920  1.0000
  H   H23       1.0  0.46780  0.20030  0.85080  1.0000
  H   H24       1.0  0.03220  0.29970  0.85080  1.0000
  H   H25       1.0  0.40520  0.31320  0.36000  1.0000
  H   H26       1.0  0.09480  0.18680  0.36000  1.0000
  H   H27       1.0  0.59480  0.81320  0.14000  1.0000
  H   H28       1.0  0.90520  0.68680  0.14000  1.0000
  H   H29       1.0  0.59480  0.68680  0.64000  1.0000
  H   H30       1.0  0.90520  0.81320  0.64000  1.0000
  H   H31       1.0  0.40520  0.18680  0.86000  1.0000
  H   H32       1.0  0.09480  0.31320  0.86000  1.0000
  H   H33       1.0  0.43500  0.38070  0.28250  1.0000
  H   H34       1.0  0.06500  0.11930  0.28250  1.0000
  H   H35       1.0  0.56500  0.88070  0.21750  1.0000
  H   H36       1.0  0.93500  0.61930  0.21750  1.0000
  H   H37       1.0  0.56500  0.61930  0.71750  1.0000
  H   H38       1.0  0.93500  0.88070  0.71750  1.0000
  H   H39       1.0  0.43500  0.11930  0.78250  1.0000
  H   H40       1.0  0.06500  0.38070  0.78250  1.0000
  C   C41       1.0  0.62820  0.27740  0.19990  1.0000
  C   C42       1.0  0.87180  0.22260  0.19990  1.0000
  C   C43       1.0  0.37180  0.77740  0.30010  1.0000
  C   C44       1.0  0.12820  0.72260  0.30010  1.0000
  C   C45       1.0  0.37180  0.72260  0.80010  1.0000
  C   C46       1.0  0.12820  0.77740  0.80010  1.0000
  C   C47       1.0  0.62820  0.22260  0.69990  1.0000
  C   C48       1.0  0.87180  0.27740  0.69990  1.0000
  H   H41       1.0  0.66340  0.24900  0.18030  1.0000
  H   H42       1.0  0.83660  0.25100  0.18030  1.0000
  H   H43       1.0  0.33660  0.74900  0.31970  1.0000
  H   H44       1.0  0.16340  0.75100  0.31970  1.0000
  H   H45       1.0  0.33660  0.75100  0.81970  1.0000
  H   H46       1.0  0.16340  0.74900  0.81970  1.0000
  H   H47       1.0  0.66340  0.25100  0.68030  1.0000
  H   H48       1.0  0.83660  0.24900  0.68030  1.0000
  H   H49       1.0  0.60350  0.26970  0.15170  1.0000
  H   H50       1.0  0.89650  0.23030  0.15170  1.0000
  H   H51       1.0  0.39650  0.76970  0.34830  1.0000
  H   H52       1.0  0.10350  0.73030  0.34830  1.0000
  H   H53       1.0  0.39650  0.73030  0.84830  1.0000
  H   H54       1.0  0.10350  0.76970  0.84830  1.0000
  H   H55       1.0  0.60350  0.23030  0.65170  1.0000
  H   H56       1.0  0.89650  0.26970  0.65170  1.0000
  C   C49       1.0  0.60960  0.18520  0.27180  1.0000
  C   C50       1.0  0.89040  0.31480  0.27180  1.0000
  C   C51       1.0  0.39040  0.68520  0.22820  1.0000
  C   C52       1.0  0.10960  0.81480  0.22820  1.0000
  C   C53       1.0  0.39040  0.81480  0.72820  1.0000
  C   C54       1.0  0.10960  0.68520  0.72820  1.0000
  C   C55       1.0  0.60960  0.31480  0.77180  1.0000
  C   C56       1.0  0.89040  0.18520  0.77180  1.0000
  C   C57       1.0  0.67652  0.43560  0.28680  1.0000
  C   C58       1.0  0.82348  0.06440  0.28680  1.0000
  C   C59       1.0  0.32348  0.93560  0.21320  1.0000
  C   C60       1.0  0.17652  0.56440  0.21320  1.0000
  C   C61       1.0  0.32348  0.56440  0.71320  1.0000
  C   C62       1.0  0.17652  0.93560  0.71320  1.0000
  C   C63       1.0  0.67652  0.06440  0.78680  1.0000
  C   C64       1.0  0.82348  0.43560  0.78680  1.0000
  H   H57       1.0  0.70980  0.43210  0.25430  1.0000
  H   H58       1.0  0.79020  0.06790  0.25430  1.0000
  H   H59       1.0  0.29020  0.93210  0.24570  1.0000
  H   H60       1.0  0.20980  0.56790  0.24570  1.0000
  H   H61       1.0  0.29020  0.56790  0.74570  1.0000
  H   H62       1.0  0.20980  0.93210  0.74570  1.0000
  H   H63       1.0  0.70980  0.06790  0.75430  1.0000
  H   H64       1.0  0.79020  0.43210  0.75430  1.0000
  H   H65       1.0  0.67670  0.36180  0.32690  1.0000
  H   H66       1.0  0.82330  0.13820  0.32690  1.0000
  H   H67       1.0  0.32330  0.86180  0.17310  1.0000
  H   H68       1.0  0.17670  0.63820  0.17310  1.0000
  H   H69       1.0  0.32330  0.63820  0.67310  1.0000
  H   H70       1.0  0.17670  0.86180  0.67310  1.0000
  H   H71       1.0  0.67670  0.13820  0.82690  1.0000
  H   H72       1.0  0.82330  0.36180  0.82690  1.0000
  C   C65       1.0  0.67560  0.56280  0.33810  1.0000
  C   C66       1.0  0.82440  0.93720  0.33810  1.0000
  C   C67       1.0  0.32440  0.06280  0.16190  1.0000
  C   C68       1.0  0.17560  0.43720  0.16190  1.0000
  C   C69       1.0  0.32440  0.43720  0.66190  1.0000
  C   C70       1.0  0.17560  0.06280  0.66190  1.0000
  C   C71       1.0  0.67560  0.93720  0.83810  1.0000
  C   C72       1.0  0.82440  0.56280  0.83810  1.0000
  C   C73       1.0  0.63785  0.50130  0.14910  1.0000
  C   C74       1.0  0.86215  0.99870  0.14910  1.0000
  C   C75       1.0  0.36215  0.00130  0.35090  1.0000
  C   C76       1.0  0.13785  0.49870  0.35090  1.0000
  C   C77       1.0  0.36215  0.49870  0.85090  1.0000
  C   C78       1.0  0.13785  0.00130  0.85090  1.0000
  C   C79       1.0  0.63785  0.99870  0.64910  1.0000
  C   C80       1.0  0.86215  0.50130  0.64910  1.0000
  H   H73       1.0  0.66590  0.46370  0.11320  1.0000
  H   H74       1.0  0.83410  0.03630  0.11320  1.0000
  H   H75       1.0  0.33410  0.96370  0.38680  1.0000
  H   H76       1.0  0.16590  0.53630  0.38680  1.0000
  H   H77       1.0  0.33410  0.53630  0.88680  1.0000
  H   H78       1.0  0.16590  0.96370  0.88680  1.0000
  H   H79       1.0  0.66590  0.03630  0.61320  1.0000
  H   H80       1.0  0.83410  0.46370  0.61320  1.0000
  H   H81       1.0  0.64960  0.58880  0.16690  1.0000
  H   H82       1.0  0.85040  0.91120  0.16690  1.0000
  H   H83       1.0  0.35040  0.08880  0.33310  1.0000
  H   H84       1.0  0.14960  0.41120  0.33310  1.0000
  H   H85       1.0  0.35040  0.41120  0.83310  1.0000
  H   H86       1.0  0.14960  0.08880  0.83310  1.0000
  H   H87       1.0  0.64960  0.91120  0.66690  1.0000
  H   H88       1.0  0.85040  0.58880  0.66690  1.0000
  C   C81       1.0  0.58674  0.51500  0.09560  1.0000
  C   C82       1.0  0.91326  0.98500  0.09560  1.0000
  C   C83       1.0  0.41326  0.01500  0.40440  1.0000
  C   C84       1.0  0.08674  0.48500  0.40440  1.0000
  C   C85       1.0  0.41326  0.48500  0.90440  1.0000
  C   C86       1.0  0.08674  0.01500  0.90440  1.0000
  C   C87       1.0  0.58674  0.98500  0.59560  1.0000
  C   C88       1.0  0.91326  0.51500  0.59560  1.0000
  N   N1        1.0  0.54199  0.73420  0.41490  1.0000
  N   N2        1.0  0.95801  0.76580  0.41490  1.0000
  N   N3        1.0  0.45801  0.23420  0.08510  1.0000
  N   N4        1.0  0.04199  0.26580  0.08510  1.0000
  N   N5        1.0  0.45801  0.26580  0.58510  1.0000
  N   N6        1.0  0.04199  0.23420  0.58510  1.0000
  N   N7        1.0  0.54199  0.76580  0.91490  1.0000
  N   N8        1.0  0.95801  0.73420  0.91490  1.0000
  H   H89       1.0  0.54740  0.80560  0.44390  1.0000
  H   H90       1.0  0.95260  0.69440  0.44390  1.0000
  H   H91       1.0  0.45260  0.30560  0.05610  1.0000
  H   H92       1.0  0.04740  0.19440  0.05610  1.0000
  H   H93       1.0  0.45260  0.19440  0.55610  1.0000
  H   H94       1.0  0.04740  0.30560  0.55610  1.0000
  H   H95       1.0  0.54740  0.69440  0.94390  1.0000
  H   H96       1.0  0.95260  0.80560  0.94390  1.0000
  H   H97       1.0  0.56550  0.70780  0.37810  1.0000
  H   H98       1.0  0.93450  0.79220  0.37810  1.0000
  H   H99       1.0  0.43450  0.20780  0.12190  1.0000
  H   H100      1.0  0.06550  0.29220  0.12190  1.0000
  H   H101      1.0  0.43450  0.29220  0.62190  1.0000
  H   H102      1.0  0.06550  0.20780  0.62190  1.0000
  H   H103      1.0  0.56550  0.79220  0.87810  1.0000
  H   H104      1.0  0.93450  0.70780  0.87810  1.0000
  N   N9        1.0  0.46138  0.71020  0.48580  1.0000
  N   N10       1.0  0.03862  0.78980  0.48580  1.0000
  N   N11       1.0  0.53862  0.21020  0.01420  1.0000
  N   N12       1.0  0.96138  0.28980  0.01420  1.0000
  N   N13       1.0  0.53862  0.28980  0.51420  1.0000
  N   N14       1.0  0.96138  0.21020  0.51420  1.0000
  N   N15       1.0  0.46138  0.78980  0.98580  1.0000
  N   N16       1.0  0.03862  0.71020  0.98580  1.0000
  N   N17       1.0  0.48987  0.55120  0.38080  1.0000
  N   N18       1.0  0.01013  0.94880  0.38080  1.0000
  N   N19       1.0  0.51013  0.05120  0.11920  1.0000
  N   N20       1.0  0.98987  0.44880  0.11920  1.0000
  N   N21       1.0  0.51013  0.44880  0.61920  1.0000
  N   N22       1.0  0.98987  0.05120  0.61920  1.0000
  N   N23       1.0  0.48987  0.94880  0.88080  1.0000
  N   N24       1.0  0.01013  0.55120  0.88080  1.0000
  N   N25       1.0  0.63125  0.41780  0.22640  1.0000
  N   N26       1.0  0.86875  0.08220  0.22640  1.0000
  N   N27       1.0  0.36875  0.91780  0.27360  1.0000
  N   N28       1.0  0.13125  0.58220  0.27360  1.0000
  N   N29       1.0  0.36875  0.58220  0.77360  1.0000
  N   N30       1.0  0.13125  0.91780  0.77360  1.0000
  N   N31       1.0  0.63125  0.08220  0.72640  1.0000
  N   N32       1.0  0.86875  0.41780  0.72640  1.0000
  O   O1        1.0  0.57463  0.22620  0.32260  1.0000
  O   O2        1.0  0.92537  0.27380  0.32260  1.0000
  O   O3        1.0  0.42537  0.72620  0.17740  1.0000
  O   O4        1.0  0.07463  0.77380  0.17740  1.0000
  O   O5        1.0  0.42537  0.77380  0.67740  1.0000
  O   O6        1.0  0.07463  0.72620  0.67740  1.0000
  O   O7        1.0  0.57463  0.27380  0.82260  1.0000
  O   O8        1.0  0.92537  0.22620  0.82260  1.0000
  O   O9        1.0  0.62969  0.07110  0.27150  1.0000
  O   O10       1.0  0.87031  0.42890  0.27150  1.0000
  O   O11       1.0  0.37031  0.57110  0.22850  1.0000
  O   O12       1.0  0.12969  0.92890  0.22850  1.0000
  O   O13       1.0  0.37031  0.92890  0.72850  1.0000
  O   O14       1.0  0.12969  0.57110  0.72850  1.0000
  O   O15       1.0  0.62969  0.42890  0.77150  1.0000
  O   O16       1.0  0.87031  0.07110  0.77150  1.0000
  O   O17       1.0  0.71304  0.57490  0.39420  1.0000
  O   O18       1.0  0.78696  0.92510  0.39420  1.0000
  O   O19       1.0  0.28696  0.07490  0.10580  1.0000
  O   O20       1.0  0.21304  0.42510  0.10580  1.0000
  O   O21       1.0  0.28696  0.42510  0.60580  1.0000
  O   O22       1.0  0.21304  0.07490  0.60580  1.0000
  O   O23       1.0  0.71304  0.92510  0.89420  1.0000
  O   O24       1.0  0.78696  0.57490  0.89420  1.0000
  O   O25       1.0  0.63967  0.64530  0.32700  1.0000
  O   O26       1.0  0.86033  0.85470  0.32700  1.0000
  O   O27       1.0  0.36033  0.14530  0.17300  1.0000
  O   O28       1.0  0.13967  0.35470  0.17300  1.0000
  O   O29       1.0  0.36033  0.35470  0.67300  1.0000
  O   O30       1.0  0.13967  0.14530  0.67300  1.0000
  O   O31       1.0  0.63967  0.85470  0.82700  1.0000
  O   O32       1.0  0.86033  0.64530  0.82700  1.0000
  O   O33       1.0  0.54216  0.50180  0.13360  1.0000
  O   O34       1.0  0.95784  0.99820  0.13360  1.0000
  O   O35       1.0  0.45784  0.00180  0.36640  1.0000
  O   O36       1.0  0.04216  0.49820  0.36640  1.0000
  O   O37       1.0  0.45784  0.49820  0.86640  1.0000
  O   O38       1.0  0.04216  0.00180  0.86640  1.0000
  O   O39       1.0  0.54216  0.99820  0.63360  1.0000
  O   O40       1.0  0.95784  0.50180  0.63360  1.0000
  O   O41       1.0  0.59236  0.54360  0.01720  1.0000
  O   O42       1.0  0.90764  0.95640  0.01720  1.0000
  O   O43       1.0  0.40764  0.04360  0.48280  1.0000
  O   O44       1.0  0.09236  0.45640  0.48280  1.0000
  O   O45       1.0  0.40764  0.45640  0.98280  1.0000
  O   O46       1.0  0.09236  0.04360  0.98280  1.0000
  O   O47       1.0  0.59236  0.95640  0.51720  1.0000
  O   O48       1.0  0.90764  0.54360  0.51720  1.0000
