data_image0
_chemical_formula_structural       Mg8O48C4H4C4H4C4H4C4H4C4H4C4H4
_chemical_formula_sum              "Mg8 O48 C24 H24"
_cell_length_a       12.1246
_cell_length_b       12.2087
_cell_length_c       12.4991
_cell_angle_alpha    90
_cell_angle_beta     91.394
_cell_angle_gamma    90

_space_group_name_H-M_alt    "P 1"
_space_group_IT_number       1

loop_
  _space_group_symop_operation_xyz
  'x, y, z'

loop_
  _atom_site_type_symbol
  _atom_site_label
  _atom_site_symmetry_multiplicity
  _atom_site_fract_x
  _atom_site_fract_y
  _atom_site_fract_z
  _atom_site_occupancy
  Mg  Mg1       1.0  0.25858  0.24887  0.99422  1.0000
  Mg  Mg2       1.0  0.24142  0.74887  0.50578  1.0000
  Mg  Mg3       1.0  0.74142  0.75113  0.00578  1.0000
  Mg  Mg4       1.0  0.75858  0.25113  0.49422  1.0000
  Mg  Mg5       1.0  0.75857  0.25082  0.99518  1.0000
  Mg  Mg6       1.0  0.74143  0.75082  0.50482  1.0000
  Mg  Mg7       1.0  0.24143  0.74918  0.00482  1.0000
  Mg  Mg8       1.0  0.25857  0.24918  0.49518  1.0000
  O   O1        1.0  0.91933  0.19522  0.02680  1.0000
  O   O2        1.0  0.58067  0.69522  0.47320  1.0000
  O   O3        1.0  0.08067  0.80478  0.97320  1.0000
  O   O4        1.0  0.41933  0.30478  0.52680  1.0000
  O   O5        1.0  0.41881  0.29986  0.98601  1.0000
  O   O6        1.0  0.08119  0.79986  0.51399  1.0000
  O   O7        1.0  0.58119  0.70014  0.01399  1.0000
  O   O8        1.0  0.91881  0.20014  0.48601  1.0000
  O   O9        1.0  0.20258  0.40913  0.98351  1.0000
  O   O10       1.0  0.29742  0.90913  0.51649  1.0000
  O   O11       1.0  0.79742  0.59087  0.01649  1.0000
  O   O12       1.0  0.70258  0.09087  0.48351  1.0000
  O   O13       1.0  0.31446  0.08904  0.00123  1.0000
  O   O14       1.0  0.18554  0.58904  0.49877  1.0000
  O   O15       1.0  0.68554  0.91096  0.99877  1.0000
  O   O16       1.0  0.81446  0.41096  0.50123  1.0000
  O   O17       1.0  0.28581  0.26378  0.15881  1.0000
  O   O18       1.0  0.21419  0.76378  0.34119  1.0000
  O   O19       1.0  0.71419  0.73622  0.84119  1.0000
  O   O20       1.0  0.78581  0.23622  0.65881  1.0000
  O   O21       1.0  0.10070  0.19345  0.02080  1.0000
  O   O22       1.0  0.39930  0.69345  0.47920  1.0000
  O   O23       1.0  0.89930  0.80655  0.97920  1.0000
  O   O24       1.0  0.60070  0.30655  0.52080  1.0000
  O   O25       1.0  0.73514  0.24065  0.15742  1.0000
  O   O26       1.0  0.76486  0.74065  0.34258  1.0000
  O   O27       1.0  0.26486  0.75935  0.84258  1.0000
  O   O28       1.0  0.23514  0.25935  0.65742  1.0000
  O   O29       1.0  0.59906  0.30154  0.97151  1.0000
  O   O30       1.0  0.90094  0.80154  0.52849  1.0000
  O   O31       1.0  0.40094  0.69846  0.02849  1.0000
  O   O32       1.0  0.09906  0.19846  0.47151  1.0000
  O   O33       1.0  0.28891  0.25709  0.33416  1.0000
  O   O34       1.0  0.21109  0.75709  0.16584  1.0000
  O   O35       1.0  0.71109  0.74291  0.66584  1.0000
  O   O36       1.0  0.78891  0.24291  0.83416  1.0000
  O   O37       1.0  0.19079  0.58928  0.99070  1.0000
  O   O38       1.0  0.30921  0.08928  0.50930  1.0000
  O   O39       1.0  0.80921  0.41072  0.00930  1.0000
  O   O40       1.0  0.69079  0.91072  0.49070  1.0000
  O   O41       1.0  0.29248  0.91095  0.01761  1.0000
  O   O42       1.0  0.20752  0.41095  0.48239  1.0000
  O   O43       1.0  0.70752  0.08905  0.98239  1.0000
  O   O44       1.0  0.79248  0.58905  0.51761  1.0000
  O   O45       1.0  0.72880  0.25011  0.33198  1.0000
  O   O46       1.0  0.77120  0.75011  0.16802  1.0000
  O   O47       1.0  0.27120  0.74989  0.66802  1.0000
  O   O48       1.0  0.22880  0.24989  0.83198  1.0000
  C   C1        1.0  0.00940  0.22560  0.99120  1.0000
  C   C2        1.0  0.49060  0.72560  0.50880  1.0000
  C   C3        1.0  0.99060  0.77440  0.00880  1.0000
  C   C4        1.0  0.50940  0.27440  0.49120  1.0000
  H   H1        1.0  0.00710  0.27770  0.93690  1.0000
  H   H2        1.0  0.49290  0.77770  0.56310  1.0000
  H   H3        1.0  0.99290  0.72230  0.06310  1.0000
  H   H4        1.0  0.50710  0.22230  0.43690  1.0000
  C   C5        1.0  0.75590  0.28250  0.24360  1.0000
  C   C6        1.0  0.74410  0.78250  0.25640  1.0000
  C   C7        1.0  0.24410  0.71750  0.75640  1.0000
  C   C8        1.0  0.25590  0.21750  0.74360  1.0000
  H   H5        1.0  0.79720  0.34670  0.24250  1.0000
  H   H6        1.0  0.70280  0.84670  0.25750  1.0000
  H   H7        1.0  0.20280  0.65330  0.75750  1.0000
  H   H8        1.0  0.29720  0.15330  0.74250  1.0000
  C   C9        1.0  0.27320  0.99920  0.97610  1.0000
  C   C10       1.0  0.22680  0.49920  0.52390  1.0000
  C   C11       1.0  0.72680  0.00080  0.02390  1.0000
  C   C12       1.0  0.77320  0.50080  0.47610  1.0000
  H   H9        1.0  0.22220  0.99940  0.91940  1.0000
  H   H10       1.0  0.27780  0.49940  0.58060  1.0000
  H   H11       1.0  0.77780  0.00060  0.08060  1.0000
  H   H12       1.0  0.72220  0.50060  0.41940  1.0000
  C   C13       1.0  0.23270  0.50100  0.01640  1.0000
  C   C14       1.0  0.26730  0.00100  0.48360  1.0000
  C   C15       1.0  0.76730  0.49900  0.98360  1.0000
  C   C16       1.0  0.73270  0.99900  0.51640  1.0000
  H   H13       1.0  0.29230  0.50310  0.06470  1.0000
  H   H14       1.0  0.20770  0.00310  0.43530  1.0000
  H   H15       1.0  0.70770  0.49690  0.93530  1.0000
  H   H16       1.0  0.79230  0.99690  0.56470  1.0000
  C   C17       1.0  0.25620  0.22700  0.24540  1.0000
  C   C18       1.0  0.24380  0.72700  0.25460  1.0000
  C   C19       1.0  0.74380  0.77300  0.75460  1.0000
  C   C20       1.0  0.75620  0.27300  0.74540  1.0000
  H   H17       1.0  0.20400  0.17120  0.24310  1.0000
  H   H18       1.0  0.29600  0.67120  0.25690  1.0000
  H   H19       1.0  0.79600  0.82880  0.75690  1.0000
  H   H20       1.0  0.70400  0.32880  0.74310  1.0000
  C   C21       1.0  0.50660  0.26250  0.95930  1.0000
  C   C22       1.0  0.99340  0.76250  0.54070  1.0000
  C   C23       1.0  0.49340  0.73750  0.04070  1.0000
  C   C24       1.0  0.00660  0.23750  0.45930  1.0000
  H   H21       1.0  0.50320  0.19500  0.92500  1.0000
  H   H22       1.0  0.99680  0.69500  0.57500  1.0000
  H   H23       1.0  0.49680  0.80500  0.07500  1.0000
  H   H24       1.0  0.00320  0.30500  0.42500  1.0000
