data_image0
_chemical_formula_structural       Mn2Fe2O24C12H12
_chemical_formula_sum              "Mn2 Fe2 O24 C12 H12"
_cell_length_a       8.2777
_cell_length_b       8.2777
_cell_length_c       13.8953
_cell_angle_alpha    90
_cell_angle_beta     90
_cell_angle_gamma    120

_space_group_name_H-M_alt    "P 1"
_space_group_IT_number       1

loop_
  _space_group_symop_operation_xyz
  'x, y, z'

loop_
  _atom_site_type_symbol
  _atom_site_label
  _atom_site_symmetry_multiplicity
  _atom_site_fract_x
  _atom_site_fract_y
  _atom_site_fract_z
  _atom_site_occupancy
  Mn  Mn1       1.0  0.66670  0.33330  0.25000  1.0000
  Mn  Mn2       1.0  0.33330  0.66670  0.75000  1.0000
  Fe  Fe1       1.0  0.00000  0.00000  0.00000  1.0000
  Fe  Fe2       1.0  0.00000  0.00000  0.50000  1.0000
  O   O1        1.0  0.88959  0.34272  0.16592  1.0000
  O   O2        1.0  0.65728  0.54687  0.16592  1.0000
  O   O3        1.0  0.45313  0.11041  0.16592  1.0000
  O   O4        1.0  0.65728  0.11041  0.33408  1.0000
  O   O5        1.0  0.45313  0.34272  0.33408  1.0000
  O   O6        1.0  0.88959  0.54687  0.33408  1.0000
  O   O7        1.0  0.11041  0.65728  0.83408  1.0000
  O   O8        1.0  0.34272  0.45313  0.83408  1.0000
  O   O9        1.0  0.54687  0.88959  0.83408  1.0000
  O   O10       1.0  0.34272  0.88959  0.66592  1.0000
  O   O11       1.0  0.54687  0.65728  0.66592  1.0000
  O   O12       1.0  0.11041  0.45313  0.66592  1.0000
  O   O13       1.0  0.01630  0.20775  0.08166  1.0000
  O   O14       1.0  0.79225  0.80855  0.08166  1.0000
  O   O15       1.0  0.19145  0.98370  0.08166  1.0000
  O   O16       1.0  0.79225  0.98370  0.41834  1.0000
  O   O17       1.0  0.19145  0.20775  0.41834  1.0000
  O   O18       1.0  0.01630  0.80855  0.41834  1.0000
  O   O19       1.0  0.98370  0.79225  0.91834  1.0000
  O   O20       1.0  0.20775  0.19145  0.91834  1.0000
  O   O21       1.0  0.80855  0.01630  0.91834  1.0000
  O   O22       1.0  0.20775  0.01630  0.58166  1.0000
  O   O23       1.0  0.80855  0.79225  0.58166  1.0000
  O   O24       1.0  0.98370  0.19145  0.58166  1.0000
  C   C1        1.0  0.87810  0.21181  0.11746  1.0000
  C   C2        1.0  0.78819  0.66629  0.11746  1.0000
  C   C3        1.0  0.33371  0.12190  0.11746  1.0000
  C   C4        1.0  0.78819  0.12190  0.38254  1.0000
  C   C5        1.0  0.33371  0.21181  0.38254  1.0000
  C   C6        1.0  0.87810  0.66629  0.38254  1.0000
  C   C7        1.0  0.12190  0.78819  0.88254  1.0000
  C   C8        1.0  0.21181  0.33371  0.88254  1.0000
  C   C9        1.0  0.66629  0.87810  0.88254  1.0000
  C   C10       1.0  0.21181  0.87810  0.61746  1.0000
  C   C11       1.0  0.66629  0.78819  0.61746  1.0000
  C   C12       1.0  0.12190  0.33371  0.61746  1.0000
  H   H1        1.0  0.76000  0.10980  0.10670  1.0000
  H   H2        1.0  0.89020  0.65020  0.10670  1.0000
  H   H3        1.0  0.34980  0.24000  0.10670  1.0000
  H   H4        1.0  0.89020  0.24000  0.39330  1.0000
  H   H5        1.0  0.34980  0.10980  0.39330  1.0000
  H   H6        1.0  0.76000  0.65020  0.39330  1.0000
  H   H7        1.0  0.24000  0.89020  0.89330  1.0000
  H   H8        1.0  0.10980  0.34980  0.89330  1.0000
  H   H9        1.0  0.65020  0.76000  0.89330  1.0000
  H   H10       1.0  0.10980  0.76000  0.60670  1.0000
  H   H11       1.0  0.65020  0.89020  0.60670  1.0000
  H   H12       1.0  0.24000  0.34980  0.60670  1.0000
