data_image0
_chemical_formula_structural       Co2Fe2O24C12H12
_chemical_formula_sum              "Co2 Fe2 O24 C12 H12"
_cell_length_a       8.2163
_cell_length_b       8.2163
_cell_length_c       13.6768
_cell_angle_alpha    90
_cell_angle_beta     90
_cell_angle_gamma    120

_space_group_name_H-M_alt    "P 1"
_space_group_IT_number       1

loop_
  _space_group_symop_operation_xyz
  'x, y, z'

loop_
  _atom_site_type_symbol
  _atom_site_label
  _atom_site_symmetry_multiplicity
  _atom_site_fract_x
  _atom_site_fract_y
  _atom_site_fract_z
  _atom_site_occupancy
  Co  Co1       1.0  0.66670  0.33330  0.25000  1.0000
  Co  Co2       1.0  0.33330  0.66670  0.75000  1.0000
  Fe  Fe1       1.0  0.00000  0.00000  0.00000  1.0000
  Fe  Fe2       1.0  0.00000  0.00000  0.50000  1.0000
  O   O1        1.0  0.88337  0.34358  0.16805  1.0000
  O   O2        1.0  0.65642  0.53979  0.16805  1.0000
  O   O3        1.0  0.46021  0.11663  0.16805  1.0000
  O   O4        1.0  0.65642  0.11663  0.33195  1.0000
  O   O5        1.0  0.46021  0.34358  0.33195  1.0000
  O   O6        1.0  0.88337  0.53979  0.33195  1.0000
  O   O7        1.0  0.11663  0.65642  0.83195  1.0000
  O   O8        1.0  0.34358  0.46021  0.83195  1.0000
  O   O9        1.0  0.53979  0.88337  0.83195  1.0000
  O   O10       1.0  0.34358  0.88337  0.66805  1.0000
  O   O11       1.0  0.53979  0.65642  0.66805  1.0000
  O   O12       1.0  0.11663  0.46021  0.66805  1.0000
  O   O13       1.0  0.01323  0.20887  0.08294  1.0000
  O   O14       1.0  0.79113  0.80436  0.08294  1.0000
  O   O15       1.0  0.19564  0.98677  0.08294  1.0000
  O   O16       1.0  0.79113  0.98677  0.41706  1.0000
  O   O17       1.0  0.19564  0.20887  0.41706  1.0000
  O   O18       1.0  0.01323  0.80436  0.41706  1.0000
  O   O19       1.0  0.98677  0.79113  0.91706  1.0000
  O   O20       1.0  0.20887  0.19564  0.91706  1.0000
  O   O21       1.0  0.80436  0.01323  0.91706  1.0000
  O   O22       1.0  0.20887  0.01323  0.58294  1.0000
  O   O23       1.0  0.80436  0.79113  0.58294  1.0000
  O   O24       1.0  0.98677  0.19564  0.58294  1.0000
  C   C1        1.0  0.87325  0.21018  0.12015  1.0000
  C   C2        1.0  0.78982  0.66307  0.12015  1.0000
  C   C3        1.0  0.33693  0.12675  0.12015  1.0000
  C   C4        1.0  0.78982  0.12675  0.37985  1.0000
  C   C5        1.0  0.33693  0.21018  0.37985  1.0000
  C   C6        1.0  0.87325  0.66307  0.37985  1.0000
  C   C7        1.0  0.12675  0.78982  0.87985  1.0000
  C   C8        1.0  0.21018  0.33693  0.87985  1.0000
  C   C9        1.0  0.66307  0.87325  0.87985  1.0000
  C   C10       1.0  0.21018  0.87325  0.62015  1.0000
  C   C11       1.0  0.66307  0.78982  0.62015  1.0000
  C   C12       1.0  0.12675  0.33693  0.62015  1.0000
  H   H1        1.0  0.75530  0.10480  0.11120  1.0000
  H   H2        1.0  0.89520  0.65050  0.11120  1.0000
  H   H3        1.0  0.34950  0.24470  0.11120  1.0000
  H   H4        1.0  0.89520  0.24470  0.38880  1.0000
  H   H5        1.0  0.34950  0.10480  0.38880  1.0000
  H   H6        1.0  0.75530  0.65050  0.38880  1.0000
  H   H7        1.0  0.24470  0.89520  0.88880  1.0000
  H   H8        1.0  0.10480  0.34950  0.88880  1.0000
  H   H9        1.0  0.65050  0.75530  0.88880  1.0000
  H   H10       1.0  0.10480  0.75530  0.61120  1.0000
  H   H11       1.0  0.65050  0.89520  0.61120  1.0000
  H   H12       1.0  0.24470  0.34950  0.61120  1.0000
