data_image0
_chemical_formula_structural       Mn2Fe2O24C12H12
_chemical_formula_sum              "Mn2 Fe2 O24 C12 H12"
_cell_length_a       8.2762
_cell_length_b       8.2762
_cell_length_c       13.8975
_cell_angle_alpha    90
_cell_angle_beta     90
_cell_angle_gamma    120

_space_group_name_H-M_alt    "P 1"
_space_group_IT_number       1

loop_
  _space_group_symop_operation_xyz
  'x, y, z'

loop_
  _atom_site_type_symbol
  _atom_site_label
  _atom_site_symmetry_multiplicity
  _atom_site_fract_x
  _atom_site_fract_y
  _atom_site_fract_z
  _atom_site_occupancy
  Mn  Mn1       1.0  0.66670  0.33330  0.25000  1.0000
  Mn  Mn2       1.0  0.33330  0.66670  0.75000  1.0000
  Fe  Fe1       1.0  0.00000  0.00000  0.00000  1.0000
  Fe  Fe2       1.0  0.00000  0.00000  0.50000  1.0000
  O   O1        1.0  0.88943  0.34262  0.16589  1.0000
  O   O2        1.0  0.65738  0.54681  0.16589  1.0000
  O   O3        1.0  0.45319  0.11057  0.16589  1.0000
  O   O4        1.0  0.65738  0.11057  0.33411  1.0000
  O   O5        1.0  0.45319  0.34262  0.33411  1.0000
  O   O6        1.0  0.88943  0.54681  0.33411  1.0000
  O   O7        1.0  0.11057  0.65738  0.83411  1.0000
  O   O8        1.0  0.34262  0.45319  0.83411  1.0000
  O   O9        1.0  0.54681  0.88943  0.83411  1.0000
  O   O10       1.0  0.34262  0.88943  0.66589  1.0000
  O   O11       1.0  0.54681  0.65738  0.66589  1.0000
  O   O12       1.0  0.11057  0.45319  0.66589  1.0000
  O   O13       1.0  0.01616  0.20787  0.08170  1.0000
  O   O14       1.0  0.79213  0.80829  0.08170  1.0000
  O   O15       1.0  0.19171  0.98384  0.08170  1.0000
  O   O16       1.0  0.79213  0.98384  0.41830  1.0000
  O   O17       1.0  0.19171  0.20787  0.41830  1.0000
  O   O18       1.0  0.01616  0.80829  0.41830  1.0000
  O   O19       1.0  0.98384  0.79213  0.91830  1.0000
  O   O20       1.0  0.20787  0.19171  0.91830  1.0000
  O   O21       1.0  0.80829  0.01616  0.91830  1.0000
  O   O22       1.0  0.20787  0.01616  0.58170  1.0000
  O   O23       1.0  0.80829  0.79213  0.58170  1.0000
  O   O24       1.0  0.98384  0.19171  0.58170  1.0000
  C   C1        1.0  0.87825  0.21158  0.11777  1.0000
  C   C2        1.0  0.78842  0.66667  0.11777  1.0000
  C   C3        1.0  0.33333  0.12175  0.11777  1.0000
  C   C4        1.0  0.78842  0.12175  0.38223  1.0000
  C   C5        1.0  0.33333  0.21158  0.38223  1.0000
  C   C6        1.0  0.87825  0.66667  0.38223  1.0000
  C   C7        1.0  0.12175  0.78842  0.88223  1.0000
  C   C8        1.0  0.21158  0.33333  0.88223  1.0000
  C   C9        1.0  0.66667  0.87825  0.88223  1.0000
  C   C10       1.0  0.21158  0.87825  0.61777  1.0000
  C   C11       1.0  0.66667  0.78842  0.61777  1.0000
  C   C12       1.0  0.12175  0.33333  0.61777  1.0000
  H   H1        1.0  0.76030  0.10900  0.10750  1.0000
  H   H2        1.0  0.89100  0.65130  0.10750  1.0000
  H   H3        1.0  0.34870  0.23970  0.10750  1.0000
  H   H4        1.0  0.89100  0.23970  0.39250  1.0000
  H   H5        1.0  0.34870  0.10900  0.39250  1.0000
  H   H6        1.0  0.76030  0.65130  0.39250  1.0000
  H   H7        1.0  0.23970  0.89100  0.89250  1.0000
  H   H8        1.0  0.10900  0.34870  0.89250  1.0000
  H   H9        1.0  0.65130  0.76030  0.89250  1.0000
  H   H10       1.0  0.10900  0.76030  0.60750  1.0000
  H   H11       1.0  0.65130  0.89100  0.60750  1.0000
  H   H12       1.0  0.23970  0.34870  0.60750  1.0000
