data_image0
_chemical_formula_structural       Co2Fe2O24C12H12
_chemical_formula_sum              "Co2 Fe2 O24 C12 H12"
_cell_length_a       8.2127
_cell_length_b       8.2127
_cell_length_c       13.6789
_cell_angle_alpha    90
_cell_angle_beta     90
_cell_angle_gamma    120

_space_group_name_H-M_alt    "P 1"
_space_group_IT_number       1

loop_
  _space_group_symop_operation_xyz
  'x, y, z'

loop_
  _atom_site_type_symbol
  _atom_site_label
  _atom_site_symmetry_multiplicity
  _atom_site_fract_x
  _atom_site_fract_y
  _atom_site_fract_z
  _atom_site_occupancy
  Co  Co1       1.0  0.66670  0.33330  0.25000  1.0000
  Co  Co2       1.0  0.33330  0.66670  0.75000  1.0000
  Fe  Fe1       1.0  0.00000  0.00000  0.00000  1.0000
  Fe  Fe2       1.0  0.00000  0.00000  0.50000  1.0000
  O   O1        1.0  0.88329  0.34337  0.16805  1.0000
  O   O2        1.0  0.65663  0.53992  0.16805  1.0000
  O   O3        1.0  0.46008  0.11671  0.16805  1.0000
  O   O4        1.0  0.65663  0.11671  0.33195  1.0000
  O   O5        1.0  0.46008  0.34337  0.33195  1.0000
  O   O6        1.0  0.88329  0.53992  0.33195  1.0000
  O   O7        1.0  0.11671  0.65663  0.83195  1.0000
  O   O8        1.0  0.34337  0.46008  0.83195  1.0000
  O   O9        1.0  0.53992  0.88329  0.83195  1.0000
  O   O10       1.0  0.34337  0.88329  0.66805  1.0000
  O   O11       1.0  0.53992  0.65663  0.66805  1.0000
  O   O12       1.0  0.11671  0.46008  0.66805  1.0000
  O   O13       1.0  0.01288  0.20887  0.08292  1.0000
  O   O14       1.0  0.79113  0.80401  0.08292  1.0000
  O   O15       1.0  0.19599  0.98712  0.08292  1.0000
  O   O16       1.0  0.79113  0.98712  0.41708  1.0000
  O   O17       1.0  0.19599  0.20887  0.41708  1.0000
  O   O18       1.0  0.01288  0.80401  0.41708  1.0000
  O   O19       1.0  0.98712  0.79113  0.91708  1.0000
  O   O20       1.0  0.20887  0.19599  0.91708  1.0000
  O   O21       1.0  0.80401  0.01288  0.91708  1.0000
  O   O22       1.0  0.20887  0.01288  0.58292  1.0000
  O   O23       1.0  0.80401  0.79113  0.58292  1.0000
  O   O24       1.0  0.98712  0.19599  0.58292  1.0000
  C   C1        1.0  0.87328  0.20974  0.12048  1.0000
  C   C2        1.0  0.79026  0.66354  0.12048  1.0000
  C   C3        1.0  0.33646  0.12672  0.12048  1.0000
  C   C4        1.0  0.79026  0.12672  0.37952  1.0000
  C   C5        1.0  0.33646  0.20974  0.37952  1.0000
  C   C6        1.0  0.87328  0.66354  0.37952  1.0000
  C   C7        1.0  0.12672  0.79026  0.87952  1.0000
  C   C8        1.0  0.20974  0.33646  0.87952  1.0000
  C   C9        1.0  0.66354  0.87328  0.87952  1.0000
  C   C10       1.0  0.20974  0.87328  0.62048  1.0000
  C   C11       1.0  0.66354  0.79026  0.62048  1.0000
  C   C12       1.0  0.12672  0.33646  0.62048  1.0000
  H   H1        1.0  0.75540  0.10380  0.11210  1.0000
  H   H2        1.0  0.89620  0.65160  0.11210  1.0000
  H   H3        1.0  0.34840  0.24460  0.11210  1.0000
  H   H4        1.0  0.89620  0.24460  0.38790  1.0000
  H   H5        1.0  0.34840  0.10380  0.38790  1.0000
  H   H6        1.0  0.75540  0.65160  0.38790  1.0000
  H   H7        1.0  0.24460  0.89620  0.88790  1.0000
  H   H8        1.0  0.10380  0.34840  0.88790  1.0000
  H   H9        1.0  0.65160  0.75540  0.88790  1.0000
  H   H10       1.0  0.10380  0.75540  0.61210  1.0000
  H   H11       1.0  0.65160  0.89620  0.61210  1.0000
  H   H12       1.0  0.24460  0.34840  0.61210  1.0000
