data_image0
_chemical_formula_structural       Co2Fe2O24C12H12
_chemical_formula_sum              "Co2 Fe2 O24 C12 H12"
_cell_length_a       8.2165
_cell_length_b       8.2165
_cell_length_c       13.6791
_cell_angle_alpha    90
_cell_angle_beta     90
_cell_angle_gamma    120

_space_group_name_H-M_alt    "P 1"
_space_group_IT_number       1

loop_
  _space_group_symop_operation_xyz
  'x, y, z'

loop_
  _atom_site_type_symbol
  _atom_site_label
  _atom_site_symmetry_multiplicity
  _atom_site_fract_x
  _atom_site_fract_y
  _atom_site_fract_z
  _atom_site_occupancy
  Co  Co1       1.0  0.66670  0.33330  0.25000  1.0000
  Co  Co2       1.0  0.33330  0.66670  0.75000  1.0000
  Fe  Fe1       1.0  0.00000  0.00000  0.00000  1.0000
  Fe  Fe2       1.0  0.00000  0.00000  0.50000  1.0000
  O   O1        1.0  0.88337  0.34344  0.16809  1.0000
  O   O2        1.0  0.65656  0.53993  0.16809  1.0000
  O   O3        1.0  0.46007  0.11663  0.16809  1.0000
  O   O4        1.0  0.65656  0.11663  0.33191  1.0000
  O   O5        1.0  0.46007  0.34344  0.33191  1.0000
  O   O6        1.0  0.88337  0.53993  0.33191  1.0000
  O   O7        1.0  0.11663  0.65656  0.83191  1.0000
  O   O8        1.0  0.34344  0.46007  0.83191  1.0000
  O   O9        1.0  0.53993  0.88337  0.83191  1.0000
  O   O10       1.0  0.34344  0.88337  0.66809  1.0000
  O   O11       1.0  0.53993  0.65656  0.66809  1.0000
  O   O12       1.0  0.11663  0.46007  0.66809  1.0000
  O   O13       1.0  0.01303  0.20890  0.08289  1.0000
  O   O14       1.0  0.79110  0.80413  0.08289  1.0000
  O   O15       1.0  0.19587  0.98697  0.08289  1.0000
  O   O16       1.0  0.79110  0.98697  0.41711  1.0000
  O   O17       1.0  0.19587  0.20890  0.41711  1.0000
  O   O18       1.0  0.01303  0.80413  0.41711  1.0000
  O   O19       1.0  0.98697  0.79110  0.91711  1.0000
  O   O20       1.0  0.20890  0.19587  0.91711  1.0000
  O   O21       1.0  0.80413  0.01303  0.91711  1.0000
  O   O22       1.0  0.20890  0.01303  0.58289  1.0000
  O   O23       1.0  0.80413  0.79110  0.58289  1.0000
  O   O24       1.0  0.98697  0.19587  0.58289  1.0000
  C   C1        1.0  0.87322  0.20984  0.12038  1.0000
  C   C2        1.0  0.79016  0.66338  0.12038  1.0000
  C   C3        1.0  0.33662  0.12678  0.12038  1.0000
  C   C4        1.0  0.79016  0.12678  0.37962  1.0000
  C   C5        1.0  0.33662  0.20984  0.37962  1.0000
  C   C6        1.0  0.87322  0.66338  0.37962  1.0000
  C   C7        1.0  0.12678  0.79016  0.87962  1.0000
  C   C8        1.0  0.20984  0.33662  0.87962  1.0000
  C   C9        1.0  0.66338  0.87322  0.87962  1.0000
  C   C10       1.0  0.20984  0.87322  0.62038  1.0000
  C   C11       1.0  0.66338  0.79016  0.62038  1.0000
  C   C12       1.0  0.12678  0.33662  0.62038  1.0000
  H   H1        1.0  0.75530  0.10410  0.11180  1.0000
  H   H2        1.0  0.89590  0.65120  0.11180  1.0000
  H   H3        1.0  0.34880  0.24470  0.11180  1.0000
  H   H4        1.0  0.89590  0.24470  0.38820  1.0000
  H   H5        1.0  0.34880  0.10410  0.38820  1.0000
  H   H6        1.0  0.75530  0.65120  0.38820  1.0000
  H   H7        1.0  0.24470  0.89590  0.88820  1.0000
  H   H8        1.0  0.10410  0.34880  0.88820  1.0000
  H   H9        1.0  0.65120  0.75530  0.88820  1.0000
  H   H10       1.0  0.10410  0.75530  0.61180  1.0000
  H   H11       1.0  0.65120  0.89590  0.61180  1.0000
  H   H12       1.0  0.24470  0.34880  0.61180  1.0000
