data_image0
_chemical_formula_structural       Co2Fe2O24C12H12
_chemical_formula_sum              "Co2 Fe2 O24 C12 H12"
_cell_length_a       8.2132
_cell_length_b       8.2132
_cell_length_c       13.6863
_cell_angle_alpha    90
_cell_angle_beta     90
_cell_angle_gamma    120

_space_group_name_H-M_alt    "P 1"
_space_group_IT_number       1

loop_
  _space_group_symop_operation_xyz
  'x, y, z'

loop_
  _atom_site_type_symbol
  _atom_site_label
  _atom_site_symmetry_multiplicity
  _atom_site_fract_x
  _atom_site_fract_y
  _atom_site_fract_z
  _atom_site_occupancy
  Co  Co1       1.0  0.66670  0.33330  0.25000  1.0000
  Co  Co2       1.0  0.33330  0.66670  0.75000  1.0000
  Fe  Fe1       1.0  0.00000  0.00000  0.00000  1.0000
  Fe  Fe2       1.0  0.00000  0.00000  0.50000  1.0000
  O   O1        1.0  0.88328  0.34319  0.16813  1.0000
  O   O2        1.0  0.65681  0.54009  0.16813  1.0000
  O   O3        1.0  0.45991  0.11672  0.16813  1.0000
  O   O4        1.0  0.65681  0.11672  0.33187  1.0000
  O   O5        1.0  0.45991  0.34319  0.33187  1.0000
  O   O6        1.0  0.88328  0.54009  0.33187  1.0000
  O   O7        1.0  0.11672  0.65681  0.83187  1.0000
  O   O8        1.0  0.34319  0.45991  0.83187  1.0000
  O   O9        1.0  0.54009  0.88328  0.83187  1.0000
  O   O10       1.0  0.34319  0.88328  0.66813  1.0000
  O   O11       1.0  0.54009  0.65681  0.66813  1.0000
  O   O12       1.0  0.11672  0.45991  0.66813  1.0000
  O   O13       1.0  0.01287  0.20884  0.08291  1.0000
  O   O14       1.0  0.79116  0.80403  0.08291  1.0000
  O   O15       1.0  0.19597  0.98713  0.08291  1.0000
  O   O16       1.0  0.79116  0.98713  0.41709  1.0000
  O   O17       1.0  0.19597  0.20884  0.41709  1.0000
  O   O18       1.0  0.01287  0.80403  0.41709  1.0000
  O   O19       1.0  0.98713  0.79116  0.91709  1.0000
  O   O20       1.0  0.20884  0.19597  0.91709  1.0000
  O   O21       1.0  0.80403  0.01287  0.91709  1.0000
  O   O22       1.0  0.20884  0.01287  0.58291  1.0000
  O   O23       1.0  0.80403  0.79116  0.58291  1.0000
  O   O24       1.0  0.98713  0.19597  0.58291  1.0000
  C   C1        1.0  0.87336  0.20972  0.12067  1.0000
  C   C2        1.0  0.79028  0.66364  0.12067  1.0000
  C   C3        1.0  0.33636  0.12664  0.12067  1.0000
  C   C4        1.0  0.79028  0.12664  0.37933  1.0000
  C   C5        1.0  0.33636  0.20972  0.37933  1.0000
  C   C6        1.0  0.87336  0.66364  0.37933  1.0000
  C   C7        1.0  0.12664  0.79028  0.87933  1.0000
  C   C8        1.0  0.20972  0.33636  0.87933  1.0000
  C   C9        1.0  0.66364  0.87336  0.87933  1.0000
  C   C10       1.0  0.20972  0.87336  0.62067  1.0000
  C   C11       1.0  0.66364  0.79028  0.62067  1.0000
  C   C12       1.0  0.12664  0.33636  0.62067  1.0000
  H   H1        1.0  0.75550  0.10370  0.11250  1.0000
  H   H2        1.0  0.89630  0.65180  0.11250  1.0000
  H   H3        1.0  0.34820  0.24450  0.11250  1.0000
  H   H4        1.0  0.89630  0.24450  0.38750  1.0000
  H   H5        1.0  0.34820  0.10370  0.38750  1.0000
  H   H6        1.0  0.75550  0.65180  0.38750  1.0000
  H   H7        1.0  0.24450  0.89630  0.88750  1.0000
  H   H8        1.0  0.10370  0.34820  0.88750  1.0000
  H   H9        1.0  0.65180  0.75550  0.88750  1.0000
  H   H10       1.0  0.10370  0.75550  0.61250  1.0000
  H   H11       1.0  0.65180  0.89630  0.61250  1.0000
  H   H12       1.0  0.24450  0.34820  0.61250  1.0000
