data_image0
_chemical_formula_structural       Co2Fe2O24C12H12
_chemical_formula_sum              "Co2 Fe2 O24 C12 H12"
_cell_length_a       8.2136
_cell_length_b       8.2136
_cell_length_c       13.6935
_cell_angle_alpha    90
_cell_angle_beta     90
_cell_angle_gamma    120

_space_group_name_H-M_alt    "P 1"
_space_group_IT_number       1

loop_
  _space_group_symop_operation_xyz
  'x, y, z'

loop_
  _atom_site_type_symbol
  _atom_site_label
  _atom_site_symmetry_multiplicity
  _atom_site_fract_x
  _atom_site_fract_y
  _atom_site_fract_z
  _atom_site_occupancy
  Co  Co1       1.0  0.66670  0.33330  0.25000  1.0000
  Co  Co2       1.0  0.33330  0.66670  0.75000  1.0000
  Fe  Fe1       1.0  0.00000  0.00000  0.00000  1.0000
  Fe  Fe2       1.0  0.00000  0.00000  0.50000  1.0000
  O   O1        1.0  0.88319  0.34312  0.16817  1.0000
  O   O2        1.0  0.65688  0.54007  0.16817  1.0000
  O   O3        1.0  0.45993  0.11681  0.16817  1.0000
  O   O4        1.0  0.65688  0.11681  0.33183  1.0000
  O   O5        1.0  0.45993  0.34312  0.33183  1.0000
  O   O6        1.0  0.88319  0.54007  0.33183  1.0000
  O   O7        1.0  0.11681  0.65688  0.83183  1.0000
  O   O8        1.0  0.34312  0.45993  0.83183  1.0000
  O   O9        1.0  0.54007  0.88319  0.83183  1.0000
  O   O10       1.0  0.34312  0.88319  0.66817  1.0000
  O   O11       1.0  0.54007  0.65688  0.66817  1.0000
  O   O12       1.0  0.11681  0.45993  0.66817  1.0000
  O   O13       1.0  0.01280  0.20881  0.08292  1.0000
  O   O14       1.0  0.79119  0.80399  0.08292  1.0000
  O   O15       1.0  0.19601  0.98720  0.08292  1.0000
  O   O16       1.0  0.79119  0.98720  0.41708  1.0000
  O   O17       1.0  0.19601  0.20881  0.41708  1.0000
  O   O18       1.0  0.01280  0.80399  0.41708  1.0000
  O   O19       1.0  0.98720  0.79119  0.91708  1.0000
  O   O20       1.0  0.20881  0.19601  0.91708  1.0000
  O   O21       1.0  0.80399  0.01280  0.91708  1.0000
  O   O22       1.0  0.20881  0.01280  0.58292  1.0000
  O   O23       1.0  0.80399  0.79119  0.58292  1.0000
  O   O24       1.0  0.98720  0.19601  0.58292  1.0000
  C   C1        1.0  0.87350  0.20970  0.12072  1.0000
  C   C2        1.0  0.79030  0.66380  0.12072  1.0000
  C   C3        1.0  0.33620  0.12650  0.12072  1.0000
  C   C4        1.0  0.79030  0.12650  0.37928  1.0000
  C   C5        1.0  0.33620  0.20970  0.37928  1.0000
  C   C6        1.0  0.87350  0.66380  0.37928  1.0000
  C   C7        1.0  0.12650  0.79030  0.87928  1.0000
  C   C8        1.0  0.20970  0.33620  0.87928  1.0000
  C   C9        1.0  0.66380  0.87350  0.87928  1.0000
  C   C10       1.0  0.20970  0.87350  0.62072  1.0000
  C   C11       1.0  0.66380  0.79030  0.62072  1.0000
  C   C12       1.0  0.12650  0.33620  0.62072  1.0000
  H   H1        1.0  0.75580  0.10360  0.11260  1.0000
  H   H2        1.0  0.89640  0.65220  0.11260  1.0000
  H   H3        1.0  0.34780  0.24420  0.11260  1.0000
  H   H4        1.0  0.89640  0.24420  0.38740  1.0000
  H   H5        1.0  0.34780  0.10360  0.38740  1.0000
  H   H6        1.0  0.75580  0.65220  0.38740  1.0000
  H   H7        1.0  0.24420  0.89640  0.88740  1.0000
  H   H8        1.0  0.10360  0.34780  0.88740  1.0000
  H   H9        1.0  0.65220  0.75580  0.88740  1.0000
  H   H10       1.0  0.10360  0.75580  0.61260  1.0000
  H   H11       1.0  0.65220  0.89640  0.61260  1.0000
  H   H12       1.0  0.24420  0.34780  0.61260  1.0000
