data_image0
_chemical_formula_structural       Mn2Fe2O24C12H12
_chemical_formula_sum              "Mn2 Fe2 O24 C12 H12"
_cell_length_a       8.2761
_cell_length_b       8.2761
_cell_length_c       13.8917
_cell_angle_alpha    90
_cell_angle_beta     90
_cell_angle_gamma    120

_space_group_name_H-M_alt    "P 1"
_space_group_IT_number       1

loop_
  _space_group_symop_operation_xyz
  'x, y, z'

loop_
  _atom_site_type_symbol
  _atom_site_label
  _atom_site_symmetry_multiplicity
  _atom_site_fract_x
  _atom_site_fract_y
  _atom_site_fract_z
  _atom_site_occupancy
  Mn  Mn1       1.0  0.66670  0.33330  0.25000  1.0000
  Mn  Mn2       1.0  0.33330  0.66670  0.75000  1.0000
  Fe  Fe1       1.0  0.00000  0.00000  0.00000  1.0000
  Fe  Fe2       1.0  0.00000  0.00000  0.50000  1.0000
  O   O1        1.0  0.88907  0.34229  0.16597  1.0000
  O   O2        1.0  0.65771  0.54678  0.16597  1.0000
  O   O3        1.0  0.45322  0.11093  0.16597  1.0000
  O   O4        1.0  0.65771  0.11093  0.33403  1.0000
  O   O5        1.0  0.45322  0.34229  0.33403  1.0000
  O   O6        1.0  0.88907  0.54678  0.33403  1.0000
  O   O7        1.0  0.11093  0.65771  0.83403  1.0000
  O   O8        1.0  0.34229  0.45322  0.83403  1.0000
  O   O9        1.0  0.54678  0.88907  0.83403  1.0000
  O   O10       1.0  0.34229  0.88907  0.66597  1.0000
  O   O11       1.0  0.54678  0.65771  0.66597  1.0000
  O   O12       1.0  0.11093  0.45322  0.66597  1.0000
  O   O13       1.0  0.01598  0.20798  0.08183  1.0000
  O   O14       1.0  0.79202  0.80800  0.08183  1.0000
  O   O15       1.0  0.19200  0.98402  0.08183  1.0000
  O   O16       1.0  0.79202  0.98402  0.41817  1.0000
  O   O17       1.0  0.19200  0.20798  0.41817  1.0000
  O   O18       1.0  0.01598  0.80800  0.41817  1.0000
  O   O19       1.0  0.98402  0.79202  0.91817  1.0000
  O   O20       1.0  0.20798  0.19200  0.91817  1.0000
  O   O21       1.0  0.80800  0.01598  0.91817  1.0000
  O   O22       1.0  0.20798  0.01598  0.58183  1.0000
  O   O23       1.0  0.80800  0.79202  0.58183  1.0000
  O   O24       1.0  0.98402  0.19200  0.58183  1.0000
  C   C1        1.0  0.87840  0.21120  0.11824  1.0000
  C   C2        1.0  0.78880  0.66720  0.11824  1.0000
  C   C3        1.0  0.33280  0.12160  0.11824  1.0000
  C   C4        1.0  0.78880  0.12160  0.38176  1.0000
  C   C5        1.0  0.33280  0.21120  0.38176  1.0000
  C   C6        1.0  0.87840  0.66720  0.38176  1.0000
  C   C7        1.0  0.12160  0.78880  0.88176  1.0000
  C   C8        1.0  0.21120  0.33280  0.88176  1.0000
  C   C9        1.0  0.66720  0.87840  0.88176  1.0000
  C   C10       1.0  0.21120  0.87840  0.61824  1.0000
  C   C11       1.0  0.66720  0.78880  0.61824  1.0000
  C   C12       1.0  0.12160  0.33280  0.61824  1.0000
  H   H1        1.0  0.76060  0.10800  0.10860  1.0000
  H   H2        1.0  0.89200  0.65260  0.10860  1.0000
  H   H3        1.0  0.34740  0.23940  0.10860  1.0000
  H   H4        1.0  0.89200  0.23940  0.39140  1.0000
  H   H5        1.0  0.34740  0.10800  0.39140  1.0000
  H   H6        1.0  0.76060  0.65260  0.39140  1.0000
  H   H7        1.0  0.23940  0.89200  0.89140  1.0000
  H   H8        1.0  0.10800  0.34740  0.89140  1.0000
  H   H9        1.0  0.65260  0.76060  0.89140  1.0000
  H   H10       1.0  0.10800  0.76060  0.60860  1.0000
  H   H11       1.0  0.65260  0.89200  0.60860  1.0000
  H   H12       1.0  0.23940  0.34740  0.60860  1.0000
