data_image0
_chemical_formula_structural       Mn2Fe2O24C12H12
_chemical_formula_sum              "Mn2 Fe2 O24 C12 H12"
_cell_length_a       8.2726
_cell_length_b       8.2726
_cell_length_c       13.8886
_cell_angle_alpha    90
_cell_angle_beta     90
_cell_angle_gamma    120

_space_group_name_H-M_alt    "P 1"
_space_group_IT_number       1

loop_
  _space_group_symop_operation_xyz
  'x, y, z'

loop_
  _atom_site_type_symbol
  _atom_site_label
  _atom_site_symmetry_multiplicity
  _atom_site_fract_x
  _atom_site_fract_y
  _atom_site_fract_z
  _atom_site_occupancy
  Mn  Mn1       1.0  0.66670  0.33330  0.25000  1.0000
  Mn  Mn2       1.0  0.33330  0.66670  0.75000  1.0000
  Fe  Fe1       1.0  0.00000  0.00000  0.00000  1.0000
  Fe  Fe2       1.0  0.00000  0.00000  0.50000  1.0000
  O   O1        1.0  0.88910  0.34210  0.16601  1.0000
  O   O2        1.0  0.65790  0.54700  0.16601  1.0000
  O   O3        1.0  0.45300  0.11090  0.16601  1.0000
  O   O4        1.0  0.65790  0.11090  0.33399  1.0000
  O   O5        1.0  0.45300  0.34210  0.33399  1.0000
  O   O6        1.0  0.88910  0.54700  0.33399  1.0000
  O   O7        1.0  0.11090  0.65790  0.83399  1.0000
  O   O8        1.0  0.34210  0.45300  0.83399  1.0000
  O   O9        1.0  0.54700  0.88910  0.83399  1.0000
  O   O10       1.0  0.34210  0.88910  0.66601  1.0000
  O   O11       1.0  0.54700  0.65790  0.66601  1.0000
  O   O12       1.0  0.11090  0.45300  0.66601  1.0000
  O   O13       1.0  0.01562  0.20818  0.08185  1.0000
  O   O14       1.0  0.79182  0.80744  0.08185  1.0000
  O   O15       1.0  0.19256  0.98438  0.08185  1.0000
  O   O16       1.0  0.79182  0.98438  0.41815  1.0000
  O   O17       1.0  0.19256  0.20818  0.41815  1.0000
  O   O18       1.0  0.01562  0.80744  0.41815  1.0000
  O   O19       1.0  0.98438  0.79182  0.91815  1.0000
  O   O20       1.0  0.20818  0.19256  0.91815  1.0000
  O   O21       1.0  0.80744  0.01562  0.91815  1.0000
  O   O22       1.0  0.20818  0.01562  0.58185  1.0000
  O   O23       1.0  0.80744  0.79182  0.58185  1.0000
  O   O24       1.0  0.98438  0.19256  0.58185  1.0000
  C   C1        1.0  0.87880  0.21130  0.11862  1.0000
  C   C2        1.0  0.78870  0.66750  0.11862  1.0000
  C   C3        1.0  0.33250  0.12120  0.11862  1.0000
  C   C4        1.0  0.78870  0.12120  0.38138  1.0000
  C   C5        1.0  0.33250  0.21130  0.38138  1.0000
  C   C6        1.0  0.87880  0.66750  0.38138  1.0000
  C   C7        1.0  0.12120  0.78870  0.88138  1.0000
  C   C8        1.0  0.21130  0.33250  0.88138  1.0000
  C   C9        1.0  0.66750  0.87880  0.88138  1.0000
  C   C10       1.0  0.21130  0.87880  0.61862  1.0000
  C   C11       1.0  0.66750  0.78870  0.61862  1.0000
  C   C12       1.0  0.12120  0.33250  0.61862  1.0000
  H   H1        1.0  0.76120  0.10750  0.10950  1.0000
  H   H2        1.0  0.89250  0.65370  0.10950  1.0000
  H   H3        1.0  0.34630  0.23880  0.10950  1.0000
  H   H4        1.0  0.89250  0.23880  0.39050  1.0000
  H   H5        1.0  0.34630  0.10750  0.39050  1.0000
  H   H6        1.0  0.76120  0.65370  0.39050  1.0000
  H   H7        1.0  0.23880  0.89250  0.89050  1.0000
  H   H8        1.0  0.10750  0.34630  0.89050  1.0000
  H   H9        1.0  0.65370  0.76120  0.89050  1.0000
  H   H10       1.0  0.10750  0.76120  0.60950  1.0000
  H   H11       1.0  0.65370  0.89250  0.60950  1.0000
  H   H12       1.0  0.23880  0.34630  0.60950  1.0000
