data_image0
_chemical_formula_structural       Cu4O24N4C12H4C4H4C4H4C20H4C4H4
_chemical_formula_sum              "Cu4 O24 N4 C44 H20"
_cell_length_a       9.759
_cell_length_b       8.333
_cell_length_c       18.087
_cell_angle_alpha    90
_cell_angle_beta     101.174
_cell_angle_gamma    90

_space_group_name_H-M_alt    "P 1"
_space_group_IT_number       1

loop_
  _space_group_symop_operation_xyz
  'x, y, z'

loop_
  _atom_site_type_symbol
  _atom_site_label
  _atom_site_symmetry_multiplicity
  _atom_site_fract_x
  _atom_site_fract_y
  _atom_site_fract_z
  _atom_site_occupancy
  Cu  Cu1       1.0  0.50501  0.27848  0.56213  1.0000
  Cu  Cu2       1.0  0.99499  0.77848  0.93787  1.0000
  Cu  Cu3       1.0  0.49499  0.72152  0.43787  1.0000
  Cu  Cu4       1.0  0.00501  0.22152  0.06213  1.0000
  O   O1        1.0  0.30560  0.01720  0.38631  1.0000
  O   O2        1.0  0.19440  0.51720  0.11369  1.0000
  O   O3        1.0  0.69440  0.98280  0.61369  1.0000
  O   O4        1.0  0.80560  0.48280  0.88631  1.0000
  O   O5        1.0  0.44820  0.19500  0.45525  1.0000
  O   O6        1.0  0.05180  0.69500  0.04475  1.0000
  O   O7        1.0  0.55180  0.80500  0.54475  1.0000
  O   O8        1.0  0.94820  0.30500  0.95525  1.0000
  O   O9        1.0  0.51449  0.30270  0.67512  1.0000
  O   O10       1.0  0.98551  0.80270  0.82488  1.0000
  O   O11       1.0  0.48551  0.69730  0.32488  1.0000
  O   O12       1.0  0.01449  0.19730  0.17512  1.0000
  O   O13       1.0  0.40570  0.22090  0.76653  1.0000
  O   O14       1.0  0.09430  0.72090  0.73347  1.0000
  O   O15       1.0  0.59430  0.77910  0.23347  1.0000
  O   O16       1.0  0.90570  0.27910  0.26653  1.0000
  O   O17       1.0  0.68195  0.37360  0.56048  1.0000
  O   O18       1.0  0.81805  0.87360  0.93952  1.0000
  O   O19       1.0  0.31805  0.62640  0.43952  1.0000
  O   O20       1.0  0.18195  0.12640  0.06048  1.0000
  O   O21       1.0  0.61898  0.48650  0.44676  1.0000
  O   O22       1.0  0.88102  0.98650  0.05324  1.0000
  O   O23       1.0  0.38102  0.51350  0.55324  1.0000
  O   O24       1.0  0.11898  0.01350  0.94676  1.0000
  N   N1        1.0  0.35866  0.13490  0.57458  1.0000
  N   N2        1.0  0.14134  0.63490  0.92542  1.0000
  N   N3        1.0  0.64134  0.86510  0.42542  1.0000
  N   N4        1.0  0.85866  0.36510  0.07458  1.0000
  C   C1        1.0  0.35010  0.08860  0.44526  1.0000
  C   C2        1.0  0.14990  0.58860  0.05474  1.0000
  C   C3        1.0  0.64990  0.91140  0.55474  1.0000
  C   C4        1.0  0.85010  0.41140  0.94526  1.0000
  C   C5        1.0  0.29230  0.05270  0.51521  1.0000
  C   C6        1.0  0.20770  0.55270  0.98479  1.0000
  C   C7        1.0  0.70770  0.94730  0.48479  1.0000
  C   C8        1.0  0.79230  0.44730  0.01521  1.0000
  C   C9        1.0  0.18760  0.94540  0.52229  1.0000
  C   C10       1.0  0.31240  0.44540  0.97771  1.0000
  C   C11       1.0  0.81240  0.05460  0.47771  1.0000
  C   C12       1.0  0.68760  0.55460  0.02229  1.0000
  H   H1        1.0  0.14000  0.88890  0.48090  1.0000
  H   H2        1.0  0.36000  0.38890  0.01910  1.0000
  H   H3        1.0  0.86000  0.11110  0.51910  1.0000
  H   H4        1.0  0.64000  0.61110  0.98090  1.0000
  C   C13       1.0  0.15610  0.92490  0.59309  1.0000
  C   C14       1.0  0.34390  0.42490  0.90691  1.0000
  C   C15       1.0  0.84390  0.07510  0.40691  1.0000
  C   C16       1.0  0.65610  0.57510  0.09309  1.0000
  H   H5        1.0  0.08610  0.85370  0.59960  1.0000
  H   H6        1.0  0.41390  0.35370  0.90040  1.0000
  H   H7        1.0  0.91390  0.14630  0.40040  1.0000
  H   H8        1.0  0.58610  0.64630  0.09960  1.0000
  C   C17       1.0  0.22850  0.01020  0.65463  1.0000
  C   C18       1.0  0.27150  0.51020  0.84537  1.0000
  C   C19       1.0  0.77150  0.98980  0.34537  1.0000
  C   C20       1.0  0.72850  0.48980  0.15463  1.0000
  H   H9        1.0  0.20810  0.99590  0.70230  1.0000
  H   H10       1.0  0.29190  0.49590  0.79770  1.0000
  H   H11       1.0  0.79190  0.00410  0.29770  1.0000
  H   H12       1.0  0.70810  0.50410  0.20230  1.0000
  C   C21       1.0  0.33100  0.11650  0.64339  1.0000
  C   C22       1.0  0.16900  0.61650  0.85661  1.0000
  C   C23       1.0  0.66900  0.88350  0.35661  1.0000
  C   C24       1.0  0.83100  0.38350  0.14339  1.0000
  C   C25       1.0  0.42310  0.22100  0.70155  1.0000
  C   C26       1.0  0.07690  0.72100  0.79845  1.0000
  C   C27       1.0  0.57690  0.77900  0.29845  1.0000
  C   C28       1.0  0.92310  0.27900  0.20155  1.0000
  C   C29       1.0  0.70720  0.44470  0.50217  1.0000
  C   C30       1.0  0.79280  0.94470  0.99783  1.0000
  C   C31       1.0  0.29280  0.55530  0.49783  1.0000
  C   C32       1.0  0.20720  0.05530  0.00217  1.0000
  C   C33       1.0  0.85980  0.47440  0.50194  1.0000
  C   C34       1.0  0.64020  0.97440  0.99806  1.0000
  C   C35       1.0  0.14020  0.52560  0.49806  1.0000
  C   C36       1.0  0.35980  0.02560  0.00194  1.0000
  C   C37       1.0  0.89820  0.53030  0.43669  1.0000
  C   C38       1.0  0.60180  0.03030  0.06331  1.0000
  C   C39       1.0  0.10180  0.46970  0.56331  1.0000
  C   C40       1.0  0.39820  0.96970  0.93669  1.0000
  H   H13       1.0  0.83010  0.55090  0.39410  1.0000
  H   H14       1.0  0.66990  0.05090  0.10590  1.0000
  H   H15       1.0  0.16990  0.44910  0.60590  1.0000
  H   H16       1.0  0.33010  0.94910  0.89410  1.0000
  C   C41       1.0  0.96150  0.44450  0.56519  1.0000
  C   C42       1.0  0.53850  0.94450  0.93481  1.0000
  C   C43       1.0  0.03850  0.55550  0.43481  1.0000
  C   C44       1.0  0.46150  0.05550  0.06519  1.0000
  H   H17       1.0  0.93600  0.40740  0.60910  1.0000
  H   H18       1.0  0.56400  0.90740  0.89090  1.0000
  H   H19       1.0  0.06400  0.59260  0.39090  1.0000
  H   H20       1.0  0.43600  0.09260  0.10910  1.0000
