data_image0
_chemical_formula_structural       Mo8Ni4O36N12C8H8C8H8C16H8C8H8C16H8C16H8C8H8C8
_chemical_formula_sum              "Mo8 Ni4 O36 N12 C88 H56"
_cell_length_a       8.9864
_cell_length_b       27.7885
_cell_length_c       10.953
_cell_angle_alpha    90
_cell_angle_beta     99.196
_cell_angle_gamma    90

_space_group_name_H-M_alt    "P 1"
_space_group_IT_number       1

loop_
  _space_group_symop_operation_xyz
  'x, y, z'

loop_
  _atom_site_type_symbol
  _atom_site_label
  _atom_site_symmetry_multiplicity
  _atom_site_fract_x
  _atom_site_fract_y
  _atom_site_fract_z
  _atom_site_occupancy
  Mo  Mo1       1.0  0.58569  0.64903  0.87405  1.0000
  Mo  Mo2       1.0  0.91431  0.64903  0.12595  1.0000
  Mo  Mo3       1.0  0.08569  0.14903  0.37405  1.0000
  Mo  Mo4       1.0  0.41431  0.14903  0.62595  1.0000
  Mo  Mo5       1.0  0.41431  0.35097  0.12595  1.0000
  Mo  Mo6       1.0  0.08569  0.35097  0.87405  1.0000
  Mo  Mo7       1.0  0.91431  0.85097  0.62595  1.0000
  Mo  Mo8       1.0  0.58569  0.85097  0.37405  1.0000
  Ni  Ni1       1.0  0.25000  0.61722  0.00000  1.0000
  Ni  Ni2       1.0  0.75000  0.11722  0.50000  1.0000
  Ni  Ni3       1.0  0.75000  0.38278  0.00000  1.0000
  Ni  Ni4       1.0  0.25000  0.88278  0.50000  1.0000
  O   O1        1.0  0.66937  0.18396  0.41340  1.0000
  O   O2        1.0  0.83063  0.18396  0.58660  1.0000
  O   O3        1.0  0.16937  0.68396  0.91340  1.0000
  O   O4        1.0  0.33063  0.68396  0.08660  1.0000
  O   O5        1.0  0.33063  0.81604  0.58660  1.0000
  O   O6        1.0  0.16937  0.81604  0.41340  1.0000
  O   O7        1.0  0.83063  0.31604  0.08660  1.0000
  O   O8        1.0  0.66937  0.31604  0.91340  1.0000
  O   O9        1.0  0.43090  0.61583  0.90657  1.0000
  O   O10       1.0  0.06910  0.61583  0.09343  1.0000
  O   O11       1.0  0.93090  0.11583  0.40657  1.0000
  O   O12       1.0  0.56910  0.11583  0.59343  1.0000
  O   O13       1.0  0.56910  0.38417  0.09343  1.0000
  O   O14       1.0  0.93090  0.38417  0.90657  1.0000
  O   O15       1.0  0.06910  0.88417  0.59343  1.0000
  O   O16       1.0  0.43090  0.88417  0.40657  1.0000
  O   O17       1.0  0.53950  0.70919  0.86299  1.0000
  O   O18       1.0  0.96050  0.70919  0.13701  1.0000
  O   O19       1.0  0.03950  0.20919  0.36299  1.0000
  O   O20       1.0  0.46050  0.20919  0.63701  1.0000
  O   O21       1.0  0.46050  0.29081  0.13701  1.0000
  O   O22       1.0  0.03950  0.29081  0.86299  1.0000
  O   O23       1.0  0.96050  0.79081  0.63701  1.0000
  O   O24       1.0  0.53950  0.79081  0.36299  1.0000
  O   O25       1.0  0.75000  0.63799  0.00000  1.0000
  O   O26       1.0  0.25000  0.13799  0.50000  1.0000
  O   O27       1.0  0.25000  0.36201  0.00000  1.0000
  O   O28       1.0  0.75000  0.86201  0.50000  1.0000
  O   O29       1.0  0.62930  0.62918  0.73577  1.0000
  O   O30       1.0  0.87070  0.62918  0.26423  1.0000
  O   O31       1.0  0.12930  0.12918  0.23577  1.0000
  O   O32       1.0  0.37070  0.12918  0.76423  1.0000
  O   O33       1.0  0.37070  0.37082  0.26423  1.0000
  O   O34       1.0  0.12930  0.37082  0.73577  1.0000
  O   O35       1.0  0.87070  0.87082  0.76423  1.0000
  O   O36       1.0  0.62930  0.87082  0.23577  1.0000
  N   N1        1.0  0.37160  0.57232  0.13399  1.0000
  N   N2        1.0  0.12840  0.57232  0.86601  1.0000
  N   N3        1.0  0.87160  0.07232  0.63399  1.0000
  N   N4        1.0  0.62840  0.07232  0.36601  1.0000
  N   N5        1.0  0.62840  0.42768  0.86601  1.0000
  N   N6        1.0  0.87160  0.42768  0.13399  1.0000
  N   N7        1.0  0.12840  0.92768  0.36601  1.0000
  N   N8        1.0  0.37160  0.92768  0.63399  1.0000
  N   N9        1.0  0.75000  0.51590  0.50000  1.0000
  N   N10       1.0  0.25000  0.01590  0.00000  1.0000
  N   N11       1.0  0.25000  0.48410  0.50000  1.0000
  N   N12       1.0  0.75000  0.98410  0.00000  1.0000
  C   C1        1.0  0.33800  0.52701  0.16040  1.0000
  C   C2        1.0  0.16200  0.52701  0.83960  1.0000
  C   C3        1.0  0.83800  0.02701  0.66040  1.0000
  C   C4        1.0  0.66200  0.02701  0.33960  1.0000
  C   C5        1.0  0.66200  0.47299  0.83960  1.0000
  C   C6        1.0  0.83800  0.47299  0.16040  1.0000
  C   C7        1.0  0.16200  0.97299  0.33960  1.0000
  C   C8        1.0  0.33800  0.97299  0.66040  1.0000
  H   H1        1.0  0.25140  0.51330  0.11620  1.0000
  H   H2        1.0  0.24860  0.51330  0.88380  1.0000
  H   H3        1.0  0.75140  0.01330  0.61620  1.0000
  H   H4        1.0  0.74860  0.01330  0.38380  1.0000
  H   H5        1.0  0.74860  0.48670  0.88380  1.0000
  H   H6        1.0  0.75140  0.48670  0.11620  1.0000
  H   H7        1.0  0.24860  0.98670  0.38380  1.0000
  H   H8        1.0  0.25140  0.98670  0.61620  1.0000
  C   C9        1.0  0.42470  0.49932  0.24960  1.0000
  C   C10       1.0  0.07530  0.49932  0.75040  1.0000
  C   C11       1.0  0.92470  0.99932  0.74960  1.0000
  C   C12       1.0  0.57530  0.99932  0.25040  1.0000
  C   C13       1.0  0.57530  0.50068  0.75040  1.0000
  C   C14       1.0  0.92470  0.50068  0.24960  1.0000
  C   C15       1.0  0.07530  0.00068  0.25040  1.0000
  C   C16       1.0  0.42470  0.00068  0.74960  1.0000
  H   H9        1.0  0.39770  0.46760  0.26210  1.0000
  H   H10       1.0  0.10230  0.46760  0.73790  1.0000
  H   H11       1.0  0.89770  0.96760  0.76210  1.0000
  H   H12       1.0  0.60230  0.96760  0.23790  1.0000
  H   H13       1.0  0.60230  0.53240  0.73790  1.0000
  H   H14       1.0  0.89770  0.53240  0.26210  1.0000
  H   H15       1.0  0.10230  0.03240  0.23790  1.0000
  H   H16       1.0  0.39770  0.03240  0.76210  1.0000
  C   C17       1.0  0.55240  0.51900  0.32070  1.0000
  C   C18       1.0  0.94760  0.51900  0.67930  1.0000
  C   C19       1.0  0.05240  0.01900  0.82070  1.0000
  C   C20       1.0  0.44760  0.01900  0.17930  1.0000
  C   C21       1.0  0.44760  0.48100  0.67930  1.0000
  C   C22       1.0  0.05240  0.48100  0.32070  1.0000
  C   C23       1.0  0.94760  0.98100  0.17930  1.0000
  C   C24       1.0  0.55240  0.98100  0.82070  1.0000
  C   C25       1.0  0.58580  0.56648  0.29510  1.0000
  C   C26       1.0  0.91420  0.56648  0.70490  1.0000
  C   C27       1.0  0.08580  0.06648  0.79510  1.0000
  C   C28       1.0  0.41420  0.06648  0.20490  1.0000
  C   C29       1.0  0.41420  0.43352  0.70490  1.0000
  C   C30       1.0  0.08580  0.43352  0.29510  1.0000
  C   C31       1.0  0.91420  0.93352  0.20490  1.0000
  C   C32       1.0  0.58580  0.93352  0.79510  1.0000
  H   H17       1.0  0.66910  0.58160  0.34060  1.0000
  H   H18       1.0  0.83090  0.58160  0.65940  1.0000
  H   H19       1.0  0.16910  0.08160  0.84060  1.0000
  H   H20       1.0  0.33090  0.08160  0.15940  1.0000
  H   H21       1.0  0.33090  0.41840  0.65940  1.0000
  H   H22       1.0  0.16910  0.41840  0.34060  1.0000
  H   H23       1.0  0.83090  0.91840  0.15940  1.0000
  H   H24       1.0  0.66910  0.91840  0.84060  1.0000
  C   C33       1.0  0.49530  0.59108  0.20240  1.0000
  C   C34       1.0  0.00470  0.59108  0.79760  1.0000
  C   C35       1.0  0.99530  0.09108  0.70240  1.0000
  C   C36       1.0  0.50470  0.09108  0.29760  1.0000
  C   C37       1.0  0.50470  0.40892  0.79760  1.0000
  C   C38       1.0  0.99530  0.40892  0.20240  1.0000
  C   C39       1.0  0.00470  0.90892  0.29760  1.0000
  C   C40       1.0  0.49530  0.90892  0.70240  1.0000
  H   H25       1.0  0.52140  0.62260  0.18620  1.0000
  H   H26       1.0  0.97860  0.62260  0.81380  1.0000
  H   H27       1.0  0.02140  0.12260  0.68620  1.0000
  H   H28       1.0  0.47860  0.12260  0.31380  1.0000
  H   H29       1.0  0.47860  0.37740  0.81380  1.0000
  H   H30       1.0  0.02140  0.37740  0.18620  1.0000
  H   H31       1.0  0.97860  0.87740  0.31380  1.0000
  H   H32       1.0  0.52140  0.87740  0.68620  1.0000
  C   C41       1.0  0.65370  0.49093  0.41620  1.0000
  C   C42       1.0  0.84630  0.49093  0.58380  1.0000
  C   C43       1.0  0.15370  0.99093  0.91620  1.0000
  C   C44       1.0  0.34630  0.99093  0.08380  1.0000
  C   C45       1.0  0.34630  0.50907  0.58380  1.0000
  C   C46       1.0  0.15370  0.50907  0.41620  1.0000
  C   C47       1.0  0.84630  0.00907  0.08380  1.0000
  C   C48       1.0  0.65370  0.00907  0.91620  1.0000
  C   C49       1.0  0.65020  0.44084  0.41420  1.0000
  C   C50       1.0  0.84980  0.44084  0.58580  1.0000
  C   C51       1.0  0.15020  0.94084  0.91420  1.0000
  C   C52       1.0  0.34980  0.94084  0.08580  1.0000
  C   C53       1.0  0.34980  0.55916  0.58580  1.0000
  C   C54       1.0  0.15020  0.55916  0.41420  1.0000
  C   C55       1.0  0.84980  0.05916  0.08580  1.0000
  C   C56       1.0  0.65020  0.05916  0.91420  1.0000
  H   H33       1.0  0.58140  0.42470  0.35580  1.0000
  H   H34       1.0  0.91860  0.42470  0.64420  1.0000
  H   H35       1.0  0.08140  0.92470  0.85580  1.0000
  H   H36       1.0  0.41860  0.92470  0.14420  1.0000
  H   H37       1.0  0.41860  0.57530  0.64420  1.0000
  H   H38       1.0  0.08140  0.57530  0.35580  1.0000
  H   H39       1.0  0.91860  0.07530  0.14420  1.0000
  H   H40       1.0  0.58140  0.07530  0.85580  1.0000
  C   C57       1.0  0.75000  0.41499  0.50000  1.0000
  C   C58       1.0  0.25000  0.91499  0.00000  1.0000
  C   C59       1.0  0.25000  0.58501  0.50000  1.0000
  C   C60       1.0  0.75000  0.08501  0.00000  1.0000
  C   C61       1.0  0.75000  0.36161  0.50000  1.0000
  C   C62       1.0  0.25000  0.86161  0.00000  1.0000
  C   C63       1.0  0.25000  0.63839  0.50000  1.0000
  C   C64       1.0  0.75000  0.13839  0.00000  1.0000
  C   C65       1.0  0.72120  0.33597  0.38930  1.0000
  C   C66       1.0  0.77880  0.33597  0.61070  1.0000
  C   C67       1.0  0.22120  0.83597  0.88930  1.0000
  C   C68       1.0  0.27880  0.83597  0.11070  1.0000
  C   C69       1.0  0.27880  0.66403  0.61070  1.0000
  C   C70       1.0  0.22120  0.66403  0.38930  1.0000
  C   C71       1.0  0.77880  0.16403  0.11070  1.0000
  C   C72       1.0  0.72120  0.16403  0.88930  1.0000
  H   H41       1.0  0.70470  0.35250  0.31460  1.0000
  H   H42       1.0  0.79530  0.35250  0.68540  1.0000
  H   H43       1.0  0.20470  0.85250  0.81460  1.0000
  H   H44       1.0  0.29530  0.85250  0.18540  1.0000
  H   H45       1.0  0.29530  0.64750  0.68540  1.0000
  H   H46       1.0  0.20470  0.64750  0.31460  1.0000
  H   H47       1.0  0.79530  0.14750  0.18540  1.0000
  H   H48       1.0  0.70470  0.14750  0.81460  1.0000
  C   C73       1.0  0.71670  0.28610  0.38940  1.0000
  C   C74       1.0  0.78330  0.28610  0.61060  1.0000
  C   C75       1.0  0.21670  0.78610  0.88940  1.0000
  C   C76       1.0  0.28330  0.78610  0.11060  1.0000
  C   C77       1.0  0.28330  0.71390  0.61060  1.0000
  C   C78       1.0  0.21670  0.71390  0.38940  1.0000
  C   C79       1.0  0.78330  0.21390  0.11060  1.0000
  C   C80       1.0  0.71670  0.21390  0.88940  1.0000
  H   H49       1.0  0.69140  0.26950  0.31520  1.0000
  H   H50       1.0  0.80860  0.26950  0.68480  1.0000
  H   H51       1.0  0.19140  0.76950  0.81520  1.0000
  H   H52       1.0  0.30860  0.76950  0.18480  1.0000
  H   H53       1.0  0.30860  0.73050  0.68480  1.0000
  H   H54       1.0  0.19140  0.73050  0.31520  1.0000
  H   H55       1.0  0.80860  0.23050  0.18480  1.0000
  H   H56       1.0  0.69140  0.23050  0.81520  1.0000
  C   C81       1.0  0.75000  0.26070  0.50000  1.0000
  C   C82       1.0  0.25000  0.76070  0.00000  1.0000
  C   C83       1.0  0.25000  0.73930  0.50000  1.0000
  C   C84       1.0  0.75000  0.23930  0.00000  1.0000
  C   C85       1.0  0.75000  0.20669  0.50000  1.0000
  C   C86       1.0  0.25000  0.70669  0.00000  1.0000
  C   C87       1.0  0.25000  0.79331  0.50000  1.0000
  C   C88       1.0  0.75000  0.29331  0.00000  1.0000
