data_image0
_chemical_formula_structural       Co4Mo8C8H8C8H8C16H8C8H8C16H8C16H8C8H8C8N12O36
_chemical_formula_sum              "Co4 Mo8 C88 H56 N12 O36"
_cell_length_a       9.0008
_cell_length_b       27.8944
_cell_length_c       10.9798
_cell_angle_alpha    90
_cell_angle_beta     98.694
_cell_angle_gamma    90

_space_group_name_H-M_alt    "P 1"
_space_group_IT_number       1

loop_
  _space_group_symop_operation_xyz
  'x, y, z'

loop_
  _atom_site_type_symbol
  _atom_site_label
  _atom_site_symmetry_multiplicity
  _atom_site_fract_x
  _atom_site_fract_y
  _atom_site_fract_z
  _atom_site_occupancy
  Co  Co1       1.0  0.75000  0.38332  0.50000  1.0000
  Co  Co2       1.0  0.25000  0.88332  0.00000  1.0000
  Co  Co3       1.0  0.25000  0.61668  0.50000  1.0000
  Co  Co4       1.0  0.75000  0.11668  0.00000  1.0000
  Mo  Mo1       1.0  0.41250  0.35110  0.62619  1.0000
  Mo  Mo2       1.0  0.08750  0.35110  0.37381  1.0000
  Mo  Mo3       1.0  0.91250  0.85110  0.12619  1.0000
  Mo  Mo4       1.0  0.58750  0.85110  0.87381  1.0000
  Mo  Mo5       1.0  0.58750  0.64890  0.37381  1.0000
  Mo  Mo6       1.0  0.91250  0.64890  0.62619  1.0000
  Mo  Mo7       1.0  0.08750  0.14890  0.87381  1.0000
  Mo  Mo8       1.0  0.41250  0.14890  0.12619  1.0000
  C   C1        1.0  0.65830  0.47334  0.33740  1.0000
  C   C2        1.0  0.84170  0.47334  0.66260  1.0000
  C   C3        1.0  0.15830  0.97334  0.83740  1.0000
  C   C4        1.0  0.34170  0.97334  0.16260  1.0000
  C   C5        1.0  0.34170  0.52666  0.66260  1.0000
  C   C6        1.0  0.15830  0.52666  0.33740  1.0000
  C   C7        1.0  0.84170  0.02666  0.16260  1.0000
  C   C8        1.0  0.65830  0.02666  0.83740  1.0000
  H   H1        1.0  0.74350  0.48705  0.38260  1.0000
  H   H2        1.0  0.75650  0.48705  0.61740  1.0000
  H   H3        1.0  0.24350  0.98705  0.88260  1.0000
  H   H4        1.0  0.25650  0.98705  0.11740  1.0000
  H   H5        1.0  0.25650  0.51295  0.61740  1.0000
  H   H6        1.0  0.24350  0.51295  0.38260  1.0000
  H   H7        1.0  0.75650  0.01295  0.11740  1.0000
  H   H8        1.0  0.74350  0.01295  0.88260  1.0000
  C   C9        1.0  0.57240  0.50131  0.24910  1.0000
  C   C10       1.0  0.92760  0.50131  0.75090  1.0000
  C   C11       1.0  0.07240  0.00131  0.74910  1.0000
  C   C12       1.0  0.42760  0.00131  0.25090  1.0000
  C   C13       1.0  0.42760  0.49869  0.75090  1.0000
  C   C14       1.0  0.07240  0.49869  0.24910  1.0000
  C   C15       1.0  0.92760  0.99869  0.25090  1.0000
  C   C16       1.0  0.57240  0.99869  0.74910  1.0000
  H   H9        1.0  0.59870  0.53307  0.23770  1.0000
  H   H10       1.0  0.90130  0.53307  0.76230  1.0000
  H   H11       1.0  0.09870  0.03307  0.73770  1.0000
  H   H12       1.0  0.40130  0.03307  0.26230  1.0000
  H   H13       1.0  0.40130  0.46693  0.76230  1.0000
  H   H14       1.0  0.09870  0.46693  0.23770  1.0000
  H   H15       1.0  0.90130  0.96693  0.26230  1.0000
  H   H16       1.0  0.59870  0.96693  0.73770  1.0000
  C   C17       1.0  0.44630  0.48144  0.17760  1.0000
  C   C18       1.0  0.05370  0.48144  0.82240  1.0000
  C   C19       1.0  0.94630  0.98144  0.67760  1.0000
  C   C20       1.0  0.55370  0.98144  0.32240  1.0000
  C   C21       1.0  0.55370  0.51856  0.82240  1.0000
  C   C22       1.0  0.94630  0.51856  0.17760  1.0000
  C   C23       1.0  0.05370  0.01856  0.32240  1.0000
  C   C24       1.0  0.44630  0.01856  0.67760  1.0000
  C   C25       1.0  0.41470  0.43385  0.20120  1.0000
  C   C26       1.0  0.08530  0.43385  0.79880  1.0000
  C   C27       1.0  0.91470  0.93385  0.70120  1.0000
  C   C28       1.0  0.58530  0.93385  0.29880  1.0000
  C   C29       1.0  0.58530  0.56615  0.79880  1.0000
  C   C30       1.0  0.91470  0.56615  0.20120  1.0000
  C   C31       1.0  0.08530  0.06615  0.29880  1.0000
  C   C32       1.0  0.41470  0.06615  0.70120  1.0000
  H   H17       1.0  0.33250  0.41876  0.15540  1.0000
  H   H18       1.0  0.16750  0.41876  0.84460  1.0000
  H   H19       1.0  0.83250  0.91876  0.65540  1.0000
  H   H20       1.0  0.66750  0.91876  0.34460  1.0000
  H   H21       1.0  0.66750  0.58124  0.84460  1.0000
  H   H22       1.0  0.83250  0.58124  0.15540  1.0000
  H   H23       1.0  0.16750  0.08124  0.34460  1.0000
  H   H24       1.0  0.33250  0.08124  0.65540  1.0000
  C   C33       1.0  0.50490  0.40911  0.29220  1.0000
  C   C34       1.0  0.99510  0.40911  0.70780  1.0000
  C   C35       1.0  0.00490  0.90911  0.79220  1.0000
  C   C36       1.0  0.49510  0.90911  0.20780  1.0000
  C   C37       1.0  0.49510  0.59089  0.70780  1.0000
  C   C38       1.0  0.00490  0.59089  0.29220  1.0000
  C   C39       1.0  0.99510  0.09089  0.20780  1.0000
  C   C40       1.0  0.50490  0.09089  0.79220  1.0000
  H   H25       1.0  0.48020  0.37744  0.30660  1.0000
  H   H26       1.0  0.01980  0.37744  0.69340  1.0000
  H   H27       1.0  0.98020  0.87744  0.80660  1.0000
  H   H28       1.0  0.51980  0.87744  0.19340  1.0000
  H   H29       1.0  0.51980  0.62256  0.69340  1.0000
  H   H30       1.0  0.98020  0.62256  0.30660  1.0000
  H   H31       1.0  0.01980  0.12256  0.19340  1.0000
  H   H32       1.0  0.48020  0.12256  0.80660  1.0000
  C   C41       1.0  0.34570  0.50964  0.08330  1.0000
  C   C42       1.0  0.15430  0.50964  0.91670  1.0000
  C   C43       1.0  0.84570  0.00964  0.58330  1.0000
  C   C44       1.0  0.65430  0.00964  0.41670  1.0000
  C   C45       1.0  0.65430  0.49036  0.91670  1.0000
  C   C46       1.0  0.84570  0.49036  0.08330  1.0000
  C   C47       1.0  0.15430  0.99036  0.41670  1.0000
  C   C48       1.0  0.34570  0.99036  0.58330  1.0000
  C   C49       1.0  0.34950  0.55956  0.08520  1.0000
  C   C50       1.0  0.15050  0.55956  0.91480  1.0000
  C   C51       1.0  0.84950  0.05956  0.58520  1.0000
  C   C52       1.0  0.65050  0.05956  0.41480  1.0000
  C   C53       1.0  0.65050  0.44044  0.91480  1.0000
  C   C54       1.0  0.84950  0.44044  0.08520  1.0000
  C   C55       1.0  0.15050  0.94044  0.41480  1.0000
  C   C56       1.0  0.34950  0.94044  0.58520  1.0000
  H   H33       1.0  0.41800  0.57559  0.14300  1.0000
  H   H34       1.0  0.08200  0.57559  0.85700  1.0000
  H   H35       1.0  0.91800  0.07559  0.64300  1.0000
  H   H36       1.0  0.58200  0.07559  0.35700  1.0000
  H   H37       1.0  0.58200  0.42441  0.85700  1.0000
  H   H38       1.0  0.91800  0.42441  0.14300  1.0000
  H   H39       1.0  0.08200  0.92441  0.35700  1.0000
  H   H40       1.0  0.41800  0.92441  0.64300  1.0000
  C   C57       1.0  0.25000  0.58532  0.00000  1.0000
  C   C58       1.0  0.75000  0.08532  0.50000  1.0000
  C   C59       1.0  0.75000  0.41468  0.00000  1.0000
  C   C60       1.0  0.25000  0.91468  0.50000  1.0000
  C   C61       1.0  0.25000  0.63855  0.00000  1.0000
  C   C62       1.0  0.75000  0.13855  0.50000  1.0000
  C   C63       1.0  0.75000  0.36145  0.00000  1.0000
  C   C64       1.0  0.25000  0.86145  0.50000  1.0000
  C   C65       1.0  0.27900  0.66388  0.11090  1.0000
  C   C66       1.0  0.22100  0.66388  0.88910  1.0000
  C   C67       1.0  0.77900  0.16388  0.61090  1.0000
  C   C68       1.0  0.72100  0.16388  0.38910  1.0000
  C   C69       1.0  0.72100  0.33612  0.88910  1.0000
  C   C70       1.0  0.77900  0.33612  0.11090  1.0000
  C   C71       1.0  0.22100  0.83612  0.38910  1.0000
  C   C72       1.0  0.27900  0.83612  0.61090  1.0000
  H   H41       1.0  0.29550  0.64732  0.18520  1.0000
  H   H42       1.0  0.20450  0.64732  0.81480  1.0000
  H   H43       1.0  0.79550  0.14732  0.68520  1.0000
  H   H44       1.0  0.70450  0.14732  0.31480  1.0000
  H   H45       1.0  0.70450  0.35268  0.81480  1.0000
  H   H46       1.0  0.79550  0.35268  0.18520  1.0000
  H   H47       1.0  0.20450  0.85268  0.31480  1.0000
  H   H48       1.0  0.29550  0.85268  0.68520  1.0000
  C   C73       1.0  0.28320  0.71342  0.11060  1.0000
  C   C74       1.0  0.21680  0.71342  0.88940  1.0000
  C   C75       1.0  0.78320  0.21342  0.61060  1.0000
  C   C76       1.0  0.71680  0.21342  0.38940  1.0000
  C   C77       1.0  0.71680  0.28658  0.88940  1.0000
  C   C78       1.0  0.78320  0.28658  0.11060  1.0000
  C   C79       1.0  0.21680  0.78658  0.38940  1.0000
  C   C80       1.0  0.28320  0.78658  0.61060  1.0000
  H   H49       1.0  0.30830  0.72996  0.18440  1.0000
  H   H50       1.0  0.19170  0.72996  0.81560  1.0000
  H   H51       1.0  0.80830  0.22996  0.68440  1.0000
  H   H52       1.0  0.69170  0.22996  0.31560  1.0000
  H   H53       1.0  0.69170  0.27004  0.81560  1.0000
  H   H54       1.0  0.80830  0.27004  0.18440  1.0000
  H   H55       1.0  0.19170  0.77004  0.31560  1.0000
  H   H56       1.0  0.30830  0.77004  0.68440  1.0000
  C   C81       1.0  0.25000  0.73880  0.00000  1.0000
  C   C82       1.0  0.75000  0.23880  0.50000  1.0000
  C   C83       1.0  0.75000  0.26120  0.00000  1.0000
  C   C84       1.0  0.25000  0.76120  0.50000  1.0000
  C   C85       1.0  0.25000  0.79274  0.00000  1.0000
  C   C86       1.0  0.75000  0.29274  0.50000  1.0000
  C   C87       1.0  0.75000  0.20726  0.00000  1.0000
  C   C88       1.0  0.25000  0.70726  0.50000  1.0000
  N   N1        1.0  0.62640  0.42797  0.36160  1.0000
  N   N2        1.0  0.87360  0.42797  0.63840  1.0000
  N   N3        1.0  0.12640  0.92797  0.86160  1.0000
  N   N4        1.0  0.37360  0.92797  0.13840  1.0000
  N   N5        1.0  0.37360  0.57203  0.63840  1.0000
  N   N6        1.0  0.12640  0.57203  0.36160  1.0000
  N   N7        1.0  0.87360  0.07203  0.13840  1.0000
  N   N8        1.0  0.62640  0.07203  0.86160  1.0000
  N   N9        1.0  0.25000  0.48461  0.00000  1.0000
  N   N10       1.0  0.75000  0.98461  0.50000  1.0000
  N   N11       1.0  0.75000  0.51539  0.00000  1.0000
  N   N12       1.0  0.25000  0.01539  0.50000  1.0000
  O   O1        1.0  0.16790  0.81507  0.91501  1.0000
  O   O2        1.0  0.33210  0.81507  0.08499  1.0000
  O   O3        1.0  0.66790  0.31507  0.41501  1.0000
  O   O4        1.0  0.83210  0.31507  0.58499  1.0000
  O   O5        1.0  0.83210  0.18493  0.08499  1.0000
  O   O6        1.0  0.66790  0.18493  0.91501  1.0000
  O   O7        1.0  0.33210  0.68493  0.58499  1.0000
  O   O8        1.0  0.16790  0.68493  0.41501  1.0000
  O   O9        1.0  0.56680  0.38462  0.59370  1.0000
  O   O10       1.0  0.93320  0.38462  0.40630  1.0000
  O   O11       1.0  0.06680  0.88462  0.09370  1.0000
  O   O12       1.0  0.43320  0.88462  0.90630  1.0000
  O   O13       1.0  0.43320  0.61538  0.40630  1.0000
  O   O14       1.0  0.06680  0.61538  0.59370  1.0000
  O   O15       1.0  0.93320  0.11538  0.90630  1.0000
  O   O16       1.0  0.56680  0.11538  0.09370  1.0000
  O   O17       1.0  0.36680  0.37087  0.76381  1.0000
  O   O18       1.0  0.13320  0.37087  0.23619  1.0000
  O   O19       1.0  0.86680  0.87087  0.26381  1.0000
  O   O20       1.0  0.63320  0.87087  0.73619  1.0000
  O   O21       1.0  0.63320  0.62913  0.23619  1.0000
  O   O22       1.0  0.86680  0.62913  0.76381  1.0000
  O   O23       1.0  0.13320  0.12913  0.73619  1.0000
  O   O24       1.0  0.36680  0.12913  0.26381  1.0000
  O   O25       1.0  0.46110  0.29134  0.63850  1.0000
  O   O26       1.0  0.03890  0.29134  0.36150  1.0000
  O   O27       1.0  0.96110  0.79134  0.13850  1.0000
  O   O28       1.0  0.53890  0.79134  0.86150  1.0000
  O   O29       1.0  0.53890  0.70866  0.36150  1.0000
  O   O30       1.0  0.96110  0.70866  0.63850  1.0000
  O   O31       1.0  0.03890  0.20866  0.86150  1.0000
  O   O32       1.0  0.46110  0.20866  0.13850  1.0000
  O   O33       1.0  0.25000  0.36112  0.50000  1.0000
  O   O34       1.0  0.75000  0.86112  0.00000  1.0000
  O   O35       1.0  0.75000  0.63888  0.50000  1.0000
  O   O36       1.0  0.25000  0.13888  0.00000  1.0000
