data_image0
_chemical_formula_structural       C8H4C4H4C4H4C4H4C4H4C8H4C4H4C4H4C4H4C4H4C8H4C4H4C4H4C4H4C4H4C8H4C4H4C4H4C4H4C4H4C8H4C4H4C4H4C4H4C4H4C8H4C4H4C4H4C4H4C4H4C8H4C4H4C4H4C4H4C4H4C8H4C4H4C4H4C4H4C4H4C8H4C4H4C4H4C4H4C4H4O32Mo8Sn12
_chemical_formula_sum              "C216 H180 O32 Mo8 Sn12"
_cell_length_a       14.295
_cell_length_b       22.922
_cell_length_c       22.697
_cell_angle_alpha    90
_cell_angle_beta     107.42
_cell_angle_gamma    90

_space_group_name_H-M_alt    "P 1"
_space_group_IT_number       1

loop_
  _space_group_symop_operation_xyz
  'x, y, z'

loop_
  _atom_site_type_symbol
  _atom_site_label
  _atom_site_symmetry_multiplicity
  _atom_site_fract_x
  _atom_site_fract_y
  _atom_site_fract_z
  _atom_site_occupancy
  C   C1        1.0  0.12950  0.61520  0.57240  1.0000
  C   C2        1.0  0.12950  0.38480  0.07240  1.0000
  C   C3        1.0  0.62950  0.11520  0.57240  1.0000
  C   C4        1.0  0.62950  0.88480  0.07240  1.0000
  C   C5        1.0  0.03680  0.59790  0.53220  1.0000
  C   C6        1.0  0.03680  0.40210  0.03220  1.0000
  C   C7        1.0  0.53680  0.09790  0.53220  1.0000
  C   C8        1.0  0.53680  0.90210  0.03220  1.0000
  H   H1        1.0  0.03180  0.58390  0.49290  1.0000
  H   H2        1.0  0.03180  0.41610  0.99290  1.0000
  H   H3        1.0  0.53180  0.08390  0.49290  1.0000
  H   H4        1.0  0.53180  0.91610  0.99290  1.0000
  C   C9        1.0  0.95560  0.60190  0.55130  1.0000
  C   C10       1.0  0.95560  0.39810  0.05130  1.0000
  C   C11       1.0  0.45560  0.10190  0.55130  1.0000
  C   C12       1.0  0.45560  0.89810  0.05130  1.0000
  H   H5        1.0  0.89480  0.59160  0.52450  1.0000
  H   H6        1.0  0.89480  0.40840  0.02450  1.0000
  H   H7        1.0  0.39480  0.09160  0.52450  1.0000
  H   H8        1.0  0.39480  0.90840  0.02450  1.0000
  C   C13       1.0  0.96270  0.62100  0.60980  1.0000
  C   C14       1.0  0.96270  0.37900  0.10980  1.0000
  C   C15       1.0  0.46270  0.12100  0.60980  1.0000
  C   C16       1.0  0.46270  0.87900  0.10980  1.0000
  H   H9        1.0  0.90690  0.62210  0.62280  1.0000
  H   H10       1.0  0.90690  0.37790  0.12280  1.0000
  H   H11       1.0  0.40690  0.12210  0.62280  1.0000
  H   H12       1.0  0.40690  0.87790  0.12280  1.0000
  C   C17       1.0  0.05120  0.63860  0.64950  1.0000
  C   C18       1.0  0.05120  0.36140  0.14950  1.0000
  C   C19       1.0  0.55120  0.13860  0.64950  1.0000
  C   C20       1.0  0.55120  0.86140  0.14950  1.0000
  H   H13       1.0  0.05500  0.65210  0.68880  1.0000
  H   H14       1.0  0.05500  0.34790  0.18880  1.0000
  H   H15       1.0  0.55500  0.15210  0.68880  1.0000
  H   H16       1.0  0.55500  0.84790  0.18880  1.0000
  C   C21       1.0  0.13220  0.63610  0.63110  1.0000
  C   C22       1.0  0.13220  0.36390  0.13110  1.0000
  C   C23       1.0  0.63220  0.13610  0.63110  1.0000
  C   C24       1.0  0.63220  0.86390  0.13110  1.0000
  H   H17       1.0  0.19170  0.64860  0.65800  1.0000
  H   H18       1.0  0.19170  0.35140  0.15800  1.0000
  H   H19       1.0  0.69170  0.14860  0.65800  1.0000
  H   H20       1.0  0.69170  0.85140  0.15800  1.0000
  C   C25       1.0  0.34100  0.68290  0.53090  1.0000
  C   C26       1.0  0.34100  0.31710  0.03090  1.0000
  C   C27       1.0  0.84100  0.18290  0.53090  1.0000
  C   C28       1.0  0.84100  0.81710  0.03090  1.0000
  C   C29       1.0  0.44030  0.69160  0.56480  1.0000
  C   C30       1.0  0.44030  0.30840  0.06480  1.0000
  C   C31       1.0  0.94030  0.19160  0.56480  1.0000
  C   C32       1.0  0.94030  0.80840  0.06480  1.0000
  H   H21       1.0  0.46940  0.66450  0.59530  1.0000
  H   H22       1.0  0.46940  0.33550  0.09530  1.0000
  H   H23       1.0  0.96940  0.16450  0.59530  1.0000
  H   H24       1.0  0.96940  0.83550  0.09530  1.0000
  C   C33       1.0  0.49550  0.73600  0.55620  1.0000
  C   C34       1.0  0.49550  0.26400  0.05620  1.0000
  C   C35       1.0  0.99550  0.23600  0.55620  1.0000
  C   C36       1.0  0.99550  0.76400  0.05620  1.0000
  H   H25       1.0  0.56010  0.74030  0.58070  1.0000
  H   H26       1.0  0.56010  0.25970  0.08070  1.0000
  H   H27       1.0  0.06010  0.24030  0.58070  1.0000
  H   H28       1.0  0.06010  0.75970  0.08070  1.0000
  C   C37       1.0  0.45270  0.77550  0.50930  1.0000
  C   C38       1.0  0.45270  0.22450  0.00930  1.0000
  C   C39       1.0  0.95270  0.27550  0.50930  1.0000
  C   C40       1.0  0.95270  0.72450  0.00930  1.0000
  H   H29       1.0  0.49000  0.80620  0.50160  1.0000
  H   H30       1.0  0.49000  0.19380  0.00160  1.0000
  H   H31       1.0  0.99000  0.30620  0.50160  1.0000
  H   H32       1.0  0.99000  0.69380  0.00160  1.0000
  C   C41       1.0  0.35520  0.76990  0.47380  1.0000
  C   C42       1.0  0.35520  0.23010  0.97380  1.0000
  C   C43       1.0  0.85520  0.26990  0.47380  1.0000
  C   C44       1.0  0.85520  0.73010  0.97380  1.0000
  H   H33       1.0  0.32750  0.79700  0.44310  1.0000
  H   H34       1.0  0.32750  0.20300  0.94310  1.0000
  H   H35       1.0  0.82750  0.29700  0.44310  1.0000
  H   H36       1.0  0.82750  0.70300  0.94310  1.0000
  C   C45       1.0  0.30030  0.72450  0.48410  1.0000
  C   C46       1.0  0.30030  0.27550  0.98410  1.0000
  C   C47       1.0  0.80030  0.22450  0.48410  1.0000
  C   C48       1.0  0.80030  0.77550  0.98410  1.0000
  H   H37       1.0  0.23520  0.72090  0.46010  1.0000
  H   H38       1.0  0.23520  0.27910  0.96010  1.0000
  H   H39       1.0  0.73520  0.22090  0.46010  1.0000
  H   H40       1.0  0.73520  0.77910  0.96010  1.0000
  C   C49       1.0  0.30330  0.52220  0.52500  1.0000
  C   C50       1.0  0.30330  0.47780  0.02500  1.0000
  C   C51       1.0  0.80330  0.02220  0.52500  1.0000
  C   C52       1.0  0.80330  0.97780  0.02500  1.0000
  C   C53       1.0  0.23870  0.48530  0.48120  1.0000
  C   C54       1.0  0.23870  0.51470  0.98120  1.0000
  C   C55       1.0  0.73870  0.98530  0.48120  1.0000
  C   C56       1.0  0.73870  0.01470  0.98120  1.0000
  H   H41       1.0  0.17760  0.49920  0.45810  1.0000
  H   H42       1.0  0.17760  0.50080  0.95810  1.0000
  H   H43       1.0  0.67760  0.99920  0.45810  1.0000
  H   H44       1.0  0.67760  0.00080  0.95810  1.0000
  C   C57       1.0  0.26610  0.42800  0.47240  1.0000
  C   C58       1.0  0.26610  0.57200  0.97240  1.0000
  C   C59       1.0  0.76610  0.92800  0.47240  1.0000
  C   C60       1.0  0.76610  0.07200  0.97240  1.0000
  H   H45       1.0  0.22360  0.40430  0.44310  1.0000
  H   H46       1.0  0.22360  0.59570  0.94310  1.0000
  H   H47       1.0  0.72360  0.90430  0.44310  1.0000
  H   H48       1.0  0.72360  0.09570  0.94310  1.0000
  C   C61       1.0  0.35450  0.40710  0.50650  1.0000
  C   C62       1.0  0.35450  0.59290  0.00650  1.0000
  C   C63       1.0  0.85450  0.90710  0.50650  1.0000
  C   C64       1.0  0.85450  0.09290  0.00650  1.0000
  H   H49       1.0  0.37120  0.36860  0.50150  1.0000
  H   H50       1.0  0.37120  0.63140  0.00150  1.0000
  H   H51       1.0  0.87120  0.86860  0.50150  1.0000
  H   H52       1.0  0.87120  0.13140  0.00150  1.0000
  C   C65       1.0  0.42040  0.44270  0.54880  1.0000
  C   C66       1.0  0.42040  0.55730  0.04880  1.0000
  C   C67       1.0  0.92040  0.94270  0.54880  1.0000
  C   C68       1.0  0.92040  0.05730  0.04880  1.0000
  H   H53       1.0  0.48240  0.42880  0.57010  1.0000
  H   H54       1.0  0.48240  0.57120  0.07010  1.0000
  H   H55       1.0  0.98240  0.92880  0.57010  1.0000
  H   H56       1.0  0.98240  0.07120  0.07010  1.0000
  C   C69       1.0  0.39380  0.49880  0.55920  1.0000
  C   C70       1.0  0.39380  0.50120  0.05920  1.0000
  C   C71       1.0  0.89380  0.99880  0.55920  1.0000
  C   C72       1.0  0.89380  0.00120  0.05920  1.0000
  H   H57       1.0  0.43680  0.52140  0.58940  1.0000
  H   H58       1.0  0.43680  0.47860  0.08940  1.0000
  H   H59       1.0  0.93680  0.02140  0.58940  1.0000
  H   H60       1.0  0.93680  0.97860  0.08940  1.0000
  C   C73       1.0  0.19220  0.56820  0.80760  1.0000
  C   C74       1.0  0.19220  0.43180  0.30760  1.0000
  C   C75       1.0  0.69220  0.06820  0.80760  1.0000
  C   C76       1.0  0.69220  0.93180  0.30760  1.0000
  C   C77       1.0  0.09830  0.56830  0.81540  1.0000
  C   C78       1.0  0.09830  0.43170  0.31540  1.0000
  C   C79       1.0  0.59830  0.06830  0.81540  1.0000
  C   C80       1.0  0.59830  0.93170  0.31540  1.0000
  H   H61       1.0  0.06410  0.53330  0.81220  1.0000
  H   H62       1.0  0.06410  0.46670  0.31220  1.0000
  H   H63       1.0  0.56410  0.03330  0.81220  1.0000
  H   H64       1.0  0.56410  0.96670  0.31220  1.0000
  C   C81       1.0  0.05510  0.61960  0.82800  1.0000
  C   C82       1.0  0.05510  0.38040  0.32800  1.0000
  C   C83       1.0  0.55510  0.11960  0.82800  1.0000
  C   C84       1.0  0.55510  0.88040  0.32800  1.0000
  H   H65       1.0  0.99370  0.61870  0.83420  1.0000
  H   H66       1.0  0.99370  0.38130  0.33420  1.0000
  H   H67       1.0  0.49370  0.11870  0.83420  1.0000
  H   H68       1.0  0.49370  0.88130  0.33420  1.0000
  C   C85       1.0  0.10540  0.67170  0.83090  1.0000
  C   C86       1.0  0.10540  0.32830  0.33090  1.0000
  C   C87       1.0  0.60540  0.17170  0.83090  1.0000
  C   C88       1.0  0.60540  0.82830  0.33090  1.0000
  H   H69       1.0  0.07610  0.70610  0.83810  1.0000
  H   H70       1.0  0.07610  0.29390  0.33810  1.0000
  H   H71       1.0  0.57610  0.20610  0.83810  1.0000
  H   H72       1.0  0.57610  0.79390  0.33810  1.0000
  C   C89       1.0  0.19540  0.67410  0.82350  1.0000
  C   C90       1.0  0.19540  0.32590  0.32350  1.0000
  C   C91       1.0  0.69540  0.17410  0.82350  1.0000
  C   C92       1.0  0.69540  0.82590  0.32350  1.0000
  H   H73       1.0  0.22750  0.70970  0.82560  1.0000
  H   H74       1.0  0.22750  0.29030  0.32560  1.0000
  H   H75       1.0  0.72750  0.20970  0.82560  1.0000
  H   H76       1.0  0.72750  0.79030  0.32560  1.0000
  C   C93       1.0  0.23940  0.62350  0.81280  1.0000
  C   C94       1.0  0.23940  0.37650  0.31280  1.0000
  C   C95       1.0  0.73940  0.12350  0.81280  1.0000
  C   C96       1.0  0.73940  0.87650  0.31280  1.0000
  H   H77       1.0  0.30220  0.62550  0.80880  1.0000
  H   H78       1.0  0.30220  0.37450  0.30880  1.0000
  H   H79       1.0  0.80220  0.12550  0.80880  1.0000
  H   H80       1.0  0.80220  0.87450  0.30880  1.0000
  C   C97       1.0  0.21200  0.44210  0.70860  1.0000
  C   C98       1.0  0.21200  0.55790  0.20860  1.0000
  C   C99       1.0  0.71200  0.94210  0.70860  1.0000
  C   C100      1.0  0.71200  0.05790  0.20860  1.0000
  C   C101      1.0  0.17700  0.46760  0.65130  1.0000
  C   C102      1.0  0.17700  0.53240  0.15130  1.0000
  C   C103      1.0  0.67700  0.96760  0.65130  1.0000
  C   C104      1.0  0.67700  0.03240  0.15130  1.0000
  H   H81       1.0  0.17230  0.50800  0.64840  1.0000
  H   H82       1.0  0.17230  0.49200  0.14840  1.0000
  H   H83       1.0  0.67230  0.00800  0.64840  1.0000
  H   H84       1.0  0.67230  0.99200  0.14840  1.0000
  C   C105      1.0  0.14830  0.43420  0.59760  1.0000
  C   C106      1.0  0.14830  0.56580  0.09760  1.0000
  C   C107      1.0  0.64830  0.93420  0.59760  1.0000
  C   C108      1.0  0.64830  0.06580  0.09760  1.0000
  H   H85       1.0  0.12450  0.45250  0.55940  1.0000
  H   H86       1.0  0.12450  0.54750  0.05940  1.0000
  H   H87       1.0  0.62450  0.95250  0.55940  1.0000
  H   H88       1.0  0.62450  0.04750  0.05940  1.0000
  C   C109      1.0  0.15500  0.37610  0.60080  1.0000
  C   C110      1.0  0.15500  0.62390  0.10080  1.0000
  C   C111      1.0  0.65500  0.87610  0.60080  1.0000
  C   C112      1.0  0.65500  0.12390  0.10080  1.0000
  H   H89       1.0  0.13700  0.35450  0.56440  1.0000
  H   H90       1.0  0.13700  0.64550  0.06440  1.0000
  H   H91       1.0  0.63700  0.85450  0.56440  1.0000
  H   H92       1.0  0.63700  0.14550  0.06440  1.0000
  C   C113      1.0  0.18760  0.34770  0.65600  1.0000
  C   C114      1.0  0.18760  0.65230  0.15600  1.0000
  C   C115      1.0  0.68760  0.84770  0.65600  1.0000
  C   C116      1.0  0.68760  0.15230  0.15600  1.0000
  H   H93       1.0  0.19020  0.30710  0.65760  1.0000
  H   H94       1.0  0.19020  0.69290  0.15760  1.0000
  H   H95       1.0  0.69020  0.80710  0.65760  1.0000
  H   H96       1.0  0.69020  0.19290  0.15760  1.0000
  C   C117      1.0  0.21650  0.38040  0.70920  1.0000
  C   C118      1.0  0.21650  0.61960  0.20920  1.0000
  C   C119      1.0  0.71650  0.88040  0.70920  1.0000
  C   C120      1.0  0.71650  0.11960  0.20920  1.0000
  H   H97       1.0  0.24000  0.36130  0.74690  1.0000
  H   H98       1.0  0.24000  0.63870  0.24690  1.0000
  H   H99       1.0  0.74000  0.86130  0.74690  1.0000
  H   H100      1.0  0.74000  0.13870  0.24690  1.0000
  C   C121      1.0  0.38060  0.45650  0.86440  1.0000
  C   C122      1.0  0.38060  0.54350  0.36440  1.0000
  C   C123      1.0  0.88060  0.95650  0.86440  1.0000
  C   C124      1.0  0.88060  0.04350  0.36440  1.0000
  C   C125      1.0  0.38890  0.39630  0.88090  1.0000
  C   C126      1.0  0.38890  0.60370  0.38090  1.0000
  C   C127      1.0  0.88890  0.89630  0.88090  1.0000
  C   C128      1.0  0.88890  0.10370  0.38090  1.0000
  H   H101      1.0  0.34150  0.37020  0.85880  1.0000
  H   H102      1.0  0.34150  0.62980  0.35880  1.0000
  H   H103      1.0  0.84150  0.87020  0.85880  1.0000
  H   H104      1.0  0.84150  0.12980  0.35880  1.0000
  C   C129      1.0  0.46600  0.37620  0.92890  1.0000
  C   C130      1.0  0.46600  0.62380  0.42890  1.0000
  C   C131      1.0  0.96600  0.87620  0.92890  1.0000
  C   C132      1.0  0.96600  0.12380  0.42890  1.0000
  H   H105      1.0  0.46940  0.33680  0.93920  1.0000
  H   H106      1.0  0.46940  0.66320  0.43920  1.0000
  H   H107      1.0  0.96940  0.83680  0.93920  1.0000
  H   H108      1.0  0.96940  0.16320  0.43920  1.0000
  C   C133      1.0  0.53600  0.41260  0.96130  1.0000
  C   C134      1.0  0.53600  0.58740  0.46130  1.0000
  C   C135      1.0  0.03600  0.91260  0.96130  1.0000
  C   C136      1.0  0.03600  0.08740  0.46130  1.0000
  H   H109      1.0  0.58790  0.39840  0.99340  1.0000
  H   H110      1.0  0.58790  0.60160  0.49340  1.0000
  H   H111      1.0  0.08790  0.89840  0.99340  1.0000
  H   H112      1.0  0.08790  0.10160  0.49340  1.0000
  C   C137      1.0  0.53100  0.47040  0.94670  1.0000
  C   C138      1.0  0.53100  0.52960  0.44670  1.0000
  C   C139      1.0  0.03100  0.97040  0.94670  1.0000
  C   C140      1.0  0.03100  0.02960  0.44670  1.0000
  H   H113      1.0  0.57980  0.49540  0.96950  1.0000
  H   H114      1.0  0.57980  0.50460  0.46950  1.0000
  H   H115      1.0  0.07980  0.99540  0.96950  1.0000
  H   H116      1.0  0.07980  0.00460  0.46950  1.0000
  C   C141      1.0  0.45620  0.49270  0.89970  1.0000
  C   C142      1.0  0.45620  0.50730  0.39970  1.0000
  C   C143      1.0  0.95620  0.99270  0.89970  1.0000
  C   C144      1.0  0.95620  0.00730  0.39970  1.0000
  H   H117      1.0  0.45520  0.53230  0.89080  1.0000
  H   H118      1.0  0.45520  0.46770  0.39080  1.0000
  H   H119      1.0  0.95520  0.03230  0.89080  1.0000
  H   H120      1.0  0.95520  0.96770  0.39080  1.0000
  C   C145      1.0  0.53530  0.71060  0.88680  1.0000
  C   C146      1.0  0.53530  0.28940  0.38680  1.0000
  C   C147      1.0  0.03530  0.21060  0.88680  1.0000
  C   C148      1.0  0.03530  0.78940  0.38680  1.0000
  C   C149      1.0  0.56500  0.65490  0.91070  1.0000
  C   C150      1.0  0.56500  0.34510  0.41070  1.0000
  C   C151      1.0  0.06500  0.15490  0.91070  1.0000
  C   C152      1.0  0.06500  0.84510  0.41070  1.0000
  H   H121      1.0  0.57770  0.62650  0.88470  1.0000
  H   H122      1.0  0.57770  0.37350  0.38470  1.0000
  H   H123      1.0  0.07770  0.12650  0.88470  1.0000
  H   H124      1.0  0.07770  0.87350  0.38470  1.0000
  C   C153      1.0  0.57590  0.64120  0.97090  1.0000
  C   C154      1.0  0.57590  0.35880  0.47090  1.0000
  C   C155      1.0  0.07590  0.14120  0.97090  1.0000
  C   C156      1.0  0.07590  0.85880  0.47090  1.0000
  H   H125      1.0  0.59720  0.60420  0.98580  1.0000
  H   H126      1.0  0.59720  0.39580  0.48580  1.0000
  H   H127      1.0  0.09720  0.10420  0.98580  1.0000
  H   H128      1.0  0.09720  0.89580  0.48580  1.0000
  C   C157      1.0  0.55530  0.68200  0.00910  1.0000
  C   C158      1.0  0.55530  0.31800  0.50910  1.0000
  C   C159      1.0  0.05530  0.18200  0.00910  1.0000
  C   C160      1.0  0.05530  0.81800  0.50910  1.0000
  H   H129      1.0  0.56300  0.67230  0.05010  1.0000
  H   H130      1.0  0.56300  0.32770  0.55010  1.0000
  H   H131      1.0  0.06300  0.17230  0.05010  1.0000
  H   H132      1.0  0.06300  0.82770  0.55010  1.0000
  C   C161      1.0  0.52400  0.73650  0.98870  1.0000
  C   C162      1.0  0.52400  0.26350  0.48870  1.0000
  C   C163      1.0  0.02400  0.23650  0.98870  1.0000
  C   C164      1.0  0.02400  0.76350  0.48870  1.0000
  H   H133      1.0  0.50910  0.76330  0.01530  1.0000
  H   H134      1.0  0.50910  0.23670  0.51530  1.0000
  H   H135      1.0  0.00910  0.26330  0.01530  1.0000
  H   H136      1.0  0.00910  0.73670  0.51530  1.0000
  C   C165      1.0  0.51430  0.75190  0.92830  1.0000
  C   C166      1.0  0.51430  0.24810  0.42830  1.0000
  C   C167      1.0  0.01430  0.25190  0.92830  1.0000
  C   C168      1.0  0.01430  0.74810  0.42830  1.0000
  H   H137      1.0  0.49400  0.78940  0.91460  1.0000
  H   H138      1.0  0.49400  0.21060  0.41460  1.0000
  H   H139      1.0  0.99400  0.28940  0.91460  1.0000
  H   H140      1.0  0.99400  0.71060  0.41460  1.0000
  C   C169      1.0  0.66450  0.71270  0.77150  1.0000
  C   C170      1.0  0.66450  0.28730  0.27150  1.0000
  C   C171      1.0  0.16450  0.21270  0.77150  1.0000
  C   C172      1.0  0.16450  0.78730  0.27150  1.0000
  C   C173      1.0  0.66430  0.67480  0.72180  1.0000
  C   C174      1.0  0.66430  0.32520  0.22180  1.0000
  C   C175      1.0  0.16430  0.17480  0.72180  1.0000
  C   C176      1.0  0.16430  0.82520  0.22180  1.0000
  H   H141      1.0  0.60570  0.65740  0.69920  1.0000
  H   H142      1.0  0.60570  0.34260  0.19920  1.0000
  H   H143      1.0  0.10570  0.15740  0.69920  1.0000
  H   H144      1.0  0.10570  0.84260  0.19920  1.0000
  C   C177      1.0  0.74710  0.66330  0.70640  1.0000
  C   C178      1.0  0.74710  0.33670  0.20640  1.0000
  C   C179      1.0  0.24710  0.16330  0.70640  1.0000
  C   C180      1.0  0.24710  0.83670  0.20640  1.0000
  H   H145      1.0  0.74480  0.63850  0.67350  1.0000
  H   H146      1.0  0.74480  0.36150  0.17350  1.0000
  H   H147      1.0  0.24480  0.13850  0.67350  1.0000
  H   H148      1.0  0.24480  0.86150  0.17350  1.0000
  C   C181      1.0  0.83490  0.68830  0.73970  1.0000
  C   C182      1.0  0.83490  0.31170  0.23970  1.0000
  C   C183      1.0  0.33490  0.18830  0.73970  1.0000
  C   C184      1.0  0.33490  0.81170  0.23970  1.0000
  H   H149      1.0  0.89150  0.68020  0.72900  1.0000
  H   H150      1.0  0.89150  0.31980  0.22900  1.0000
  H   H151      1.0  0.39150  0.18020  0.72900  1.0000
  H   H152      1.0  0.39150  0.81980  0.22900  1.0000
  C   C185      1.0  0.83970  0.72450  0.78780  1.0000
  C   C186      1.0  0.83970  0.27550  0.28780  1.0000
  C   C187      1.0  0.33970  0.22450  0.78780  1.0000
  C   C188      1.0  0.33970  0.77550  0.28780  1.0000
  H   H153      1.0  0.89950  0.74080  0.81010  1.0000
  H   H154      1.0  0.89950  0.25920  0.31010  1.0000
  H   H155      1.0  0.39950  0.24080  0.81010  1.0000
  H   H156      1.0  0.39950  0.75920  0.31010  1.0000
  C   C189      1.0  0.75700  0.73710  0.80360  1.0000
  C   C190      1.0  0.75700  0.26290  0.30360  1.0000
  C   C191      1.0  0.25700  0.23710  0.80360  1.0000
  C   C192      1.0  0.25700  0.76290  0.30360  1.0000
  H   H157      1.0  0.76140  0.76250  0.83640  1.0000
  H   H158      1.0  0.76140  0.23750  0.33640  1.0000
  H   H159      1.0  0.26140  0.26250  0.83640  1.0000
  H   H160      1.0  0.26140  0.73750  0.33640  1.0000
  C   C193      1.0  0.42520  0.77690  0.72450  1.0000
  C   C194      1.0  0.42520  0.22310  0.22450  1.0000
  C   C195      1.0  0.92520  0.27690  0.72450  1.0000
  C   C196      1.0  0.92520  0.72310  0.22450  1.0000
  C   C197      1.0  0.32880  0.75670  0.70190  1.0000
  C   C198      1.0  0.32880  0.24330  0.20190  1.0000
  C   C199      1.0  0.82880  0.25670  0.70190  1.0000
  C   C200      1.0  0.82880  0.74330  0.20190  1.0000
  H   H161      1.0  0.30790  0.72670  0.72260  1.0000
  H   H162      1.0  0.30790  0.27330  0.22260  1.0000
  H   H163      1.0  0.80790  0.22670  0.72260  1.0000
  H   H164      1.0  0.80790  0.77330  0.22260  1.0000
  C   C201      1.0  0.26370  0.78040  0.64910  1.0000
  C   C202      1.0  0.26370  0.21960  0.14910  1.0000
  C   C203      1.0  0.76370  0.28040  0.64910  1.0000
  C   C204      1.0  0.76370  0.71960  0.14910  1.0000
  H   H165      1.0  0.19940  0.76710  0.63510  1.0000
  H   H166      1.0  0.19940  0.23290  0.13510  1.0000
  H   H167      1.0  0.69940  0.26710  0.63510  1.0000
  H   H168      1.0  0.69940  0.73290  0.13510  1.0000
  C   C205      1.0  0.29540  0.82360  0.61810  1.0000
  C   C206      1.0  0.29540  0.17640  0.11810  1.0000
  C   C207      1.0  0.79540  0.32360  0.61810  1.0000
  C   C208      1.0  0.79540  0.67640  0.11810  1.0000
  H   H169      1.0  0.25270  0.83790  0.58150  1.0000
  H   H170      1.0  0.25270  0.16210  0.08150  1.0000
  H   H171      1.0  0.75270  0.33790  0.58150  1.0000
  H   H172      1.0  0.75270  0.66210  0.08150  1.0000
  C   C209      1.0  0.39000  0.84710  0.63960  1.0000
  C   C210      1.0  0.39000  0.15290  0.13960  1.0000
  C   C211      1.0  0.89000  0.34710  0.63960  1.0000
  C   C212      1.0  0.89000  0.65290  0.13960  1.0000
  H   H173      1.0  0.40970  0.87780  0.61910  1.0000
  H   H174      1.0  0.40970  0.12220  0.11910  1.0000
  H   H175      1.0  0.90970  0.37780  0.61910  1.0000
  H   H176      1.0  0.90970  0.62220  0.11910  1.0000
  C   C213      1.0  0.45250  0.82300  0.69210  1.0000
  C   C214      1.0  0.45250  0.17700  0.19210  1.0000
  C   C215      1.0  0.95250  0.32300  0.69210  1.0000
  C   C216      1.0  0.95250  0.67700  0.19210  1.0000
  H   H177      1.0  0.51570  0.83790  0.70700  1.0000
  H   H178      1.0  0.51570  0.16210  0.20700  1.0000
  H   H179      1.0  0.01570  0.33790  0.70700  1.0000
  H   H180      1.0  0.01570  0.66210  0.20700  1.0000
  O   O1        1.0  0.35070  0.60170  0.64210  1.0000
  O   O2        1.0  0.35070  0.39830  0.14210  1.0000
  O   O3        1.0  0.85070  0.10170  0.64210  1.0000
  O   O4        1.0  0.85070  0.89830  0.14210  1.0000
  O   O5        1.0  0.36120  0.54140  0.75640  1.0000
  O   O6        1.0  0.36120  0.45860  0.25640  1.0000
  O   O7        1.0  0.86120  0.04140  0.75640  1.0000
  O   O8        1.0  0.86120  0.95860  0.25640  1.0000
  O   O9        1.0  0.46820  0.64840  0.76050  1.0000
  O   O10       1.0  0.46820  0.35160  0.26050  1.0000
  O   O11       1.0  0.96820  0.14840  0.76050  1.0000
  O   O12       1.0  0.96820  0.85160  0.26050  1.0000
  O   O13       1.0  0.52430  0.54530  0.71210  1.0000
  O   O14       1.0  0.52430  0.45470  0.21210  1.0000
  O   O15       1.0  0.02430  0.04530  0.71210  1.0000
  O   O16       1.0  0.02430  0.95470  0.21210  1.0000
  O   O17       1.0  0.16680  0.61490  0.44550  1.0000
  O   O18       1.0  0.16680  0.38510  0.94550  1.0000
  O   O19       1.0  0.66680  0.11490  0.44550  1.0000
  O   O20       1.0  0.66680  0.88510  0.94550  1.0000
  O   O21       1.0  0.15960  0.43870  0.82910  1.0000
  O   O22       1.0  0.15960  0.56130  0.32910  1.0000
  O   O23       1.0  0.65960  0.93870  0.82910  1.0000
  O   O24       1.0  0.65960  0.06130  0.32910  1.0000
  O   O25       1.0  0.98760  0.58960  0.35760  1.0000
  O   O26       1.0  0.98760  0.41040  0.85760  1.0000
  O   O27       1.0  0.48760  0.08960  0.35760  1.0000
  O   O28       1.0  0.48760  0.91040  0.85760  1.0000
  O   O29       1.0  0.60110  0.81890  0.83170  1.0000
  O   O30       1.0  0.60110  0.18110  0.33170  1.0000
  O   O31       1.0  0.10110  0.31890  0.83170  1.0000
  O   O32       1.0  0.10110  0.68110  0.33170  1.0000
  Mo  Mo1       1.0  0.42544  0.58407  0.71707  1.0000
  Mo  Mo2       1.0  0.42544  0.41593  0.21707  1.0000
  Mo  Mo3       1.0  0.92544  0.08407  0.71707  1.0000
  Mo  Mo4       1.0  0.92544  0.91593  0.21707  1.0000
  Mo  Mo5       1.0  0.10330  0.61184  0.36564  1.0000
  Mo  Mo6       1.0  0.10330  0.38816  0.86564  1.0000
  Mo  Mo7       1.0  0.60330  0.11184  0.36564  1.0000
  Mo  Mo8       1.0  0.60330  0.88816  0.86564  1.0000
  Sn  Sn1       1.0  0.25952  0.60822  0.54305  1.0000
  Sn  Sn2       1.0  0.25952  0.39178  0.04305  1.0000
  Sn  Sn3       1.0  0.75952  0.10822  0.54305  1.0000
  Sn  Sn4       1.0  0.75952  0.89178  0.04305  1.0000
  Sn  Sn5       1.0  0.26073  0.49005  0.79282  1.0000
  Sn  Sn6       1.0  0.26073  0.50995  0.29282  1.0000
  Sn  Sn7       1.0  0.76073  0.99005  0.79282  1.0000
  Sn  Sn8       1.0  0.76073  0.00995  0.29282  1.0000
  Sn  Sn9       1.0  0.53594  0.73337  0.79505  1.0000
  Sn  Sn10      1.0  0.53594  0.26663  0.29505  1.0000
  Sn  Sn11      1.0  0.03594  0.23337  0.79505  1.0000
  Sn  Sn12      1.0  0.03594  0.76663  0.29505  1.0000
