data_image0
_chemical_formula_structural       C8H4C4H4C4H4C4H4C4H4C8H4C4H4C4H4C4H4C4H4C8H4C4H4C4H4C4H4C4H4C8H4C4H4C4H4C4H4C4H4C8H4C4H4C4H4C4H4C4H4C8H4C4H4C4H4C4H4C4H4C8H4C4H4C4H4C4H4C4H4C8H4C4H4C4H4C4H4C4H4C8H4C4H4C4H4C4H4C4H4Sn12Mo8O32
_chemical_formula_sum              "C216 H180 Sn12 Mo8 O32"
_cell_length_a       18.2054
_cell_length_b       18.4857
_cell_length_c       21.4388
_cell_angle_alpha    90
_cell_angle_beta     90
_cell_angle_gamma    90

_space_group_name_H-M_alt    "P 1"
_space_group_IT_number       1

loop_
  _space_group_symop_operation_xyz
  'x, y, z'

loop_
  _atom_site_type_symbol
  _atom_site_label
  _atom_site_symmetry_multiplicity
  _atom_site_fract_x
  _atom_site_fract_y
  _atom_site_fract_z
  _atom_site_occupancy
  C   C1        1.0  0.36560  0.30910  0.10272  1.0000
  C   C2        1.0  0.13440  0.69090  0.60272  1.0000
  C   C3        1.0  0.86560  0.19090  0.89728  1.0000
  C   C4        1.0  0.63440  0.80910  0.39728  1.0000
  C   C5        1.0  0.34880  0.31950  0.04017  1.0000
  C   C6        1.0  0.15120  0.68050  0.54017  1.0000
  C   C7        1.0  0.84880  0.18050  0.95983  1.0000
  C   C8        1.0  0.65120  0.81950  0.45983  1.0000
  H   H1        1.0  0.33720  0.36560  0.02590  1.0000
  H   H2        1.0  0.16280  0.63440  0.52590  1.0000
  H   H3        1.0  0.83720  0.13440  0.97410  1.0000
  H   H4        1.0  0.66280  0.86560  0.47410  1.0000
  C   C9        1.0  0.34920  0.26190  0.99860  1.0000
  C   C10       1.0  0.15080  0.73810  0.49860  1.0000
  C   C11       1.0  0.84920  0.23810  0.00140  1.0000
  C   C12       1.0  0.65080  0.76190  0.50140  1.0000
  H   H5        1.0  0.33720  0.26980  0.95700  1.0000
  H   H6        1.0  0.16280  0.73020  0.45700  1.0000
  H   H7        1.0  0.83720  0.23020  0.04300  1.0000
  H   H8        1.0  0.66280  0.76980  0.54300  1.0000
  C   C13       1.0  0.36720  0.19400  0.01820  1.0000
  C   C14       1.0  0.13280  0.80600  0.51820  1.0000
  C   C15       1.0  0.86720  0.30600  0.98180  1.0000
  C   C16       1.0  0.63280  0.69400  0.48180  1.0000
  H   H9        1.0  0.36790  0.15570  0.99000  1.0000
  H   H10       1.0  0.13210  0.84430  0.49000  1.0000
  H   H11       1.0  0.86790  0.34430  0.01000  1.0000
  H   H12       1.0  0.63210  0.65570  0.51000  1.0000
  C   C17       1.0  0.38450  0.18220  0.08030  1.0000
  C   C18       1.0  0.11550  0.81780  0.58030  1.0000
  C   C19       1.0  0.88450  0.31780  0.91970  1.0000
  C   C20       1.0  0.61550  0.68220  0.41970  1.0000
  H   H13       1.0  0.39720  0.13600  0.09380  1.0000
  H   H14       1.0  0.10280  0.86400  0.59380  1.0000
  H   H15       1.0  0.89720  0.36400  0.90620  1.0000
  H   H16       1.0  0.60280  0.63600  0.40620  1.0000
  C   C21       1.0  0.38280  0.23920  0.12270  1.0000
  C   C22       1.0  0.11720  0.76080  0.62270  1.0000
  C   C23       1.0  0.88280  0.26080  0.87730  1.0000
  C   C24       1.0  0.61720  0.73920  0.37730  1.0000
  H   H17       1.0  0.39320  0.23070  0.16450  1.0000
  H   H18       1.0  0.10680  0.76930  0.66450  1.0000
  H   H19       1.0  0.89320  0.26930  0.83550  1.0000
  H   H20       1.0  0.60680  0.73070  0.33550  1.0000
  C   C25       1.0  0.47120  0.40380  0.22189  1.0000
  C   C26       1.0  0.02880  0.59620  0.72189  1.0000
  C   C27       1.0  0.97120  0.09620  0.77811  1.0000
  C   C28       1.0  0.52880  0.90380  0.27811  1.0000
  C   C29       1.0  0.53380  0.43680  0.20068  1.0000
  C   C30       1.0  0.96620  0.56320  0.70068  1.0000
  C   C31       1.0  0.03380  0.06320  0.79932  1.0000
  C   C32       1.0  0.46620  0.93680  0.29932  1.0000
  H   H21       1.0  0.53330  0.45890  0.16170  1.0000
  H   H22       1.0  0.96670  0.54110  0.66170  1.0000
  H   H23       1.0  0.03330  0.04110  0.83830  1.0000
  H   H24       1.0  0.46670  0.95890  0.33830  1.0000
  C   C33       1.0  0.59750  0.43810  0.23570  1.0000
  C   C34       1.0  0.90250  0.56190  0.73570  1.0000
  C   C35       1.0  0.09750  0.06190  0.76430  1.0000
  C   C36       1.0  0.40250  0.93810  0.26430  1.0000
  H   H25       1.0  0.63910  0.46080  0.21980  1.0000
  H   H26       1.0  0.86090  0.53920  0.71980  1.0000
  H   H27       1.0  0.13910  0.03920  0.78020  1.0000
  H   H28       1.0  0.36090  0.96080  0.28020  1.0000
  C   C37       1.0  0.60040  0.40690  0.29290  1.0000
  C   C38       1.0  0.89960  0.59310  0.79290  1.0000
  C   C39       1.0  0.10040  0.09310  0.70710  1.0000
  C   C40       1.0  0.39960  0.90690  0.20710  1.0000
  H   H29       1.0  0.64390  0.40670  0.31570  1.0000
  H   H30       1.0  0.85610  0.59330  0.81570  1.0000
  H   H31       1.0  0.14390  0.09330  0.68430  1.0000
  H   H32       1.0  0.35610  0.90670  0.18430  1.0000
  C   C41       1.0  0.53880  0.37610  0.31600  1.0000
  C   C42       1.0  0.96120  0.62390  0.81600  1.0000
  C   C43       1.0  0.03880  0.12390  0.68400  1.0000
  C   C44       1.0  0.46120  0.87610  0.18400  1.0000
  H   H33       1.0  0.53950  0.35580  0.35570  1.0000
  H   H34       1.0  0.96050  0.64420  0.85570  1.0000
  H   H35       1.0  0.03950  0.14420  0.64430  1.0000
  H   H36       1.0  0.46050  0.85580  0.14430  1.0000
  C   C45       1.0  0.47430  0.37440  0.28110  1.0000
  C   C46       1.0  0.02570  0.62560  0.78110  1.0000
  C   C47       1.0  0.97430  0.12560  0.71890  1.0000
  C   C48       1.0  0.52570  0.87440  0.21890  1.0000
  H   H37       1.0  0.43250  0.35310  0.29790  1.0000
  H   H38       1.0  0.06750  0.64690  0.79790  1.0000
  H   H39       1.0  0.93250  0.14690  0.70210  1.0000
  H   H40       1.0  0.56750  0.85310  0.20210  1.0000
  C   C49       1.0  0.28650  0.47551  0.17233  1.0000
  C   C50       1.0  0.21350  0.52449  0.67233  1.0000
  C   C51       1.0  0.78650  0.02449  0.82767  1.0000
  C   C52       1.0  0.71350  0.97551  0.32767  1.0000
  C   C53       1.0  0.25130  0.49080  0.22866  1.0000
  C   C54       1.0  0.24870  0.50920  0.72866  1.0000
  C   C55       1.0  0.75130  0.00920  0.77134  1.0000
  C   C56       1.0  0.74870  0.99080  0.27134  1.0000
  H   H41       1.0  0.26320  0.46450  0.26420  1.0000
  H   H42       1.0  0.23680  0.53550  0.76420  1.0000
  H   H43       1.0  0.76320  0.03550  0.73580  1.0000
  H   H44       1.0  0.73680  0.96450  0.23580  1.0000
  C   C57       1.0  0.19850  0.54500  0.23200  1.0000
  C   C58       1.0  0.30150  0.45500  0.73200  1.0000
  C   C59       1.0  0.69850  0.95500  0.76800  1.0000
  C   C60       1.0  0.80150  0.04500  0.26800  1.0000
  H   H45       1.0  0.17700  0.55620  0.27010  1.0000
  H   H46       1.0  0.32300  0.44380  0.77010  1.0000
  H   H47       1.0  0.67700  0.94380  0.72990  1.0000
  H   H48       1.0  0.82300  0.05620  0.22990  1.0000
  C   C61       1.0  0.17770  0.58240  0.17910  1.0000
  C   C62       1.0  0.32230  0.41760  0.67910  1.0000
  C   C63       1.0  0.67770  0.91760  0.82090  1.0000
  C   C64       1.0  0.82230  0.08240  0.32090  1.0000
  H   H49       1.0  0.14170  0.61800  0.18160  1.0000
  H   H50       1.0  0.35830  0.38200  0.68160  1.0000
  H   H51       1.0  0.64170  0.88200  0.81840  1.0000
  H   H52       1.0  0.85830  0.11800  0.31840  1.0000
  C   C65       1.0  0.21040  0.56680  0.12240  1.0000
  C   C66       1.0  0.28960  0.43320  0.62240  1.0000
  C   C67       1.0  0.71040  0.93320  0.87760  1.0000
  C   C68       1.0  0.78960  0.06680  0.37760  1.0000
  H   H53       1.0  0.19650  0.59190  0.08670  1.0000
  H   H54       1.0  0.30350  0.40810  0.58670  1.0000
  H   H55       1.0  0.69650  0.90810  0.91330  1.0000
  H   H56       1.0  0.80350  0.09190  0.41330  1.0000
  C   C69       1.0  0.26390  0.51400  0.11898  1.0000
  C   C70       1.0  0.23610  0.48600  0.61898  1.0000
  C   C71       1.0  0.76390  0.98600  0.88102  1.0000
  C   C72       1.0  0.73610  0.01400  0.38102  1.0000
  H   H57       1.0  0.28540  0.50360  0.08070  1.0000
  H   H58       1.0  0.21460  0.49640  0.58070  1.0000
  H   H59       1.0  0.78540  0.99640  0.91930  1.0000
  H   H60       1.0  0.71460  0.00360  0.41930  1.0000
  C   C73       1.0  0.33750  0.73253  0.97296  1.0000
  C   C74       1.0  0.16250  0.26747  0.47296  1.0000
  C   C75       1.0  0.83750  0.76747  0.02704  1.0000
  C   C76       1.0  0.66250  0.23253  0.52704  1.0000
  C   C77       1.0  0.33440  0.73130  0.03826  1.0000
  C   C78       1.0  0.16560  0.26870  0.53826  1.0000
  C   C79       1.0  0.83440  0.76870  0.96174  1.0000
  C   C80       1.0  0.66560  0.23130  0.46174  1.0000
  H   H61       1.0  0.33370  0.68720  0.05910  1.0000
  H   H62       1.0  0.16630  0.31280  0.55910  1.0000
  H   H63       1.0  0.83370  0.81280  0.94090  1.0000
  H   H64       1.0  0.66630  0.18720  0.44090  1.0000
  C   C81       1.0  0.33220  0.79520  0.07203  1.0000
  C   C82       1.0  0.16780  0.20480  0.57203  1.0000
  C   C83       1.0  0.83220  0.70480  0.92797  1.0000
  C   C84       1.0  0.66780  0.29520  0.42797  1.0000
  H   H65       1.0  0.33080  0.79350  0.11540  1.0000
  H   H66       1.0  0.16920  0.20650  0.61540  1.0000
  H   H67       1.0  0.83080  0.70650  0.88460  1.0000
  H   H68       1.0  0.66920  0.29350  0.38460  1.0000
  C   C85       1.0  0.33210  0.86120  0.04200  1.0000
  C   C86       1.0  0.16790  0.13880  0.54200  1.0000
  C   C87       1.0  0.83210  0.63880  0.95800  1.0000
  C   C88       1.0  0.66790  0.36120  0.45800  1.0000
  H   H69       1.0  0.33000  0.90370  0.06510  1.0000
  H   H70       1.0  0.17000  0.09630  0.56510  1.0000
  H   H71       1.0  0.83000  0.59630  0.93490  1.0000
  H   H72       1.0  0.67000  0.40370  0.43490  1.0000
  C   C89       1.0  0.33510  0.86400  0.97711  1.0000
  C   C90       1.0  0.16490  0.13600  0.47711  1.0000
  C   C91       1.0  0.83510  0.63600  0.02289  1.0000
  C   C92       1.0  0.66490  0.36400  0.52289  1.0000
  H   H73       1.0  0.33560  0.90830  0.95660  1.0000
  H   H74       1.0  0.16440  0.09170  0.45660  1.0000
  H   H75       1.0  0.83560  0.59170  0.04340  1.0000
  H   H76       1.0  0.66440  0.40830  0.54340  1.0000
  C   C93       1.0  0.33720  0.79960  0.94335  1.0000
  C   C94       1.0  0.16280  0.20040  0.44335  1.0000
  C   C95       1.0  0.83720  0.70040  0.05665  1.0000
  C   C96       1.0  0.66280  0.29960  0.55665  1.0000
  H   H77       1.0  0.33860  0.80150  0.90000  1.0000
  H   H78       1.0  0.16140  0.19850  0.40000  1.0000
  H   H79       1.0  0.83860  0.69850  0.10000  1.0000
  H   H80       1.0  0.66140  0.30150  0.60000  1.0000
  C   C97       1.0  0.44070  0.61650  0.86538  1.0000
  C   C98       1.0  0.05930  0.38350  0.36538  1.0000
  C   C99       1.0  0.94070  0.88350  0.13462  1.0000
  C   C100      1.0  0.55930  0.11650  0.63462  1.0000
  C   C101      1.0  0.43530  0.59370  0.80390  1.0000
  C   C102      1.0  0.06470  0.40630  0.30390  1.0000
  C   C103      1.0  0.93530  0.90630  0.19610  1.0000
  C   C104      1.0  0.56470  0.09370  0.69610  1.0000
  H   H81       1.0  0.38920  0.58730  0.78610  1.0000
  H   H82       1.0  0.11080  0.41270  0.28610  1.0000
  H   H83       1.0  0.88920  0.91270  0.21390  1.0000
  H   H84       1.0  0.61080  0.08730  0.71390  1.0000
  C   C105      1.0  0.49830  0.58040  0.76840  1.0000
  C   C106      1.0  0.00170  0.41960  0.26840  1.0000
  C   C107      1.0  0.99830  0.91960  0.23160  1.0000
  C   C108      1.0  0.50170  0.08040  0.73160  1.0000
  H   H85       1.0  0.49400  0.56550  0.72710  1.0000
  H   H86       1.0  0.00600  0.43450  0.22710  1.0000
  H   H87       1.0  0.99400  0.93450  0.27290  1.0000
  H   H88       1.0  0.50600  0.06550  0.77290  1.0000
  C   C109      1.0  0.56650  0.58920  0.79450  1.0000
  C   C110      1.0  0.93350  0.41080  0.29450  1.0000
  C   C111      1.0  0.06650  0.91080  0.20550  1.0000
  C   C112      1.0  0.43350  0.08920  0.70550  1.0000
  H   H89       1.0  0.60840  0.58040  0.77080  1.0000
  H   H90       1.0  0.89160  0.41960  0.27080  1.0000
  H   H91       1.0  0.10840  0.91960  0.22920  1.0000
  H   H92       1.0  0.39160  0.08040  0.72920  1.0000
  C   C113      1.0  0.57330  0.61110  0.85560  1.0000
  C   C114      1.0  0.92670  0.38890  0.35560  1.0000
  C   C115      1.0  0.07330  0.88890  0.14440  1.0000
  C   C116      1.0  0.42670  0.11110  0.64440  1.0000
  H   H93       1.0  0.61960  0.61640  0.87330  1.0000
  H   H94       1.0  0.88040  0.38360  0.37330  1.0000
  H   H95       1.0  0.11960  0.88360  0.12670  1.0000
  H   H96       1.0  0.38040  0.11640  0.62670  1.0000
  C   C117      1.0  0.51110  0.62540  0.89077  1.0000
  C   C118      1.0  0.98890  0.37460  0.39077  1.0000
  C   C119      1.0  0.01110  0.87460  0.10923  1.0000
  C   C120      1.0  0.48890  0.12540  0.60923  1.0000
  H   H97       1.0  0.51610  0.64100  0.93180  1.0000
  H   H98       1.0  0.98390  0.35900  0.43180  1.0000
  H   H99       1.0  0.01610  0.85900  0.06820  1.0000
  H   H100      1.0  0.48390  0.14100  0.56820  1.0000
  C   C121      1.0  0.26130  0.55370  0.92422  1.0000
  C   C122      1.0  0.23870  0.44630  0.42422  1.0000
  C   C123      1.0  0.76130  0.94630  0.07578  1.0000
  C   C124      1.0  0.73870  0.05370  0.57578  1.0000
  C   C125      1.0  0.27830  0.48020  0.92570  1.0000
  C   C126      1.0  0.22170  0.51980  0.42570  1.0000
  C   C127      1.0  0.77830  0.01980  0.07430  1.0000
  C   C128      1.0  0.72170  0.98020  0.57430  1.0000
  H   H101      1.0  0.32720  0.46570  0.92630  1.0000
  H   H102      1.0  0.17280  0.53430  0.42630  1.0000
  H   H103      1.0  0.82720  0.03430  0.07370  1.0000
  H   H104      1.0  0.67280  0.96570  0.57370  1.0000
  C   C129      1.0  0.22320  0.42820  0.92640  1.0000
  C   C130      1.0  0.27680  0.57180  0.42640  1.0000
  C   C131      1.0  0.72320  0.07180  0.07360  1.0000
  C   C132      1.0  0.77680  0.92820  0.57360  1.0000
  H   H105      1.0  0.23560  0.37940  0.92590  1.0000
  H   H106      1.0  0.26440  0.62060  0.42590  1.0000
  H   H107      1.0  0.73560  0.12060  0.07410  1.0000
  H   H108      1.0  0.76440  0.87940  0.57410  1.0000
  C   C133      1.0  0.15100  0.44810  0.92790  1.0000
  C   C134      1.0  0.34900  0.55190  0.42790  1.0000
  C   C135      1.0  0.65100  0.05190  0.07210  1.0000
  C   C136      1.0  0.84900  0.94810  0.57210  1.0000
  H   H109      1.0  0.11440  0.41300  0.92880  1.0000
  H   H110      1.0  0.38560  0.58700  0.42880  1.0000
  H   H111      1.0  0.61440  0.08700  0.07120  1.0000
  H   H112      1.0  0.88560  0.91300  0.57120  1.0000
  C   C137      1.0  0.13250  0.52120  0.92800  1.0000
  C   C138      1.0  0.36750  0.47880  0.42800  1.0000
  C   C139      1.0  0.63250  0.97880  0.07200  1.0000
  C   C140      1.0  0.86750  0.02120  0.57200  1.0000
  H   H113      1.0  0.08350  0.53510  0.92980  1.0000
  H   H114      1.0  0.41650  0.46490  0.42980  1.0000
  H   H115      1.0  0.58350  0.96490  0.07020  1.0000
  H   H116      1.0  0.91650  0.03510  0.57020  1.0000
  C   C141      1.0  0.18760  0.57320  0.92550  1.0000
  C   C142      1.0  0.31240  0.42680  0.42550  1.0000
  C   C143      1.0  0.68760  0.92680  0.07450  1.0000
  C   C144      1.0  0.81240  0.07320  0.57450  1.0000
  H   H117      1.0  0.17490  0.62190  0.92460  1.0000
  H   H118      1.0  0.32510  0.37810  0.42460  1.0000
  H   H119      1.0  0.67490  0.87810  0.07540  1.0000
  H   H120      1.0  0.82510  0.12190  0.57540  1.0000
  C   C145      1.0  0.52300  0.63080  0.18739  1.0000
  C   C146      1.0  0.97700  0.36920  0.68739  1.0000
  C   C147      1.0  0.02300  0.86920  0.81261  1.0000
  C   C148      1.0  0.47700  0.13080  0.31261  1.0000
  C   C149      1.0  0.44910  0.63450  0.16868  1.0000
  C   C150      1.0  0.05090  0.36550  0.66868  1.0000
  C   C151      1.0  0.94910  0.86550  0.83132  1.0000
  C   C152      1.0  0.55090  0.13450  0.33132  1.0000
  H   H121      1.0  0.43800  0.64390  0.12710  1.0000
  H   H122      1.0  0.06200  0.35610  0.62710  1.0000
  H   H123      1.0  0.93800  0.85610  0.87290  1.0000
  H   H124      1.0  0.56200  0.14390  0.37290  1.0000
  C   C153      1.0  0.39280  0.62440  0.21060  1.0000
  C   C154      1.0  0.10720  0.37560  0.71060  1.0000
  C   C155      1.0  0.89280  0.87560  0.78940  1.0000
  C   C156      1.0  0.60720  0.12440  0.28940  1.0000
  H   H125      1.0  0.34420  0.62790  0.19750  1.0000
  H   H126      1.0  0.15580  0.37210  0.69750  1.0000
  H   H127      1.0  0.84420  0.87210  0.80250  1.0000
  H   H128      1.0  0.65580  0.12790  0.30250  1.0000
  C   C157      1.0  0.40890  0.60880  0.27260  1.0000
  C   C158      1.0  0.09110  0.39120  0.77260  1.0000
  C   C159      1.0  0.90890  0.89120  0.72740  1.0000
  C   C160      1.0  0.59110  0.10880  0.22740  1.0000
  H   H129      1.0  0.37120  0.60070  0.30100  1.0000
  H   H130      1.0  0.12880  0.39930  0.80100  1.0000
  H   H131      1.0  0.87120  0.89930  0.69900  1.0000
  H   H132      1.0  0.62880  0.10070  0.19900  1.0000
  C   C161      1.0  0.48040  0.60550  0.29150  1.0000
  C   C162      1.0  0.01960  0.39450  0.79150  1.0000
  C   C163      1.0  0.98040  0.89450  0.70850  1.0000
  C   C164      1.0  0.51960  0.10550  0.20850  1.0000
  H   H133      1.0  0.49100  0.59550  0.33300  1.0000
  H   H134      1.0  0.00900  0.40450  0.83300  1.0000
  H   H135      1.0  0.99100  0.90450  0.66700  1.0000
  H   H136      1.0  0.50900  0.09550  0.16700  1.0000
  C   C165      1.0  0.53740  0.61690  0.24968  1.0000
  C   C166      1.0  0.96260  0.38310  0.74968  1.0000
  C   C167      1.0  0.03740  0.88310  0.75032  1.0000
  C   C168      1.0  0.46260  0.11690  0.25032  1.0000
  H   H137      1.0  0.58570  0.61520  0.26360  1.0000
  H   H138      1.0  0.91430  0.38480  0.76360  1.0000
  H   H139      1.0  0.08570  0.88480  0.73640  1.0000
  H   H140      1.0  0.41430  0.11520  0.23640  1.0000
  C   C169      1.0  0.69600  0.55713  0.12281  1.0000
  C   C170      1.0  0.80400  0.44287  0.62281  1.0000
  C   C171      1.0  0.19600  0.94287  0.87719  1.0000
  C   C172      1.0  0.30400  0.05713  0.37719  1.0000
  C   C173      1.0  0.69700  0.49780  0.08224  1.0000
  C   C174      1.0  0.80300  0.50220  0.58224  1.0000
  C   C175      1.0  0.19700  0.00220  0.91776  1.0000
  C   C176      1.0  0.30300  0.99780  0.41776  1.0000
  H   H141      1.0  0.66000  0.49230  0.05270  1.0000
  H   H142      1.0  0.84000  0.50770  0.55270  1.0000
  H   H143      1.0  0.16000  0.00770  0.94730  1.0000
  H   H144      1.0  0.34000  0.99230  0.44730  1.0000
  C   C177      1.0  0.75340  0.44700  0.08600  1.0000
  C   C178      1.0  0.74660  0.55300  0.58600  1.0000
  C   C179      1.0  0.25340  0.05300  0.91400  1.0000
  C   C180      1.0  0.24660  0.94700  0.41400  1.0000
  H   H145      1.0  0.75300  0.40740  0.05930  1.0000
  H   H146      1.0  0.74700  0.59260  0.55930  1.0000
  H   H147      1.0  0.25300  0.09260  0.94070  1.0000
  H   H148      1.0  0.24700  0.90740  0.44070  1.0000
  C   C181      1.0  0.80950  0.45420  0.12840  1.0000
  C   C182      1.0  0.69050  0.54580  0.62840  1.0000
  C   C183      1.0  0.30950  0.04580  0.87160  1.0000
  C   C184      1.0  0.19050  0.95420  0.37160  1.0000
  H   H149      1.0  0.84710  0.42020  0.13010  1.0000
  H   H150      1.0  0.65290  0.57980  0.63010  1.0000
  H   H151      1.0  0.34710  0.07980  0.86990  1.0000
  H   H152      1.0  0.15290  0.92020  0.36990  1.0000
  C   C185      1.0  0.80940  0.51280  0.16840  1.0000
  C   C186      1.0  0.69060  0.48720  0.66840  1.0000
  C   C187      1.0  0.30940  0.98720  0.83160  1.0000
  C   C188      1.0  0.19060  0.01280  0.33160  1.0000
  H   H153      1.0  0.84720  0.51820  0.19720  1.0000
  H   H154      1.0  0.65280  0.48180  0.69720  1.0000
  H   H155      1.0  0.34720  0.98180  0.80280  1.0000
  H   H156      1.0  0.15280  0.01820  0.30280  1.0000
  C   C189      1.0  0.75330  0.56370  0.16582  1.0000
  C   C190      1.0  0.74670  0.43630  0.66582  1.0000
  C   C191      1.0  0.25330  0.93630  0.83418  1.0000
  C   C192      1.0  0.24670  0.06370  0.33418  1.0000
  H   H157      1.0  0.75390  0.60270  0.19320  1.0000
  H   H158      1.0  0.74610  0.39730  0.69320  1.0000
  H   H159      1.0  0.25390  0.89730  0.80680  1.0000
  H   H160      1.0  0.24610  0.10270  0.30680  1.0000
  C   C193      1.0  0.59780  0.71225  0.04732  1.0000
  C   C194      1.0  0.90220  0.28775  0.54732  1.0000
  C   C195      1.0  0.09780  0.78775  0.95268  1.0000
  C   C196      1.0  0.40220  0.21225  0.45268  1.0000
  C   C197      1.0  0.64600  0.71590  0.99759  1.0000
  C   C198      1.0  0.85400  0.28410  0.49759  1.0000
  C   C199      1.0  0.14600  0.78410  0.00241  1.0000
  C   C200      1.0  0.35400  0.21590  0.50241  1.0000
  H   H161      1.0  0.68550  0.68400  0.99550  1.0000
  H   H162      1.0  0.81450  0.31600  0.49550  1.0000
  H   H163      1.0  0.18550  0.81600  0.00450  1.0000
  H   H164      1.0  0.31450  0.18400  0.50450  1.0000
  C   C201      1.0  0.63570  0.76680  0.95066  1.0000
  C   C202      1.0  0.86430  0.23320  0.45066  1.0000
  C   C203      1.0  0.13570  0.73320  0.04934  1.0000
  C   C204      1.0  0.36430  0.26680  0.54934  1.0000
  H   H165      1.0  0.66910  0.77000  0.91800  1.0000
  H   H166      1.0  0.83090  0.23000  0.41800  1.0000
  H   H167      1.0  0.16910  0.73000  0.08200  1.0000
  H   H168      1.0  0.33090  0.27000  0.58200  1.0000
  C   C205      1.0  0.57640  0.81250  0.95250  1.0000
  C   C206      1.0  0.92360  0.18750  0.45250  1.0000
  C   C207      1.0  0.07640  0.68750  0.04750  1.0000
  C   C208      1.0  0.42360  0.31250  0.54750  1.0000
  H   H169      1.0  0.56880  0.84510  0.92010  1.0000
  H   H170      1.0  0.93120  0.15490  0.42010  1.0000
  H   H171      1.0  0.06880  0.65490  0.07990  1.0000
  H   H172      1.0  0.43120  0.34510  0.57990  1.0000
  C   C209      1.0  0.52870  0.81070  0.00100  1.0000
  C   C210      1.0  0.97130  0.18930  0.50100  1.0000
  C   C211      1.0  0.02870  0.68930  0.99900  1.0000
  C   C212      1.0  0.47130  0.31070  0.49900  1.0000
  H   H173      1.0  0.48920  0.84260  0.00250  1.0000
  H   H174      1.0  0.01080  0.15740  0.50250  1.0000
  H   H175      1.0  0.98920  0.65740  0.99750  1.0000
  H   H176      1.0  0.51080  0.34260  0.49750  1.0000
  C   C213      1.0  0.53940  0.75990  0.04910  1.0000
  C   C214      1.0  0.96060  0.24010  0.54910  1.0000
  C   C215      1.0  0.03940  0.74010  0.95090  1.0000
  C   C216      1.0  0.46060  0.25990  0.45090  1.0000
  H   H177      1.0  0.50680  0.75850  0.08240  1.0000
  H   H178      1.0  0.99320  0.24150  0.58240  1.0000
  H   H179      1.0  0.00680  0.74150  0.91760  1.0000
  H   H180      1.0  0.49320  0.25850  0.41760  1.0000
  Sn  Sn1       1.0  0.37307  0.39807  0.16681  1.0000
  Sn  Sn2       1.0  0.12693  0.60193  0.66681  1.0000
  Sn  Sn3       1.0  0.87307  0.10193  0.83319  1.0000
  Sn  Sn4       1.0  0.62693  0.89807  0.33319  1.0000
  Sn  Sn5       1.0  0.34562  0.63385  0.92118  1.0000
  Sn  Sn6       1.0  0.15438  0.36615  0.42118  1.0000
  Sn  Sn7       1.0  0.84562  0.86615  0.07882  1.0000
  Sn  Sn8       1.0  0.65438  0.13384  0.57882  1.0000
  Sn  Sn9       1.0  0.60832  0.63443  0.11950  1.0000
  Sn  Sn10      1.0  0.89168  0.36557  0.61950  1.0000
  Sn  Sn11      1.0  0.10832  0.86557  0.88050  1.0000
  Sn  Sn12      1.0  0.39168  0.13443  0.38050  1.0000
  Mo  Mo1       1.0  0.46317  0.51534  0.03086  1.0000
  Mo  Mo2       1.0  0.03683  0.48466  0.53086  1.0000
  Mo  Mo3       1.0  0.96317  0.98466  0.96914  1.0000
  Mo  Mo4       1.0  0.53683  0.01534  0.46914  1.0000
  Mo  Mo5       1.0  0.26818  0.27194  0.28545  1.0000
  Mo  Mo6       1.0  0.23182  0.72806  0.78545  1.0000
  Mo  Mo7       1.0  0.76818  0.22806  0.71455  1.0000
  Mo  Mo8       1.0  0.73182  0.77194  0.21455  1.0000
  O   O1        1.0  0.42209  0.46376  0.09127  1.0000
  O   O2        1.0  0.07791  0.53624  0.59127  1.0000
  O   O3        1.0  0.92209  0.03624  0.90873  1.0000
  O   O4        1.0  0.57791  0.96376  0.40873  1.0000
  O   O5        1.0  0.40012  0.58087  0.00199  1.0000
  O   O6        1.0  0.09988  0.41913  0.50199  1.0000
  O   O7        1.0  0.90012  0.91913  0.99801  1.0000
  O   O8        1.0  0.59988  0.08087  0.49801  1.0000
  O   O9        1.0  0.54387  0.55799  0.05952  1.0000
  O   O10       1.0  0.95613  0.44201  0.55952  1.0000
  O   O11       1.0  0.04387  0.94201  0.94048  1.0000
  O   O12       1.0  0.45613  0.05799  0.44048  1.0000
  O   O13       1.0  0.31907  0.33503  0.24110  1.0000
  O   O14       1.0  0.18093  0.66497  0.74110  1.0000
  O   O15       1.0  0.81907  0.16497  0.75890  1.0000
  O   O16       1.0  0.68093  0.83503  0.25890  1.0000
  O   O17       1.0  0.48703  0.45772  0.97161  1.0000
  O   O18       1.0  0.01297  0.54228  0.47161  1.0000
  O   O19       1.0  0.98703  0.04228  0.02839  1.0000
  O   O20       1.0  0.51297  0.95772  0.52839  1.0000
  O   O21       1.0  0.28693  0.68349  0.84099  1.0000
  O   O22       1.0  0.21307  0.31651  0.34099  1.0000
  O   O23       1.0  0.78693  0.81651  0.15901  1.0000
  O   O24       1.0  0.71307  0.18349  0.65901  1.0000
  O   O25       1.0  0.21269  0.22304  0.23679  1.0000
  O   O26       1.0  0.28731  0.77696  0.73679  1.0000
  O   O27       1.0  0.71269  0.27696  0.76321  1.0000
  O   O28       1.0  0.78731  0.72304  0.26321  1.0000
  O   O29       1.0  0.67141  0.71078  0.17724  1.0000
  O   O30       1.0  0.82859  0.28922  0.67724  1.0000
  O   O31       1.0  0.17141  0.78922  0.82276  1.0000
  O   O32       1.0  0.32859  0.21078  0.32276  1.0000
