data_image0
_chemical_formula_structural       C8H4C8H4C8H4C16H4C8H4C8H4C16H4C8H4C8H4C8N4H8N4H8N4H8O48Zn8
_chemical_formula_sum              "C96 H60 N12 O48 Zn8"
_cell_length_a       28.759
_cell_length_b       8.3448
_cell_length_c       15.7035
_cell_angle_alpha    90
_cell_angle_beta     100.542
_cell_angle_gamma    90

_space_group_name_H-M_alt    "P 1"
_space_group_IT_number       1

loop_
  _space_group_symop_operation_xyz
  'x, y, z'

loop_
  _atom_site_type_symbol
  _atom_site_label
  _atom_site_symmetry_multiplicity
  _atom_site_fract_x
  _atom_site_fract_y
  _atom_site_fract_z
  _atom_site_occupancy
  C   C1        1.0  0.45650  0.16310  0.11380  1.0000
  C   C2        1.0  0.54350  0.66310  0.38620  1.0000
  C   C3        1.0  0.54350  0.83690  0.88620  1.0000
  C   C4        1.0  0.45650  0.33690  0.61380  1.0000
  C   C5        1.0  0.45200  0.00530  0.13890  1.0000
  C   C6        1.0  0.54800  0.50530  0.36110  1.0000
  C   C7        1.0  0.54800  0.99470  0.86110  1.0000
  C   C8        1.0  0.45200  0.49470  0.63890  1.0000
  H   H1        1.0  0.45690  0.97920  0.19740  1.0000
  H   H2        1.0  0.54310  0.47920  0.30260  1.0000
  H   H3        1.0  0.54310  0.02080  0.80260  1.0000
  H   H4        1.0  0.45690  0.52080  0.69740  1.0000
  C   C9        1.0  0.44020  0.88590  0.07700  1.0000
  C   C10       1.0  0.55980  0.38590  0.42300  1.0000
  C   C11       1.0  0.55980  0.11410  0.92300  1.0000
  C   C12       1.0  0.44020  0.61410  0.57700  1.0000
  C   C13       1.0  0.43180  0.92730  0.98940  1.0000
  C   C14       1.0  0.56820  0.42730  0.51060  1.0000
  C   C15       1.0  0.56820  0.07270  0.01060  1.0000
  C   C16       1.0  0.43180  0.57270  0.48940  1.0000
  H   H5        1.0  0.42350  0.84850  0.94750  1.0000
  H   H6        1.0  0.57650  0.34850  0.55250  1.0000
  H   H7        1.0  0.57650  0.15150  0.05250  1.0000
  H   H8        1.0  0.42350  0.65150  0.44750  1.0000
  C   C17       1.0  0.43570  0.08520  0.96470  1.0000
  C   C18       1.0  0.56430  0.58520  0.53530  1.0000
  C   C19       1.0  0.56430  0.91480  0.03530  1.0000
  C   C20       1.0  0.43570  0.41480  0.46470  1.0000
  C   C21       1.0  0.44940  0.20200  0.02620  1.0000
  C   C22       1.0  0.55060  0.70200  0.47380  1.0000
  C   C23       1.0  0.55060  0.79800  0.97380  1.0000
  C   C24       1.0  0.44940  0.29800  0.52620  1.0000
  H   H9        1.0  0.45380  0.30680  0.00920  1.0000
  H   H10       1.0  0.54620  0.80680  0.49080  1.0000
  H   H11       1.0  0.54620  0.69320  0.99080  1.0000
  H   H12       1.0  0.45380  0.19320  0.50920  1.0000
  C   C25       1.0  0.43530  0.71350  0.10270  1.0000
  C   C26       1.0  0.56470  0.21350  0.39730  1.0000
  C   C27       1.0  0.56470  0.28650  0.89730  1.0000
  C   C28       1.0  0.43530  0.78650  0.60270  1.0000
  C   C29       1.0  0.43090  0.12680  0.87040  1.0000
  C   C30       1.0  0.56910  0.62680  0.62960  1.0000
  C   C31       1.0  0.56910  0.87320  0.12960  1.0000
  C   C32       1.0  0.43090  0.37320  0.37040  1.0000
  C   C33       1.0  0.21340  0.27700  0.01450  1.0000
  C   C34       1.0  0.78660  0.77700  0.48550  1.0000
  C   C35       1.0  0.78660  0.72300  0.98550  1.0000
  C   C36       1.0  0.21340  0.22300  0.51450  1.0000
  C   C37       1.0  0.26060  0.32160  0.03960  1.0000
  C   C38       1.0  0.73940  0.82160  0.46040  1.0000
  C   C39       1.0  0.73940  0.67840  0.96040  1.0000
  C   C40       1.0  0.26060  0.17840  0.53960  1.0000
  H   H13       1.0  0.28260  0.28660  0.00700  1.0000
  H   H14       1.0  0.71740  0.78660  0.49300  1.0000
  H   H15       1.0  0.71740  0.71340  0.99300  1.0000
  H   H16       1.0  0.28260  0.21340  0.50700  1.0000
  C   C41       1.0  0.27560  0.41570  0.11090  1.0000
  C   C42       1.0  0.72440  0.91570  0.38910  1.0000
  C   C43       1.0  0.72440  0.58430  0.88910  1.0000
  C   C44       1.0  0.27560  0.08430  0.61090  1.0000
  C   C45       1.0  0.24350  0.46990  0.16230  1.0000
  C   C46       1.0  0.75650  0.96990  0.33770  1.0000
  C   C47       1.0  0.75650  0.53010  0.83770  1.0000
  C   C48       1.0  0.24350  0.03010  0.66230  1.0000
  H   H17       1.0  0.25310  0.53940  0.20850  1.0000
  H   H18       1.0  0.74690  0.03940  0.29150  1.0000
  H   H19       1.0  0.74690  0.46060  0.79150  1.0000
  H   H20       1.0  0.25310  0.96060  0.70850  1.0000
  C   C49       1.0  0.19660  0.41610  0.14190  1.0000
  C   C50       1.0  0.80340  0.91610  0.35810  1.0000
  C   C51       1.0  0.80340  0.58390  0.85810  1.0000
  C   C52       1.0  0.19660  0.08390  0.64190  1.0000
  C   C53       1.0  0.18190  0.32150  0.07040  1.0000
  C   C54       1.0  0.81810  0.82150  0.42960  1.0000
  C   C55       1.0  0.81810  0.67850  0.92960  1.0000
  C   C56       1.0  0.18190  0.17850  0.57040  1.0000
  H   H21       1.0  0.15070  0.28590  0.05840  1.0000
  H   H22       1.0  0.84930  0.78590  0.44160  1.0000
  H   H23       1.0  0.84930  0.71410  0.94160  1.0000
  H   H24       1.0  0.15070  0.21410  0.55840  1.0000
  C   C57       1.0  0.32670  0.46620  0.13660  1.0000
  C   C58       1.0  0.67330  0.96620  0.36340  1.0000
  C   C59       1.0  0.67330  0.53380  0.86340  1.0000
  C   C60       1.0  0.32670  0.03380  0.63660  1.0000
  C   C61       1.0  0.16300  0.46670  0.20030  1.0000
  C   C62       1.0  0.83700  0.96670  0.29970  1.0000
  C   C63       1.0  0.83700  0.53330  0.79970  1.0000
  C   C64       1.0  0.16300  0.03330  0.70030  1.0000
  C   C65       1.0  0.03890  0.16550  0.13760  1.0000
  C   C66       1.0  0.96110  0.66550  0.36240  1.0000
  C   C67       1.0  0.96110  0.83450  0.86240  1.0000
  C   C68       1.0  0.03890  0.33450  0.63760  1.0000
  C   C69       1.0  0.04680  0.20660  0.05400  1.0000
  C   C70       1.0  0.95320  0.70660  0.44600  1.0000
  C   C71       1.0  0.95320  0.79340  0.94600  1.0000
  C   C72       1.0  0.04680  0.29340  0.55400  1.0000
  H   H25       1.0  0.04300  0.31180  0.03450  1.0000
  H   H26       1.0  0.95700  0.81180  0.46550  1.0000
  H   H27       1.0  0.95700  0.68820  0.96550  1.0000
  H   H28       1.0  0.04300  0.18820  0.53450  1.0000
  C   C73       1.0  0.06050  0.08780  0.00090  1.0000
  C   C74       1.0  0.93950  0.58780  0.49910  1.0000
  C   C75       1.0  0.93950  0.91220  0.99910  1.0000
  C   C76       1.0  0.06050  0.41220  0.50090  1.0000
  C   C77       1.0  0.06480  0.92950  0.03130  1.0000
  C   C78       1.0  0.93520  0.42950  0.46870  1.0000
  C   C79       1.0  0.93520  0.07050  0.96870  1.0000
  C   C80       1.0  0.06480  0.57050  0.53130  1.0000
  H   H29       1.0  0.07330  0.84930  0.99600  1.0000
  H   H30       1.0  0.92670  0.34930  0.50400  1.0000
  H   H31       1.0  0.92670  0.15070  0.00400  1.0000
  H   H32       1.0  0.07330  0.65070  0.49600  1.0000
  C   C81       1.0  0.05660  0.89070  0.11220  1.0000
  C   C82       1.0  0.94340  0.39070  0.38780  1.0000
  C   C83       1.0  0.94340  0.10930  0.88780  1.0000
  C   C84       1.0  0.05660  0.60930  0.61220  1.0000
  C   C85       1.0  0.04440  0.01020  0.16630  1.0000
  C   C86       1.0  0.95560  0.51020  0.33370  1.0000
  C   C87       1.0  0.95560  0.98980  0.83370  1.0000
  C   C88       1.0  0.04440  0.48980  0.66630  1.0000
  H   H33       1.0  0.04000  0.98450  0.22190  1.0000
  H   H34       1.0  0.96000  0.48450  0.27810  1.0000
  H   H35       1.0  0.96000  0.01550  0.77810  1.0000
  H   H36       1.0  0.04000  0.51550  0.72190  1.0000
  C   C89       1.0  0.06810  0.12780  0.91110  1.0000
  C   C90       1.0  0.93190  0.62780  0.58890  1.0000
  C   C91       1.0  0.93190  0.87220  0.08890  1.0000
  C   C92       1.0  0.06810  0.37220  0.41110  1.0000
  C   C93       1.0  0.06000  0.71510  0.13990  1.0000
  C   C94       1.0  0.94000  0.21510  0.36010  1.0000
  C   C95       1.0  0.94000  0.28490  0.86010  1.0000
  C   C96       1.0  0.06000  0.78490  0.63990  1.0000
  N   N1        1.0  0.47010  0.28710  0.17610  1.0000
  N   N2        1.0  0.52990  0.78710  0.32390  1.0000
  N   N3        1.0  0.52990  0.71290  0.82390  1.0000
  N   N4        1.0  0.47010  0.21290  0.67610  1.0000
  H   H37       1.0  0.47560  0.26470  0.23040  1.0000
  H   H38       1.0  0.52440  0.76470  0.26960  1.0000
  H   H39       1.0  0.52440  0.73530  0.76960  1.0000
  H   H40       1.0  0.47560  0.23530  0.73040  1.0000
  H   H41       1.0  0.47270  0.38420  0.15920  1.0000
  H   H42       1.0  0.52730  0.88420  0.34080  1.0000
  H   H43       1.0  0.52730  0.61580  0.84080  1.0000
  H   H44       1.0  0.47270  0.11580  0.65920  1.0000
  N   N5        1.0  0.19830  0.18690  0.94160  1.0000
  N   N6        1.0  0.80170  0.68690  0.55840  1.0000
  N   N7        1.0  0.80170  0.81310  0.05840  1.0000
  N   N8        1.0  0.19830  0.31310  0.44160  1.0000
  H   H45       1.0  0.21820  0.15660  0.91010  1.0000
  H   H46       1.0  0.78180  0.65660  0.58990  1.0000
  H   H47       1.0  0.78180  0.84340  0.08990  1.0000
  H   H48       1.0  0.21820  0.34340  0.41010  1.0000
  H   H49       1.0  0.16900  0.16080  0.92740  1.0000
  H   H50       1.0  0.83100  0.66080  0.57260  1.0000
  H   H51       1.0  0.83100  0.83920  0.07260  1.0000
  H   H52       1.0  0.16900  0.33920  0.42740  1.0000
  N   N9        1.0  0.02310  0.28940  0.18910  1.0000
  N   N10       1.0  0.97690  0.78940  0.31090  1.0000
  N   N11       1.0  0.97690  0.71060  0.81090  1.0000
  N   N12       1.0  0.02310  0.21060  0.68910  1.0000
  H   H53       1.0  0.01690  0.26700  0.23920  1.0000
  H   H54       1.0  0.98310  0.76700  0.26080  1.0000
  H   H55       1.0  0.98310  0.73300  0.76080  1.0000
  H   H56       1.0  0.01690  0.23300  0.73920  1.0000
  H   H57       1.0  0.01990  0.38590  0.16970  1.0000
  H   H58       1.0  0.98010  0.88590  0.33030  1.0000
  H   H59       1.0  0.98010  0.61410  0.83030  1.0000
  H   H60       1.0  0.01990  0.11410  0.66970  1.0000
  O   O1        1.0  0.44400  0.68020  0.18280  1.0000
  O   O2        1.0  0.55600  0.18020  0.31720  1.0000
  O   O3        1.0  0.55600  0.31980  0.81720  1.0000
  O   O4        1.0  0.44400  0.81980  0.68280  1.0000
  O   O5        1.0  0.42540  0.60810  0.04660  1.0000
  O   O6        1.0  0.57460  0.10810  0.45340  1.0000
  O   O7        1.0  0.57460  0.39190  0.95340  1.0000
  O   O8        1.0  0.42540  0.89190  0.54660  1.0000
  O   O9        1.0  0.41450  0.01480  0.81730  1.0000
  O   O10       1.0  0.58550  0.51480  0.68270  1.0000
  O   O11       1.0  0.58550  0.98520  0.18270  1.0000
  O   O12       1.0  0.41450  0.48520  0.31730  1.0000
  O   O13       1.0  0.44200  0.25990  0.84750  1.0000
  O   O14       1.0  0.55800  0.75990  0.65250  1.0000
  O   O15       1.0  0.55800  0.74010  0.15250  1.0000
  O   O16       1.0  0.44200  0.24010  0.34750  1.0000
  O   O17       1.0  0.35860  0.36280  0.13410  1.0000
  O   O18       1.0  0.64140  0.86280  0.36590  1.0000
  O   O19       1.0  0.64140  0.63720  0.86590  1.0000
  O   O20       1.0  0.35860  0.13720  0.63410  1.0000
  O   O21       1.0  0.33530  0.60690  0.16000  1.0000
  O   O22       1.0  0.66470  0.10690  0.34000  1.0000
  O   O23       1.0  0.66470  0.39310  0.84000  1.0000
  O   O24       1.0  0.33530  0.89310  0.66000  1.0000
  O   O25       1.0  0.16880  0.59310  0.23980  1.0000
  O   O26       1.0  0.83120  0.09310  0.26020  1.0000
  O   O27       1.0  0.83120  0.40690  0.76020  1.0000
  O   O28       1.0  0.16880  0.90690  0.73980  1.0000
  O   O29       1.0  0.12990  0.36410  0.20670  1.0000
  O   O30       1.0  0.87010  0.86410  0.29330  1.0000
  O   O31       1.0  0.87010  0.63590  0.79330  1.0000
  O   O32       1.0  0.12990  0.13590  0.70670  1.0000
  O   O33       1.0  0.06280  0.26540  0.88300  1.0000
  O   O34       1.0  0.93720  0.76540  0.61700  1.0000
  O   O35       1.0  0.93720  0.73460  0.11700  1.0000
  O   O36       1.0  0.06280  0.23460  0.38300  1.0000
  O   O37       1.0  0.07880  0.01020  0.86610  1.0000
  O   O38       1.0  0.92120  0.51020  0.63390  1.0000
  O   O39       1.0  0.92120  0.98980  0.13390  1.0000
  O   O40       1.0  0.07880  0.48980  0.36610  1.0000
  O   O41       1.0  0.06530  0.61120  0.08700  1.0000
  O   O42       1.0  0.93470  0.11120  0.41300  1.0000
  O   O43       1.0  0.93470  0.38880  0.91300  1.0000
  O   O44       1.0  0.06530  0.88880  0.58700  1.0000
  O   O45       1.0  0.05770  0.68580  0.21900  1.0000
  O   O46       1.0  0.94230  0.18580  0.28100  1.0000
  O   O47       1.0  0.94230  0.31420  0.78100  1.0000
  O   O48       1.0  0.05770  0.81420  0.71900  1.0000
  Zn  Zn1       1.0  0.41984  0.45661  0.19272  1.0000
  Zn  Zn2       1.0  0.58016  0.95661  0.30728  1.0000
  Zn  Zn3       1.0  0.58016  0.54339  0.80728  1.0000
  Zn  Zn4       1.0  0.41984  0.04339  0.69272  1.0000
  Zn  Zn5       1.0  0.07371  0.45576  0.24137  1.0000
  Zn  Zn6       1.0  0.92629  0.95576  0.25863  1.0000
  Zn  Zn7       1.0  0.92629  0.54424  0.75863  1.0000
  Zn  Zn8       1.0  0.07371  0.04424  0.74137  1.0000
