data_image0
_chemical_formula_structural       Mn3Si2O16C6H2C2H2C4H2C2H2C6H2C2H2C4H2C2H2C6H2C2H2C4H2C2H2C6H2C2H2C4H2C2H2
_chemical_formula_sum              "Mn3 Si2 O16 C56 H32"
_cell_length_a       13.73
_cell_length_b       14.03
_cell_length_c       14.1
_cell_angle_alpha    115.655
_cell_angle_beta     111.027
_cell_angle_gamma    100.397

_space_group_name_H-M_alt    "P 1"
_space_group_IT_number       1

loop_
  _space_group_symop_operation_xyz
  'x, y, z'

loop_
  _atom_site_type_symbol
  _atom_site_label
  _atom_site_symmetry_multiplicity
  _atom_site_fract_x
  _atom_site_fract_y
  _atom_site_fract_z
  _atom_site_occupancy
  Mn  Mn1       1.0  0.79480  0.61810  0.62120  1.0000
  Mn  Mn2       1.0  0.20520  0.38190  0.37880  1.0000
  Mn  Mn3       1.0  0.50000  0.50000  0.50000  1.0000
  Si  Si1       1.0  0.52080  0.84940  0.11710  1.0000
  Si  Si2       1.0  0.47920  0.15060  0.88290  1.0000
  O   O1        1.0  0.78330  0.77440  0.76930  1.0000
  O   O2        1.0  0.21670  0.22560  0.23070  1.0000
  O   O3        1.0  0.66510  0.59350  0.67480  1.0000
  O   O4        1.0  0.33490  0.40650  0.32520  1.0000
  O   O5        1.0  0.97900  0.70500  0.69490  1.0000
  O   O6        1.0  0.02100  0.29500  0.30510  1.0000
  O   O7        1.0  0.93280  0.63710  0.79700  1.0000
  O   O8        1.0  0.06720  0.36290  0.20300  1.0000
  O   O9        1.0  0.55990  0.62900  0.46790  1.0000
  O   O10       1.0  0.44010  0.37100  0.53210  1.0000
  O   O11       1.0  0.73350  0.65980  0.48970  1.0000
  O   O12       1.0  0.26650  0.34020  0.51030  1.0000
  O   O13       1.0  0.59200  0.41150  0.42900  1.0000
  O   O14       1.0  0.40800  0.58850  0.57100  1.0000
  O   O15       1.0  0.77310  0.44840  0.51950  1.0000
  O   O16       1.0  0.22690  0.55160  0.48050  1.0000
  C   C1        1.0  0.70400  0.69970  0.75800  1.0000
  C   C2        1.0  0.29600  0.30030  0.24200  1.0000
  C   C3        1.0  0.66430  0.73790  0.84990  1.0000
  C   C4        1.0  0.33570  0.26210  0.15010  1.0000
  C   C5        1.0  0.70720  0.85370  0.94010  1.0000
  C   C6        1.0  0.29280  0.14630  0.05990  1.0000
  H   H1        1.0  0.76320  0.90960  0.94530  1.0000
  H   H2        1.0  0.23680  0.09040  0.05470  1.0000
  C   C7        1.0  0.66820  0.88770  0.02280  1.0000
  C   C8        1.0  0.33180  0.11230  0.97720  1.0000
  H   H3        1.0  0.69750  0.96690  0.08450  1.0000
  H   H4        1.0  0.30250  0.03310  0.91550  1.0000
  C   C9        1.0  0.58630  0.80600  0.01520  1.0000
  C   C10       1.0  0.41370  0.19400  0.98480  1.0000
  C   C11       1.0  0.54340  0.69020  0.92490  1.0000
  C   C12       1.0  0.45660  0.30980  0.07510  1.0000
  H   H5        1.0  0.48740  0.63430  0.91970  1.0000
  H   H6        1.0  0.51260  0.36570  0.08030  1.0000
  C   C13       1.0  0.58240  0.65610  0.84230  1.0000
  C   C14       1.0  0.41760  0.34390  0.15770  1.0000
  H   H7        1.0  0.55310  0.57700  0.78060  1.0000
  H   H8        1.0  0.44690  0.42300  0.21940  1.0000
  C   C15       1.0  0.00510  0.68500  0.77900  1.0000
  C   C16       1.0  0.99490  0.31500  0.22100  1.0000
  C   C17       1.0  0.13030  0.72480  0.86130  1.0000
  C   C18       1.0  0.86970  0.27520  0.13870  1.0000
  C   C19       1.0  0.16500  0.71390  0.96030  1.0000
  C   C20       1.0  0.83500  0.28610  0.03970  1.0000
  H   H9        1.0  0.11000  0.68300  0.97660  1.0000
  H   H10       1.0  0.89000  0.31700  0.02340  1.0000
  C   C21       1.0  0.28010  0.74820  0.03550  1.0000
  C   C22       1.0  0.71990  0.25180  0.96450  1.0000
  H   H11       1.0  0.30370  0.74070  0.10310  1.0000
  H   H12       1.0  0.69630  0.25930  0.89690  1.0000
  C   C23       1.0  0.36050  0.79340  0.01160  1.0000
  C   C24       1.0  0.63950  0.20660  0.98840  1.0000
  C   C25       1.0  0.32580  0.80430  0.91260  1.0000
  C   C26       1.0  0.67420  0.19570  0.08740  1.0000
  H   H13       1.0  0.38080  0.83520  0.89640  1.0000
  H   H14       1.0  0.61920  0.16480  0.10360  1.0000
  C   C27       1.0  0.21080  0.77000  0.83750  1.0000
  C   C28       1.0  0.78920  0.23000  0.16250  1.0000
  H   H15       1.0  0.18710  0.77740  0.76980  1.0000
  H   H16       1.0  0.81290  0.22260  0.23020  1.0000
  C   C29       1.0  0.64000  0.66100  0.44800  1.0000
  C   C30       1.0  0.36000  0.33900  0.55200  1.0000
  C   C31       1.0  0.60560  0.70050  0.36150  1.0000
  C   C32       1.0  0.39440  0.29950  0.63850  1.0000
  C   C33       1.0  0.65050  0.68400  0.28430  1.0000
  C   C34       1.0  0.34950  0.31600  0.71570  1.0000
  H   H17       1.0  0.69990  0.64450  0.28320  1.0000
  H   H18       1.0  0.30010  0.35550  0.71680  1.0000
  C   C35       1.0  0.62310  0.72520  0.20890  1.0000
  C   C36       1.0  0.37690  0.27480  0.79110  1.0000
  H   H19       1.0  0.65380  0.71390  0.15610  1.0000
  H   H20       1.0  0.34620  0.28610  0.84390  1.0000
  C   C37       1.0  0.55080  0.78290  0.21060  1.0000
  C   C38       1.0  0.44920  0.21710  0.78940  1.0000
  C   C39       1.0  0.50590  0.79940  0.28770  1.0000
  C   C40       1.0  0.49410  0.20060  0.71230  1.0000
  H   H21       1.0  0.45640  0.83890  0.28890  1.0000
  H   H22       1.0  0.54360  0.16110  0.71110  1.0000
  C   C41       1.0  0.53330  0.75820  0.36320  1.0000
  C   C42       1.0  0.46670  0.24180  0.63680  1.0000
  H   H23       1.0  0.50260  0.76950  0.41590  1.0000
  H   H24       1.0  0.49740  0.23050  0.58410  1.0000
  C   C43       1.0  0.67090  0.37490  0.44700  1.0000
  C   C44       1.0  0.32910  0.62510  0.55300  1.0000
  C   C45       1.0  0.64030  0.24700  0.37240  1.0000
  C   C46       1.0  0.35970  0.75300  0.62760  1.0000
  C   C47       1.0  0.52540  0.17690  0.29220  1.0000
  C   C48       1.0  0.47460  0.82310  0.70780  1.0000
  H   H25       1.0  0.47050  0.20980  0.28860  1.0000
  H   H26       1.0  0.52950  0.79020  0.71140  1.0000
  C   C49       1.0  0.49080  0.05860  0.21710  1.0000
  C   C50       1.0  0.50920  0.94140  0.78290  1.0000
  H   H27       1.0  0.41220  0.01070  0.16230  1.0000
  H   H28       1.0  0.58780  0.98930  0.83770  1.0000
  C   C51       1.0  0.57110  0.01050  0.22230  1.0000
  C   C52       1.0  0.42890  0.98950  0.77770  1.0000
  C   C53       1.0  0.68610  0.08060  0.30260  1.0000
  C   C54       1.0  0.31390  0.91940  0.69740  1.0000
  H   H29       1.0  0.74100  0.04770  0.30610  1.0000
  H   H30       1.0  0.25900  0.95230  0.69390  1.0000
  C   C55       1.0  0.72070  0.19880  0.37760  1.0000
  C   C56       1.0  0.27930  0.80120  0.62240  1.0000
  H   H31       1.0  0.79920  0.24680  0.43240  1.0000
  H   H32       1.0  0.20080  0.75320  0.56760  1.0000
