data_image0
_chemical_formula_structural       Cd2O16C12H4C12H4C8H4C4H4C4H4C4
_chemical_formula_sum              "Cd2 O16 C44 H20"
_cell_length_a       7.935
_cell_length_b       6.8376
_cell_length_c       21.605
_cell_angle_alpha    90
_cell_angle_beta     105.871
_cell_angle_gamma    90

_space_group_name_H-M_alt    "P 1"
_space_group_IT_number       1

loop_
  _space_group_symop_operation_xyz
  'x, y, z'

loop_
  _atom_site_type_symbol
  _atom_site_label
  _atom_site_symmetry_multiplicity
  _atom_site_fract_x
  _atom_site_fract_y
  _atom_site_fract_z
  _atom_site_occupancy
  Cd  Cd1       1.0  0.00000  0.73829  0.25000  1.0000
  Cd  Cd2       1.0  0.00000  0.26171  0.75000  1.0000
  O   O1        1.0  0.02490  0.51310  0.17131  1.0000
  O   O2        1.0  0.97510  0.51310  0.32869  1.0000
  O   O3        1.0  0.97510  0.48690  0.82869  1.0000
  O   O4        1.0  0.02490  0.48690  0.67131  1.0000
  O   O5        1.0  0.04170  0.81580  0.14116  1.0000
  O   O6        1.0  0.95830  0.81580  0.35884  1.0000
  O   O7        1.0  0.95830  0.18420  0.85884  1.0000
  O   O8        1.0  0.04170  0.18420  0.64116  1.0000
  O   O9        1.0  0.70020  0.70130  0.19840  1.0000
  O   O10       1.0  0.29980  0.70130  0.30160  1.0000
  O   O11       1.0  0.29980  0.29870  0.80160  1.0000
  O   O12       1.0  0.70020  0.29870  0.69840  1.0000
  O   O13       1.0  0.78770  0.00450  0.19930  1.0000
  O   O14       1.0  0.21230  0.00450  0.30070  1.0000
  O   O15       1.0  0.21230  0.99550  0.80070  1.0000
  O   O16       1.0  0.78770  0.99550  0.69930  1.0000
  C   C1        1.0  0.03420  0.63730  0.12990  1.0000
  C   C2        1.0  0.96580  0.63730  0.37010  1.0000
  C   C3        1.0  0.96580  0.36270  0.87010  1.0000
  C   C4        1.0  0.03420  0.36270  0.62990  1.0000
  C   C5        1.0  0.02730  0.56520  0.06350  1.0000
  C   C6        1.0  0.97270  0.56520  0.43650  1.0000
  C   C7        1.0  0.97270  0.43480  0.93650  1.0000
  C   C8        1.0  0.02730  0.43480  0.56350  1.0000
  C   C9        1.0  0.91280  0.40980  0.03940  1.0000
  C   C10       1.0  0.08720  0.40980  0.46060  1.0000
  C   C11       1.0  0.08720  0.59020  0.96060  1.0000
  C   C12       1.0  0.91280  0.59020  0.53940  1.0000
  H   H1        1.0  0.85520  0.34920  0.06630  1.0000
  H   H2        1.0  0.14480  0.34920  0.43370  1.0000
  H   H3        1.0  0.14480  0.65080  0.93370  1.0000
  H   H4        1.0  0.85520  0.65080  0.56630  1.0000
  C   C13       1.0  0.11740  0.65680  0.02400  1.0000
  C   C14       1.0  0.88260  0.65680  0.47600  1.0000
  C   C15       1.0  0.88260  0.34320  0.97600  1.0000
  C   C16       1.0  0.11740  0.34320  0.52400  1.0000
  C   C17       1.0  0.25150  0.81350  0.04770  1.0000
  C   C18       1.0  0.74850  0.81350  0.45230  1.0000
  C   C19       1.0  0.74850  0.18650  0.95230  1.0000
  C   C20       1.0  0.25150  0.18650  0.54770  1.0000
  C   C21       1.0  0.39450  0.77880  0.10050  1.0000
  C   C22       1.0  0.60550  0.77880  0.39950  1.0000
  C   C23       1.0  0.60550  0.22120  0.89950  1.0000
  C   C24       1.0  0.39450  0.22120  0.60050  1.0000
  H   H5        1.0  0.40540  0.65790  0.12090  1.0000
  H   H6        1.0  0.59460  0.65790  0.37910  1.0000
  H   H7        1.0  0.59460  0.34210  0.87910  1.0000
  H   H8        1.0  0.40540  0.34210  0.62090  1.0000
  C   C25       1.0  0.52150  0.92150  0.12340  1.0000
  C   C26       1.0  0.47850  0.92150  0.37660  1.0000
  C   C27       1.0  0.47850  0.07850  0.87660  1.0000
  C   C28       1.0  0.52150  0.07850  0.62340  1.0000
  C   C29       1.0  0.50260  0.10170  0.09270  1.0000
  C   C30       1.0  0.49740  0.10170  0.40730  1.0000
  C   C31       1.0  0.49740  0.89830  0.90730  1.0000
  C   C32       1.0  0.50260  0.89830  0.59270  1.0000
  H   H9        1.0  0.58530  0.19900  0.10810  1.0000
  H   H10       1.0  0.41470  0.19900  0.39190  1.0000
  H   H11       1.0  0.41470  0.80100  0.89190  1.0000
  H   H12       1.0  0.58530  0.80100  0.60810  1.0000
  C   C33       1.0  0.36340  0.13940  0.03970  1.0000
  C   C34       1.0  0.63660  0.13940  0.46030  1.0000
  C   C35       1.0  0.63660  0.86060  0.96030  1.0000
  C   C36       1.0  0.36340  0.86060  0.53970  1.0000
  H   H13       1.0  0.35210  0.26120  0.01980  1.0000
  H   H14       1.0  0.64790  0.26120  0.48020  1.0000
  H   H15       1.0  0.64790  0.73880  0.98020  1.0000
  H   H16       1.0  0.35210  0.73880  0.51980  1.0000
  C   C37       1.0  0.24020  0.99380  0.01630  1.0000
  C   C38       1.0  0.75980  0.99380  0.48370  1.0000
  C   C39       1.0  0.75980  0.00620  0.98370  1.0000
  C   C40       1.0  0.24020  0.00620  0.51630  1.0000
  H   H17       1.0  0.14930  0.01660  0.97940  1.0000
  H   H18       1.0  0.85070  0.01660  0.52060  1.0000
  H   H19       1.0  0.85070  0.98340  0.02060  1.0000
  H   H20       1.0  0.14930  0.98340  0.47940  1.0000
  C   C41       1.0  0.67810  0.87210  0.17780  1.0000
  C   C42       1.0  0.32190  0.87210  0.32220  1.0000
  C   C43       1.0  0.32190  0.12790  0.82220  1.0000
  C   C44       1.0  0.67810  0.12790  0.67780  1.0000
