data_image0
_chemical_formula_structural       Cu8O24C8H12C8H12C8H12C8H12C8H12O16
_chemical_formula_sum              "Cu8 O40 C40 H60"
_cell_length_a       12.2105
_cell_length_b       11.5458
_cell_length_c       17.7582
_cell_angle_alpha    90
_cell_angle_beta     101.407
_cell_angle_gamma    90

_space_group_name_H-M_alt    "P 1"
_space_group_IT_number       1

loop_
  _space_group_symop_operation_xyz
  'x, y, z'

loop_
  _atom_site_type_symbol
  _atom_site_label
  _atom_site_symmetry_multiplicity
  _atom_site_fract_x
  _atom_site_fract_y
  _atom_site_fract_z
  _atom_site_occupancy
  Cu  Cu1       1.0  0.48078  0.98595  0.06980  1.0000
  Cu  Cu2       1.0  0.01922  0.48595  0.43020  1.0000
  Cu  Cu3       1.0  0.51922  0.01405  0.93020  1.0000
  Cu  Cu4       1.0  0.98078  0.51405  0.56980  1.0000
  Cu  Cu5       1.0  0.48343  0.99096  0.42450  1.0000
  Cu  Cu6       1.0  0.01657  0.49096  0.07550  1.0000
  Cu  Cu7       1.0  0.51657  0.00904  0.57550  1.0000
  Cu  Cu8       1.0  0.98343  0.50904  0.92450  1.0000
  O   O1        1.0  0.32952  0.04322  0.02293  1.0000
  O   O2        1.0  0.17048  0.54322  0.47707  1.0000
  O   O3        1.0  0.67048  0.95678  0.97707  1.0000
  O   O4        1.0  0.82952  0.45678  0.52293  1.0000
  O   O5        1.0  0.46656  0.85265  0.91568  1.0000
  O   O6        1.0  0.03344  0.35265  0.58432  1.0000
  O   O7        1.0  0.53344  0.14735  0.08432  1.0000
  O   O8        1.0  0.96656  0.64735  0.41568  1.0000
  O   O9        1.0  0.42082  0.14836  0.42542  1.0000
  O   O10       1.0  0.07918  0.64836  0.07458  1.0000
  O   O11       1.0  0.57918  0.85164  0.57458  1.0000
  O   O12       1.0  0.92082  0.35164  0.92542  1.0000
  O   O13       1.0  0.44491  0.16031  0.55355  1.0000
  O   O14       1.0  0.05509  0.66031  0.94645  1.0000
  O   O15       1.0  0.55509  0.83969  0.44645  1.0000
  O   O16       1.0  0.94491  0.33969  0.05355  1.0000
  O   O17       1.0  0.33941  0.92544  0.44007  1.0000
  O   O18       1.0  0.16059  0.42544  0.05993  1.0000
  O   O19       1.0  0.66059  0.07456  0.55993  1.0000
  O   O20       1.0  0.83941  0.57456  0.94007  1.0000
  O   O21       1.0  0.36617  0.94150  0.56774  1.0000
  O   O22       1.0  0.13383  0.44150  0.93226  1.0000
  O   O23       1.0  0.63383  0.05850  0.43226  1.0000
  O   O24       1.0  0.86617  0.55850  0.06774  1.0000
  C   C1        1.0  0.30000  0.06920  0.95300  1.0000
  C   C2        1.0  0.20000  0.56920  0.54700  1.0000
  C   C3        1.0  0.70000  0.93080  0.04700  1.0000
  C   C4        1.0  0.80000  0.43080  0.45300  1.0000
  C   C5        1.0  0.18050  0.10620  0.92459  1.0000
  C   C6        1.0  0.31950  0.60620  0.57541  1.0000
  C   C7        1.0  0.81950  0.89380  0.07541  1.0000
  C   C8        1.0  0.68050  0.39380  0.42459  1.0000
  H   H1        1.0  0.17890  0.18510  0.90730  1.0000
  H   H2        1.0  0.32110  0.68510  0.59270  1.0000
  H   H3        1.0  0.82110  0.81490  0.09270  1.0000
  H   H4        1.0  0.67890  0.31490  0.40730  1.0000
  H   H5        1.0  0.14010  0.09980  0.96560  1.0000
  H   H6        1.0  0.35990  0.59980  0.53440  1.0000
  H   H7        1.0  0.85990  0.90020  0.03440  1.0000
  H   H8        1.0  0.64010  0.40020  0.46560  1.0000
  H   H9        1.0  0.14650  0.05720  0.88280  1.0000
  H   H10       1.0  0.35350  0.55720  0.61720  1.0000
  H   H11       1.0  0.85350  0.94280  0.11720  1.0000
  H   H12       1.0  0.64650  0.44280  0.38280  1.0000
  C   C9        1.0  0.43190  0.79500  0.96673  1.0000
  C   C10       1.0  0.06810  0.29500  0.53327  1.0000
  C   C11       1.0  0.56810  0.20500  0.03327  1.0000
  C   C12       1.0  0.93190  0.70500  0.46673  1.0000
  C   C13       1.0  0.38590  0.67660  0.94530  1.0000
  C   C14       1.0  0.11410  0.17660  0.55470  1.0000
  C   C15       1.0  0.61410  0.32340  0.05470  1.0000
  C   C16       1.0  0.88590  0.82340  0.44530  1.0000
  H   H13       1.0  0.30600  0.68050  0.93100  1.0000
  H   H14       1.0  0.19400  0.18050  0.56900  1.0000
  H   H15       1.0  0.69400  0.31950  0.06900  1.0000
  H   H16       1.0  0.80600  0.81950  0.43100  1.0000
  H   H17       1.0  0.40660  0.62540  0.98840  1.0000
  H   H18       1.0  0.09340  0.12540  0.51160  1.0000
  H   H19       1.0  0.59340  0.37460  0.01160  1.0000
  H   H20       1.0  0.90660  0.87460  0.48840  1.0000
  H   H21       1.0  0.41580  0.64790  0.90280  1.0000
  H   H22       1.0  0.08420  0.14790  0.59720  1.0000
  H   H23       1.0  0.58420  0.35210  0.09720  1.0000
  H   H24       1.0  0.91580  0.85210  0.40280  1.0000
  C   C17       1.0  0.41305  0.19970  0.48676  1.0000
  C   C18       1.0  0.08695  0.69970  0.01324  1.0000
  C   C19       1.0  0.58695  0.80030  0.51324  1.0000
  C   C20       1.0  0.91305  0.30030  0.98676  1.0000
  C   C21       1.0  0.36050  0.31810  0.47920  1.0000
  C   C22       1.0  0.13950  0.81810  0.02080  1.0000
  C   C23       1.0  0.63950  0.68190  0.52080  1.0000
  C   C24       1.0  0.86050  0.18190  0.97920  1.0000
  H   H25       1.0  0.39540  0.36500  0.44600  1.0000
  H   H26       1.0  0.10460  0.86500  0.05400  1.0000
  H   H27       1.0  0.60460  0.63500  0.55400  1.0000
  H   H28       1.0  0.89540  0.13500  0.94600  1.0000
  H   H29       1.0  0.37030  0.35370  0.52890  1.0000
  H   H30       1.0  0.12970  0.85370  0.97110  1.0000
  H   H31       1.0  0.62970  0.64630  0.47110  1.0000
  H   H32       1.0  0.87030  0.14630  0.02890  1.0000
  H   H33       1.0  0.28210  0.31110  0.45780  1.0000
  H   H34       1.0  0.21790  0.81110  0.04220  1.0000
  H   H35       1.0  0.71790  0.68890  0.54220  1.0000
  H   H36       1.0  0.78210  0.18890  0.95780  1.0000
  C   C25       1.0  0.30750  0.91700  0.50282  1.0000
  C   C26       1.0  0.19250  0.41700  0.99718  1.0000
  C   C27       1.0  0.69250  0.08300  0.49718  1.0000
  C   C28       1.0  0.80750  0.58300  0.00282  1.0000
  C   C29       1.0  0.19000  0.87520  0.49974  1.0000
  C   C30       1.0  0.31000  0.37520  0.00026  1.0000
  C   C31       1.0  0.81000  0.12480  0.50026  1.0000
  C   C32       1.0  0.69000  0.62480  0.99974  1.0000
  H   H37       1.0  0.13880  0.92370  0.46570  1.0000
  H   H38       1.0  0.36120  0.42370  0.03430  1.0000
  H   H39       1.0  0.86120  0.07630  0.53430  1.0000
  H   H40       1.0  0.63880  0.57630  0.96570  1.0000
  H   H41       1.0  0.17310  0.87830  0.55020  1.0000
  H   H42       1.0  0.32690  0.37830  0.94980  1.0000
  H   H43       1.0  0.82690  0.12170  0.44980  1.0000
  H   H44       1.0  0.67310  0.62170  0.05020  1.0000
  H   H45       1.0  0.18310  0.79680  0.48130  1.0000
  H   H46       1.0  0.31690  0.29680  0.01870  1.0000
  H   H47       1.0  0.81690  0.20320  0.51870  1.0000
  H   H48       1.0  0.68310  0.70320  0.98130  1.0000
  C   C33       1.0  0.47810  0.95050  0.24768  1.0000
  C   C34       1.0  0.02190  0.45050  0.25232  1.0000
  C   C35       1.0  0.52190  0.04950  0.75232  1.0000
  C   C36       1.0  0.97810  0.54950  0.74768  1.0000
  C   C37       1.0  0.57690  0.86990  0.26489  1.0000
  C   C38       1.0  0.92310  0.36990  0.23511  1.0000
  C   C39       1.0  0.42310  0.13010  0.73511  1.0000
  C   C40       1.0  0.07690  0.63010  0.76489  1.0000
  H   H49       1.0  0.55110  0.79120  0.26230  1.0000
  H   H50       1.0  0.94890  0.29120  0.23770  1.0000
  H   H51       1.0  0.44890  0.20880  0.73770  1.0000
  H   H52       1.0  0.05110  0.70880  0.76230  1.0000
  H   H53       1.0  0.61910  0.88560  0.31550  1.0000
  H   H54       1.0  0.88090  0.38560  0.18450  1.0000
  H   H55       1.0  0.38090  0.11440  0.68450  1.0000
  H   H56       1.0  0.11910  0.61440  0.81550  1.0000
  H   H57       1.0  0.62350  0.88160  0.22790  1.0000
  H   H58       1.0  0.87650  0.38160  0.27210  1.0000
  H   H59       1.0  0.37650  0.11840  0.77210  1.0000
  H   H60       1.0  0.12350  0.61840  0.72790  1.0000
  O   O25       1.0  0.36242  0.06542  0.90450  1.0000
  O   O26       1.0  0.13758  0.56542  0.59550  1.0000
  O   O27       1.0  0.63758  0.93458  0.09550  1.0000
  O   O28       1.0  0.86242  0.43458  0.40450  1.0000
  O   O29       1.0  0.43283  0.82952  0.03409  1.0000
  O   O30       1.0  0.06717  0.32952  0.46591  1.0000
  O   O31       1.0  0.56717  0.17048  0.96591  1.0000
  O   O32       1.0  0.93283  0.67048  0.53409  1.0000
  O   O33       1.0  0.44001  0.97911  0.18015  1.0000
  O   O34       1.0  0.05999  0.47911  0.31985  1.0000
  O   O35       1.0  0.55999  0.02089  0.81985  1.0000
  O   O36       1.0  0.94001  0.52089  0.68015  1.0000
  O   O37       1.0  0.43400  0.98594  0.30253  1.0000
  O   O38       1.0  0.06600  0.48594  0.19747  1.0000
  O   O39       1.0  0.56600  0.01406  0.69747  1.0000
  O   O40       1.0  0.93400  0.51406  0.80253  1.0000
