data_image0
_chemical_formula_structural       Cu8O40C8H12C8H12C8H12C8H12C8H12
_chemical_formula_sum              "Cu8 O40 C40 H60"
_cell_length_a       12.1705
_cell_length_b       11.5257
_cell_length_c       17.7529
_cell_angle_alpha    90
_cell_angle_beta     101.631
_cell_angle_gamma    90

_space_group_name_H-M_alt    "P 1"
_space_group_IT_number       1

loop_
  _space_group_symop_operation_xyz
  'x, y, z'

loop_
  _atom_site_type_symbol
  _atom_site_label
  _atom_site_symmetry_multiplicity
  _atom_site_fract_x
  _atom_site_fract_y
  _atom_site_fract_z
  _atom_site_occupancy
  Cu  Cu1       1.0  0.51891  0.01400  0.93009  1.0000
  Cu  Cu2       1.0  0.98109  0.51400  0.56991  1.0000
  Cu  Cu3       1.0  0.48109  0.98600  0.06991  1.0000
  Cu  Cu4       1.0  0.01891  0.48600  0.43009  1.0000
  Cu  Cu5       1.0  0.51618  0.00932  0.57545  1.0000
  Cu  Cu6       1.0  0.98382  0.50932  0.92455  1.0000
  Cu  Cu7       1.0  0.48382  0.99068  0.42455  1.0000
  Cu  Cu8       1.0  0.01618  0.49068  0.07545  1.0000
  O   O1        1.0  0.56689  0.17094  0.96603  1.0000
  O   O2        1.0  0.93311  0.67094  0.53397  1.0000
  O   O3        1.0  0.43311  0.82906  0.03397  1.0000
  O   O4        1.0  0.06689  0.32906  0.46603  1.0000
  O   O5        1.0  0.53413  0.14796  0.08484  1.0000
  O   O6        1.0  0.96587  0.64796  0.41516  1.0000
  O   O7        1.0  0.46587  0.85204  0.91516  1.0000
  O   O8        1.0  0.03413  0.35204  0.58484  1.0000
  O   O9        1.0  0.36124  0.06567  0.90424  1.0000
  O   O10       1.0  0.13876  0.56567  0.59576  1.0000
  O   O11       1.0  0.63876  0.93433  0.09576  1.0000
  O   O12       1.0  0.86124  0.43433  0.40424  1.0000
  O   O13       1.0  0.32911  0.04372  0.02302  1.0000
  O   O14       1.0  0.17089  0.54372  0.47698  1.0000
  O   O15       1.0  0.67089  0.95628  0.97698  1.0000
  O   O16       1.0  0.82911  0.45628  0.52302  1.0000
  O   O17       1.0  0.56038  0.02086  0.82022  1.0000
  O   O18       1.0  0.93962  0.52086  0.67978  1.0000
  O   O19       1.0  0.43962  0.97914  0.17978  1.0000
  O   O20       1.0  0.06038  0.47914  0.32022  1.0000
  O   O21       1.0  0.56543  0.01484  0.69723  1.0000
  O   O22       1.0  0.93457  0.51484  0.80277  1.0000
  O   O23       1.0  0.43457  0.98516  0.30277  1.0000
  O   O24       1.0  0.06543  0.48516  0.19723  1.0000
  O   O25       1.0  0.36518  0.94160  0.56762  1.0000
  O   O26       1.0  0.13482  0.44160  0.93238  1.0000
  O   O27       1.0  0.63482  0.05840  0.43238  1.0000
  O   O28       1.0  0.86518  0.55840  0.06762  1.0000
  O   O29       1.0  0.33916  0.92482  0.43945  1.0000
  O   O30       1.0  0.16084  0.42482  0.06055  1.0000
  O   O31       1.0  0.66084  0.07518  0.56055  1.0000
  O   O32       1.0  0.83916  0.57518  0.93945  1.0000
  O   O33       1.0  0.57924  0.85131  0.57512  1.0000
  O   O34       1.0  0.92076  0.35131  0.92488  1.0000
  O   O35       1.0  0.42076  0.14869  0.42488  1.0000
  O   O36       1.0  0.07924  0.64869  0.07512  1.0000
  O   O37       1.0  0.55641  0.83909  0.44690  1.0000
  O   O38       1.0  0.94359  0.33909  0.05310  1.0000
  O   O39       1.0  0.44359  0.16091  0.55310  1.0000
  O   O40       1.0  0.05641  0.66091  0.94690  1.0000
  C   C1        1.0  0.56821  0.20575  0.03343  1.0000
  C   C2        1.0  0.93179  0.70575  0.46657  1.0000
  C   C3        1.0  0.43179  0.79425  0.96657  1.0000
  C   C4        1.0  0.06821  0.29425  0.53343  1.0000
  C   C5        1.0  0.61560  0.32461  0.05492  1.0000
  C   C6        1.0  0.88440  0.82461  0.44508  1.0000
  C   C7        1.0  0.38440  0.67539  0.94508  1.0000
  C   C8        1.0  0.11560  0.17539  0.55492  1.0000
  H   H1        1.0  0.58570  0.35430  0.09850  1.0000
  H   H2        1.0  0.91430  0.85430  0.40150  1.0000
  H   H3        1.0  0.41430  0.64570  0.90150  1.0000
  H   H4        1.0  0.08570  0.14570  0.59850  1.0000
  H   H5        1.0  0.59440  0.37700  0.01090  1.0000
  H   H6        1.0  0.90560  0.87700  0.48910  1.0000
  H   H7        1.0  0.40560  0.62300  0.98910  1.0000
  H   H8        1.0  0.09440  0.12300  0.51090  1.0000
  H   H9        1.0  0.69760  0.31990  0.06930  1.0000
  H   H10       1.0  0.80240  0.81990  0.43070  1.0000
  H   H11       1.0  0.30240  0.68010  0.93070  1.0000
  H   H12       1.0  0.19760  0.18010  0.56930  1.0000
  C   C9        1.0  0.29923  0.06929  0.95286  1.0000
  C   C10       1.0  0.20077  0.56929  0.54714  1.0000
  C   C11       1.0  0.70077  0.93071  0.04714  1.0000
  C   C12       1.0  0.79923  0.43071  0.45286  1.0000
  C   C13       1.0  0.17952  0.10693  0.92411  1.0000
  C   C14       1.0  0.32048  0.60693  0.57589  1.0000
  C   C15       1.0  0.82048  0.89307  0.07589  1.0000
  C   C16       1.0  0.67952  0.39307  0.42411  1.0000
  H   H13       1.0  0.13770  0.09940  0.96560  1.0000
  H   H14       1.0  0.36230  0.59940  0.53440  1.0000
  H   H15       1.0  0.86230  0.90060  0.03440  1.0000
  H   H16       1.0  0.63770  0.40060  0.46560  1.0000
  H   H17       1.0  0.14490  0.05780  0.88070  1.0000
  H   H18       1.0  0.35510  0.55780  0.61930  1.0000
  H   H19       1.0  0.85510  0.94220  0.11930  1.0000
  H   H20       1.0  0.64490  0.44220  0.38070  1.0000
  H   H21       1.0  0.17820  0.18800  0.90730  1.0000
  H   H22       1.0  0.32180  0.68800  0.59270  1.0000
  H   H23       1.0  0.82180  0.81200  0.09270  1.0000
  H   H24       1.0  0.67820  0.31200  0.40730  1.0000
  C   C17       1.0  0.52194  0.04997  0.75230  1.0000
  C   C18       1.0  0.97806  0.54997  0.74770  1.0000
  C   C19       1.0  0.47806  0.95003  0.24770  1.0000
  C   C20       1.0  0.02194  0.45003  0.25230  1.0000
  C   C21       1.0  0.42213  0.13096  0.73501  1.0000
  C   C22       1.0  0.07787  0.63096  0.76499  1.0000
  C   C23       1.0  0.57787  0.86904  0.26499  1.0000
  C   C24       1.0  0.92213  0.36904  0.23501  1.0000
  H   H25       1.0  0.37590  0.12050  0.77370  1.0000
  H   H26       1.0  0.12410  0.62050  0.72630  1.0000
  H   H27       1.0  0.62410  0.87950  0.22630  1.0000
  H   H28       1.0  0.87590  0.37950  0.27370  1.0000
  H   H29       1.0  0.37740  0.11340  0.68390  1.0000
  H   H30       1.0  0.12260  0.61340  0.81610  1.0000
  H   H31       1.0  0.62260  0.88660  0.31610  1.0000
  H   H32       1.0  0.87740  0.38660  0.18390  1.0000
  H   H33       1.0  0.44850  0.21140  0.73620  1.0000
  H   H34       1.0  0.05150  0.71140  0.76380  1.0000
  H   H35       1.0  0.55150  0.78860  0.26380  1.0000
  H   H36       1.0  0.94850  0.28860  0.23620  1.0000
  C   C25       1.0  0.30646  0.91702  0.50207  1.0000
  C   C26       1.0  0.19354  0.41702  0.99793  1.0000
  C   C27       1.0  0.69354  0.08298  0.49793  1.0000
  C   C28       1.0  0.80646  0.58298  0.00207  1.0000
  C   C29       1.0  0.18876  0.87388  0.49866  1.0000
  C   C30       1.0  0.31124  0.37388  0.00134  1.0000
  C   C31       1.0  0.81124  0.12612  0.50134  1.0000
  C   C32       1.0  0.68876  0.62612  0.99866  1.0000
  H   H37       1.0  0.13560  0.92500  0.46550  1.0000
  H   H38       1.0  0.36440  0.42500  0.03450  1.0000
  H   H39       1.0  0.86440  0.07500  0.53450  1.0000
  H   H40       1.0  0.63560  0.57500  0.96550  1.0000
  H   H41       1.0  0.17260  0.87360  0.55050  1.0000
  H   H42       1.0  0.32740  0.37360  0.94950  1.0000
  H   H43       1.0  0.82740  0.12640  0.44950  1.0000
  H   H44       1.0  0.67260  0.62640  0.05050  1.0000
  H   H45       1.0  0.18160  0.79490  0.47770  1.0000
  H   H46       1.0  0.31840  0.29490  0.02230  1.0000
  H   H47       1.0  0.81840  0.20510  0.52230  1.0000
  H   H48       1.0  0.68160  0.70510  0.97770  1.0000
  C   C33       1.0  0.58794  0.79981  0.51407  1.0000
  C   C34       1.0  0.91206  0.29981  0.98593  1.0000
  C   C35       1.0  0.41206  0.20019  0.48593  1.0000
  C   C36       1.0  0.08794  0.70019  0.01407  1.0000
  C   C37       1.0  0.64109  0.68089  0.52171  1.0000
  C   C38       1.0  0.85891  0.18089  0.97829  1.0000
  C   C39       1.0  0.35891  0.31911  0.47829  1.0000
  C   C40       1.0  0.14109  0.81911  0.02171  1.0000
  H   H49       1.0  0.63460  0.64630  0.47060  1.0000
  H   H50       1.0  0.86540  0.14630  0.02940  1.0000
  H   H51       1.0  0.36540  0.35370  0.52940  1.0000
  H   H52       1.0  0.13460  0.85370  0.97060  1.0000
  H   H53       1.0  0.60270  0.63150  0.55320  1.0000
  H   H54       1.0  0.89730  0.13150  0.94680  1.0000
  H   H55       1.0  0.39730  0.36850  0.44680  1.0000
  H   H56       1.0  0.10270  0.86850  0.05320  1.0000
  H   H57       1.0  0.72050  0.68770  0.54630  1.0000
  H   H58       1.0  0.77950  0.18770  0.95370  1.0000
  H   H59       1.0  0.27950  0.31230  0.45370  1.0000
  H   H60       1.0  0.22050  0.81230  0.04630  1.0000
