data_image0
_chemical_formula_structural       Er8O64C4H4C4H4C4H4C4H4C4H4C4H4C4H4C4H4
_chemical_formula_sum              "Er8 O64 C32 H32"
_cell_length_a       18.0939
_cell_length_b       13.3115
_cell_length_c       8.5775
_cell_angle_alpha    90
_cell_angle_beta     90
_cell_angle_gamma    90

_space_group_name_H-M_alt    "P 1"
_space_group_IT_number       1

loop_
  _space_group_symop_operation_xyz
  'x, y, z'

loop_
  _atom_site_type_symbol
  _atom_site_label
  _atom_site_symmetry_multiplicity
  _atom_site_fract_x
  _atom_site_fract_y
  _atom_site_fract_z
  _atom_site_occupancy
  Er  Er1       1.0  0.60102  0.37458  0.25264  1.0000
  Er  Er2       1.0  0.39898  0.62542  0.75264  1.0000
  Er  Er3       1.0  0.10102  0.12542  0.25264  1.0000
  Er  Er4       1.0  0.89898  0.87458  0.75264  1.0000
  Er  Er5       1.0  0.39380  0.12491  0.75236  1.0000
  Er  Er6       1.0  0.60620  0.87509  0.25236  1.0000
  Er  Er7       1.0  0.89380  0.37509  0.75236  1.0000
  Er  Er8       1.0  0.10620  0.62491  0.25236  1.0000
  O   O1        1.0  0.56390  0.29410  0.48110  1.0000
  O   O2        1.0  0.43610  0.70590  0.98110  1.0000
  O   O3        1.0  0.06390  0.20590  0.48110  1.0000
  O   O4        1.0  0.93610  0.79410  0.98110  1.0000
  O   O5        1.0  0.49710  0.21080  0.65210  1.0000
  O   O6        1.0  0.50290  0.78920  0.15210  1.0000
  O   O7        1.0  0.99710  0.28920  0.65210  1.0000
  O   O8        1.0  0.00290  0.71080  0.15210  1.0000
  O   O9        1.0  0.64800  0.20570  0.23330  1.0000
  O   O10       1.0  0.35200  0.79430  0.73330  1.0000
  O   O11       1.0  0.14800  0.29430  0.23330  1.0000
  O   O12       1.0  0.85200  0.70570  0.73330  1.0000
  O   O13       1.0  0.64780  0.04150  0.28190  1.0000
  O   O14       1.0  0.35220  0.95850  0.78190  1.0000
  O   O15       1.0  0.14780  0.45850  0.28190  1.0000
  O   O16       1.0  0.85220  0.54150  0.78190  1.0000
  O   O17       1.0  0.70320  0.38640  0.42050  1.0000
  O   O18       1.0  0.29680  0.61360  0.92050  1.0000
  O   O19       1.0  0.20320  0.11360  0.42050  1.0000
  O   O20       1.0  0.79680  0.88640  0.92050  1.0000
  O   O21       1.0  0.79570  0.38110  0.58150  1.0000
  O   O22       1.0  0.20430  0.61890  0.08150  1.0000
  O   O23       1.0  0.29570  0.11890  0.58150  1.0000
  O   O24       1.0  0.70430  0.88110  0.08150  1.0000
  O   O25       1.0  0.70110  0.36600  0.09100  1.0000
  O   O26       1.0  0.29890  0.63400  0.59100  1.0000
  O   O27       1.0  0.20110  0.13400  0.09100  1.0000
  O   O28       1.0  0.79890  0.86600  0.59100  1.0000
  O   O29       1.0  0.79150  0.36780  0.92390  1.0000
  O   O30       1.0  0.20850  0.63220  0.42390  1.0000
  O   O31       1.0  0.29150  0.13220  0.92390  1.0000
  O   O32       1.0  0.70850  0.86780  0.42390  1.0000
  O   O33       1.0  0.64770  0.54330  0.23820  1.0000
  O   O34       1.0  0.35230  0.45670  0.73820  1.0000
  O   O35       1.0  0.14770  0.95670  0.23820  1.0000
  O   O36       1.0  0.85230  0.04330  0.73820  1.0000
  O   O37       1.0  0.64750  0.70760  0.19590  1.0000
  O   O38       1.0  0.35250  0.29240  0.69590  1.0000
  O   O39       1.0  0.14750  0.79240  0.19590  1.0000
  O   O40       1.0  0.85250  0.20760  0.69590  1.0000
  O   O41       1.0  0.50340  0.46710  0.33840  1.0000
  O   O42       1.0  0.49660  0.53290  0.83840  1.0000
  O   O43       1.0  0.00340  0.03290  0.33840  1.0000
  O   O44       1.0  0.99660  0.96710  0.83840  1.0000
  O   O45       1.0  0.43430  0.55320  0.50770  1.0000
  O   O46       1.0  0.56570  0.44680  0.00770  1.0000
  O   O47       1.0  0.93430  0.94680  0.50770  1.0000
  O   O48       1.0  0.06570  0.05320  0.00770  1.0000
  O   O49       1.0  0.50180  0.27980  0.15330  1.0000
  O   O50       1.0  0.49820  0.72020  0.65330  1.0000
  O   O51       1.0  0.00180  0.22020  0.15330  1.0000
  O   O52       1.0  0.99820  0.77980  0.65330  1.0000
  O   O53       1.0  0.42710  0.21590  0.97310  1.0000
  O   O54       1.0  0.57290  0.78410  0.47310  1.0000
  O   O55       1.0  0.92710  0.28410  0.97310  1.0000
  O   O56       1.0  0.07290  0.71590  0.47310  1.0000
  O   O57       1.0  0.49710  0.04060  0.84960  1.0000
  O   O58       1.0  0.50290  0.95940  0.34960  1.0000
  O   O59       1.0  0.99710  0.45940  0.84960  1.0000
  O   O60       1.0  0.00290  0.54060  0.34960  1.0000
  O   O61       1.0  0.57190  0.96280  0.01640  1.0000
  O   O62       1.0  0.42810  0.03720  0.51640  1.0000
  O   O63       1.0  0.07190  0.53720  0.01640  1.0000
  O   O64       1.0  0.92810  0.46280  0.51640  1.0000
  C   C1        1.0  0.51020  0.24680  0.52060  1.0000
  C   C2        1.0  0.48980  0.75320  0.02060  1.0000
  C   C3        1.0  0.01020  0.25320  0.52060  1.0000
  C   C4        1.0  0.98980  0.74680  0.02060  1.0000
  H   H1        1.0  0.47370  0.23570  0.44280  1.0000
  H   H2        1.0  0.52630  0.76430  0.94280  1.0000
  H   H3        1.0  0.97370  0.26430  0.44280  1.0000
  H   H4        1.0  0.02630  0.73570  0.94280  1.0000
  C   C5        1.0  0.61550  0.11860  0.26290  1.0000
  C   C6        1.0  0.38450  0.88140  0.76290  1.0000
  C   C7        1.0  0.11550  0.38140  0.26290  1.0000
  C   C8        1.0  0.88450  0.61860  0.76290  1.0000
  H   H5        1.0  0.56310  0.11750  0.26940  1.0000
  H   H6        1.0  0.43690  0.88250  0.76940  1.0000
  H   H7        1.0  0.06310  0.38250  0.26940  1.0000
  H   H8        1.0  0.93690  0.61750  0.76940  1.0000
  C   C9        1.0  0.73250  0.35420  0.52500  1.0000
  C   C10       1.0  0.26750  0.64580  0.02500  1.0000
  C   C11       1.0  0.23250  0.14580  0.52500  1.0000
  C   C12       1.0  0.76750  0.85420  0.02500  1.0000
  H   H9        1.0  0.70790  0.30120  0.57780  1.0000
  H   H10       1.0  0.29210  0.69880  0.07780  1.0000
  H   H11       1.0  0.20790  0.19880  0.57780  1.0000
  H   H12       1.0  0.79210  0.80120  0.07780  1.0000
  C   C13       1.0  0.73300  0.39520  0.96090  1.0000
  C   C14       1.0  0.26700  0.60480  0.46090  1.0000
  C   C15       1.0  0.23300  0.10480  0.96090  1.0000
  C   C16       1.0  0.76700  0.89520  0.46090  1.0000
  H   H13       1.0  0.70730  0.44050  0.89450  1.0000
  H   H14       1.0  0.29270  0.55950  0.39450  1.0000
  H   H15       1.0  0.20730  0.05950  0.89450  1.0000
  H   H16       1.0  0.79270  0.94050  0.39450  1.0000
  C   C17       1.0  0.61650  0.62170  0.21410  1.0000
  C   C18       1.0  0.38350  0.37830  0.71410  1.0000
  C   C19       1.0  0.11650  0.87830  0.21410  1.0000
  C   C20       1.0  0.88350  0.12170  0.71410  1.0000
  H   H17       1.0  0.56410  0.61980  0.20810  1.0000
  H   H18       1.0  0.43590  0.38020  0.70810  1.0000
  H   H19       1.0  0.06410  0.88020  0.20810  1.0000
  H   H20       1.0  0.93590  0.11980  0.70810  1.0000
  C   C21       1.0  0.49320  0.50690  0.46720  1.0000
  C   C22       1.0  0.50680  0.49310  0.96720  1.0000
  C   C23       1.0  0.99320  0.99310  0.46720  1.0000
  C   C24       1.0  0.00680  0.00690  0.96720  1.0000
  H   H21       1.0  0.53200  0.50280  0.54150  1.0000
  H   H22       1.0  0.46800  0.49720  0.04150  1.0000
  H   H23       1.0  0.03200  0.99720  0.54150  1.0000
  H   H24       1.0  0.96800  0.00280  0.04150  1.0000
  C   C25       1.0  0.48810  0.24860  0.02030  1.0000
  C   C26       1.0  0.51190  0.75140  0.52030  1.0000
  C   C27       1.0  0.98810  0.25140  0.02030  1.0000
  C   C28       1.0  0.01190  0.74860  0.52030  1.0000
  H   H25       1.0  0.52750  0.24960  0.94720  1.0000
  H   H26       1.0  0.47250  0.75040  0.44720  1.0000
  H   H27       1.0  0.02750  0.25040  0.94720  1.0000
  H   H28       1.0  0.97250  0.74960  0.44720  1.0000
  C   C29       1.0  0.51050  0.00090  0.97490  1.0000
  C   C30       1.0  0.48950  0.99910  0.47490  1.0000
  C   C31       1.0  0.01050  0.49910  0.97490  1.0000
  C   C32       1.0  0.98950  0.50090  0.47490  1.0000
  H   H29       1.0  0.47130  0.99830  0.04840  1.0000
  H   H30       1.0  0.52870  0.00170  0.54840  1.0000
  H   H31       1.0  0.97130  0.50170  0.04840  1.0000
  H   H32       1.0  0.02870  0.49830  0.54840  1.0000
