data_image0
_chemical_formula_structural       Er8O64C4H4C4H4C4H4C4H4C4H4C4H4C4H4C4H4
_chemical_formula_sum              "Er8 O64 C32 H32"
_cell_length_a       18.1266
_cell_length_b       13.3611
_cell_length_c       8.5791
_cell_angle_alpha    90
_cell_angle_beta     90
_cell_angle_gamma    90

_space_group_name_H-M_alt    "P 1"
_space_group_IT_number       1

loop_
  _space_group_symop_operation_xyz
  'x, y, z'

loop_
  _atom_site_type_symbol
  _atom_site_label
  _atom_site_symmetry_multiplicity
  _atom_site_fract_x
  _atom_site_fract_y
  _atom_site_fract_z
  _atom_site_occupancy
  Er  Er1       1.0  0.60093  0.37468  0.25300  1.0000
  Er  Er2       1.0  0.39907  0.62532  0.75300  1.0000
  Er  Er3       1.0  0.10093  0.12532  0.25300  1.0000
  Er  Er4       1.0  0.89907  0.87468  0.75300  1.0000
  Er  Er5       1.0  0.39368  0.12462  0.75275  1.0000
  Er  Er6       1.0  0.60632  0.87538  0.25275  1.0000
  Er  Er7       1.0  0.89368  0.37538  0.75275  1.0000
  Er  Er8       1.0  0.10632  0.62462  0.25275  1.0000
  O   O1        1.0  0.56310  0.29920  0.47940  1.0000
  O   O2        1.0  0.43690  0.70080  0.97940  1.0000
  O   O3        1.0  0.06310  0.20080  0.47940  1.0000
  O   O4        1.0  0.93690  0.79920  0.97940  1.0000
  O   O5        1.0  0.49470  0.21010  0.64420  1.0000
  O   O6        1.0  0.50530  0.78990  0.14420  1.0000
  O   O7        1.0  0.99470  0.28990  0.64420  1.0000
  O   O8        1.0  0.00530  0.71010  0.14420  1.0000
  O   O9        1.0  0.64840  0.20450  0.24790  1.0000
  O   O10       1.0  0.35160  0.79550  0.74790  1.0000
  O   O11       1.0  0.14840  0.29550  0.24790  1.0000
  O   O12       1.0  0.85160  0.70450  0.74790  1.0000
  O   O13       1.0  0.64810  0.04050  0.29190  1.0000
  O   O14       1.0  0.35190  0.95950  0.79190  1.0000
  O   O15       1.0  0.14810  0.45950  0.29190  1.0000
  O   O16       1.0  0.85190  0.54050  0.79190  1.0000
  O   O17       1.0  0.70010  0.38580  0.42080  1.0000
  O   O18       1.0  0.29990  0.61420  0.92080  1.0000
  O   O19       1.0  0.20010  0.11420  0.42080  1.0000
  O   O20       1.0  0.79990  0.88580  0.92080  1.0000
  O   O21       1.0  0.79210  0.38260  0.56970  1.0000
  O   O22       1.0  0.20790  0.61740  0.06970  1.0000
  O   O23       1.0  0.29210  0.11740  0.56970  1.0000
  O   O24       1.0  0.70790  0.88260  0.06970  1.0000
  O   O25       1.0  0.70370  0.36520  0.08590  1.0000
  O   O26       1.0  0.29630  0.63480  0.58590  1.0000
  O   O27       1.0  0.20370  0.13480  0.08590  1.0000
  O   O28       1.0  0.79630  0.86520  0.58590  1.0000
  O   O29       1.0  0.79410  0.36950  0.92210  1.0000
  O   O30       1.0  0.20590  0.63050  0.42210  1.0000
  O   O31       1.0  0.29410  0.13050  0.92210  1.0000
  O   O32       1.0  0.70590  0.86950  0.42210  1.0000
  O   O33       1.0  0.64780  0.54050  0.24840  1.0000
  O   O34       1.0  0.35220  0.45950  0.74840  1.0000
  O   O35       1.0  0.14780  0.95950  0.24840  1.0000
  O   O36       1.0  0.85220  0.04050  0.74840  1.0000
  O   O37       1.0  0.64800  0.70580  0.20900  1.0000
  O   O38       1.0  0.35200  0.29420  0.70900  1.0000
  O   O39       1.0  0.14800  0.79420  0.20900  1.0000
  O   O40       1.0  0.85200  0.20580  0.70900  1.0000
  O   O41       1.0  0.50300  0.47010  0.33040  1.0000
  O   O42       1.0  0.49700  0.52990  0.83040  1.0000
  O   O43       1.0  0.00300  0.02990  0.33040  1.0000
  O   O44       1.0  0.99700  0.97010  0.83040  1.0000
  O   O45       1.0  0.43570  0.54910  0.50720  1.0000
  O   O46       1.0  0.56430  0.45090  0.00720  1.0000
  O   O47       1.0  0.93570  0.95090  0.50720  1.0000
  O   O48       1.0  0.06430  0.04910  0.00720  1.0000
  O   O49       1.0  0.50450  0.28050  0.14400  1.0000
  O   O50       1.0  0.49550  0.71950  0.64400  1.0000
  O   O51       1.0  0.00450  0.21950  0.14400  1.0000
  O   O52       1.0  0.99550  0.78050  0.64400  1.0000
  O   O53       1.0  0.42700  0.20980  0.97400  1.0000
  O   O54       1.0  0.57300  0.79020  0.47400  1.0000
  O   O55       1.0  0.92700  0.29020  0.97400  1.0000
  O   O56       1.0  0.07300  0.70980  0.47400  1.0000
  O   O57       1.0  0.49710  0.03750  0.84350  1.0000
  O   O58       1.0  0.50290  0.96250  0.34350  1.0000
  O   O59       1.0  0.99710  0.46250  0.84350  1.0000
  O   O60       1.0  0.00290  0.53750  0.34350  1.0000
  O   O61       1.0  0.57060  0.96660  0.01700  1.0000
  O   O62       1.0  0.42940  0.03340  0.51700  1.0000
  O   O63       1.0  0.07060  0.53340  0.01700  1.0000
  O   O64       1.0  0.92940  0.46660  0.51700  1.0000
  C   C1        1.0  0.50860  0.24840  0.52280  1.0000
  C   C2        1.0  0.49140  0.75160  0.02280  1.0000
  C   C3        1.0  0.00860  0.25160  0.52280  1.0000
  C   C4        1.0  0.99140  0.74840  0.02280  1.0000
  H   H1        1.0  0.47280  0.23910  0.44650  1.0000
  H   H2        1.0  0.52720  0.76090  0.94650  1.0000
  H   H3        1.0  0.97280  0.26090  0.44650  1.0000
  H   H4        1.0  0.02720  0.73910  0.94650  1.0000
  C   C5        1.0  0.61720  0.12940  0.26500  1.0000
  C   C6        1.0  0.38280  0.87060  0.76500  1.0000
  C   C7        1.0  0.11720  0.37060  0.26500  1.0000
  C   C8        1.0  0.88280  0.62940  0.76500  1.0000
  H   H5        1.0  0.56600  0.13140  0.25830  1.0000
  H   H6        1.0  0.43400  0.86860  0.75830  1.0000
  H   H7        1.0  0.06600  0.36860  0.25830  1.0000
  H   H8        1.0  0.93400  0.63140  0.75830  1.0000
  C   C9        1.0  0.73560  0.35610  0.52660  1.0000
  C   C10       1.0  0.26440  0.64390  0.02660  1.0000
  C   C11       1.0  0.23560  0.14390  0.52660  1.0000
  C   C12       1.0  0.76440  0.85610  0.02660  1.0000
  H   H9        1.0  0.71470  0.30380  0.58290  1.0000
  H   H10       1.0  0.28530  0.69620  0.08290  1.0000
  H   H11       1.0  0.21470  0.19620  0.58290  1.0000
  H   H12       1.0  0.78530  0.80380  0.08290  1.0000
  C   C13       1.0  0.73240  0.39470  0.96700  1.0000
  C   C14       1.0  0.26760  0.60530  0.46700  1.0000
  C   C15       1.0  0.23240  0.10530  0.96700  1.0000
  C   C16       1.0  0.76760  0.89470  0.46700  1.0000
  H   H13       1.0  0.70600  0.43940  0.90540  1.0000
  H   H14       1.0  0.29400  0.56060  0.40540  1.0000
  H   H15       1.0  0.20600  0.06060  0.90540  1.0000
  H   H16       1.0  0.79400  0.93940  0.40540  1.0000
  C   C17       1.0  0.61710  0.63000  0.21270  1.0000
  C   C18       1.0  0.38290  0.37000  0.71270  1.0000
  C   C19       1.0  0.11710  0.87000  0.21270  1.0000
  C   C20       1.0  0.88290  0.13000  0.71270  1.0000
  H   H17       1.0  0.56700  0.63060  0.18920  1.0000
  H   H18       1.0  0.43300  0.36940  0.68920  1.0000
  H   H19       1.0  0.06700  0.86940  0.18920  1.0000
  H   H20       1.0  0.93300  0.13060  0.68920  1.0000
  C   C21       1.0  0.49030  0.50810  0.46920  1.0000
  C   C22       1.0  0.50970  0.49190  0.96920  1.0000
  C   C23       1.0  0.99030  0.99190  0.46920  1.0000
  C   C24       1.0  0.00970  0.00810  0.96920  1.0000
  H   H21       1.0  0.52740  0.50220  0.54340  1.0000
  H   H22       1.0  0.47260  0.49780  0.04340  1.0000
  H   H23       1.0  0.02740  0.99780  0.54340  1.0000
  H   H24       1.0  0.97260  0.00220  0.04340  1.0000
  C   C25       1.0  0.48940  0.24630  0.02130  1.0000
  C   C26       1.0  0.51060  0.75370  0.52130  1.0000
  C   C27       1.0  0.98940  0.25370  0.02130  1.0000
  C   C28       1.0  0.01060  0.74630  0.52130  1.0000
  H   H25       1.0  0.52750  0.24550  0.94860  1.0000
  H   H26       1.0  0.47250  0.75450  0.44860  1.0000
  H   H27       1.0  0.02750  0.25450  0.94860  1.0000
  H   H28       1.0  0.97250  0.74550  0.44860  1.0000
  C   C29       1.0  0.51270  0.99990  0.97760  1.0000
  C   C30       1.0  0.48730  0.00010  0.47760  1.0000
  C   C31       1.0  0.01270  0.50010  0.97760  1.0000
  C   C32       1.0  0.98730  0.49990  0.47760  1.0000
  H   H29       1.0  0.47500  0.99880  0.05100  1.0000
  H   H30       1.0  0.52500  0.00120  0.55100  1.0000
  H   H31       1.0  0.97500  0.50120  0.05100  1.0000
  H   H32       1.0  0.02500  0.49880  0.55100  1.0000
