data_image0
_chemical_formula_structural       C2H2C2H2C4H2C2H2C4H2C2H2C2H2C2H2N4O2Br8Bi2
_chemical_formula_sum              "C20 H16 N4 O2 Br8 Bi2"
_cell_length_a       8.7494
_cell_length_b       13.0571
_cell_length_c       16.4423
_cell_angle_alpha    76.809
_cell_angle_beta     77.148
_cell_angle_gamma    72.405

_space_group_name_H-M_alt    "P 1"
_space_group_IT_number       1

loop_
  _space_group_symop_operation_xyz
  'x, y, z'

loop_
  _atom_site_type_symbol
  _atom_site_label
  _atom_site_symmetry_multiplicity
  _atom_site_fract_x
  _atom_site_fract_y
  _atom_site_fract_z
  _atom_site_occupancy
  C   C1        1.0  0.22160  0.75450  0.17190  1.0000
  C   C2        1.0  0.77840  0.24550  0.82810  1.0000
  H   H1        1.0  0.12000  0.74140  0.17990  1.0000
  H   H2        1.0  0.88000  0.25860  0.82010  1.0000
  C   C3        1.0  0.31170  0.71920  0.23600  1.0000
  C   C4        1.0  0.68830  0.28080  0.76400  1.0000
  H   H3        1.0  0.27100  0.68130  0.28730  1.0000
  H   H4        1.0  0.72900  0.31870  0.71270  1.0000
  C   C5        1.0  0.46220  0.73890  0.22600  1.0000
  C   C6        1.0  0.53780  0.26110  0.77400  1.0000
  C   C7        1.0  0.51320  0.79870  0.14870  1.0000
  C   C8        1.0  0.48680  0.20130  0.85130  1.0000
  H   H5        1.0  0.61250  0.81530  0.13940  1.0000
  H   H6        1.0  0.38750  0.18470  0.86060  1.0000
  C   C9        1.0  0.41990  0.83350  0.08590  1.0000
  C   C10       1.0  0.58010  0.16650  0.91410  1.0000
  H   H7        1.0  0.45460  0.87530  0.03530  1.0000
  H   H8        1.0  0.54540  0.12470  0.96470  1.0000
  C   C11       1.0  0.56520  0.69480  0.29220  1.0000
  C   C12       1.0  0.43480  0.30520  0.70780  1.0000
  C   C13       1.0  0.54570  0.60600  0.35410  1.0000
  C   C14       1.0  0.45430  0.39400  0.64590  1.0000
  H   H9        1.0  0.45950  0.57650  0.35800  1.0000
  H   H10       1.0  0.54050  0.42350  0.64200  1.0000
  C   C15       1.0  0.65430  0.56140  0.40980  1.0000
  C   C16       1.0  0.34570  0.43860  0.59020  1.0000
  H   H11       1.0  0.64050  0.50050  0.44990  1.0000
  H   H12       1.0  0.35950  0.49950  0.55010  1.0000
  C   C17       1.0  0.79580  0.69030  0.35210  1.0000
  C   C18       1.0  0.20420  0.30970  0.64790  1.0000
  H   H13       1.0  0.87930  0.72090  0.35150  1.0000
  H   H14       1.0  0.12070  0.27910  0.64850  1.0000
  C   C19       1.0  0.69130  0.73730  0.29390  1.0000
  C   C20       1.0  0.30870  0.26270  0.70610  1.0000
  H   H15       1.0  0.70600  0.79890  0.25500  1.0000
  H   H16       1.0  0.29400  0.20110  0.74500  1.0000
  N   N1        1.0  0.28070  0.80810  0.09710  1.0000
  N   N2        1.0  0.71930  0.19190  0.90290  1.0000
  N   N3        1.0  0.77890  0.60100  0.40960  1.0000
  N   N4        1.0  0.22110  0.39900  0.59040  1.0000
  O   O1        1.0  0.19810  0.83190  0.03300  1.0000
  O   O2        1.0  0.80190  0.16810  0.96700  1.0000
  Br  Br1       1.0  0.81002  0.88285  0.96092  1.0000
  Br  Br2       1.0  0.18998  0.11715  0.03908  1.0000
  Br  Br3       1.0  0.15599  0.02715  0.82829  1.0000
  Br  Br4       1.0  0.84401  0.97285  0.17171  1.0000
  Br  Br5       1.0  0.21353  0.44838  0.34888  1.0000
  Br  Br6       1.0  0.78647  0.55162  0.65112  1.0000
  Br  Br7       1.0  0.10260  0.69149  0.47521  1.0000
  Br  Br8       1.0  0.89740  0.30851  0.52479  1.0000
  Bi  Bi1       1.0  0.00000  0.00000  0.00000  1.0000
  Bi  Bi2       1.0  0.00000  0.50000  0.50000  1.0000
