data_image0
_chemical_formula_structural       C8H8C4H8C4H12C8H8C4H8C4H12C8H8C4H8C4H12Li8O24
_chemical_formula_sum              "C48 H84 Li8 O24"
_cell_length_a       4.92534
_cell_length_b       12.0749
_cell_length_c       28.6547
_cell_angle_alpha    90
_cell_angle_beta     91.237
_cell_angle_gamma    90

_space_group_name_H-M_alt    "P 1"
_space_group_IT_number       1

loop_
  _space_group_symop_operation_xyz
  'x, y, z'

loop_
  _atom_site_type_symbol
  _atom_site_label
  _atom_site_symmetry_multiplicity
  _atom_site_fract_x
  _atom_site_fract_y
  _atom_site_fract_z
  _atom_site_occupancy
  C   C1        1.0  0.29800  0.22300  0.82050  1.0000
  C   C2        1.0  0.70200  0.72300  0.67950  1.0000
  C   C3        1.0  0.70200  0.77700  0.17950  1.0000
  C   C4        1.0  0.29800  0.27700  0.32050  1.0000
  C   C5        1.0  0.46300  0.23300  0.86730  1.0000
  C   C6        1.0  0.53700  0.73300  0.63270  1.0000
  C   C7        1.0  0.53700  0.76700  0.13270  1.0000
  C   C8        1.0  0.46300  0.26700  0.36730  1.0000
  H   H1        1.0  0.59500  0.30400  0.86400  1.0000
  H   H2        1.0  0.40500  0.80400  0.63600  1.0000
  H   H3        1.0  0.40500  0.69600  0.13600  1.0000
  H   H4        1.0  0.59500  0.19600  0.36400  1.0000
  H   H5        1.0  0.58500  0.15900  0.87240  1.0000
  H   H6        1.0  0.41500  0.65900  0.62760  1.0000
  H   H7        1.0  0.41500  0.84100  0.12760  1.0000
  H   H8        1.0  0.58500  0.34100  0.37240  1.0000
  C   C9        1.0  0.29300  0.25200  0.90920  1.0000
  C   C10       1.0  0.70700  0.75200  0.59080  1.0000
  C   C11       1.0  0.70700  0.74800  0.09080  1.0000
  C   C12       1.0  0.29300  0.24800  0.40920  1.0000
  H   H9        1.0  0.15800  0.18100  0.91240  1.0000
  H   H10       1.0  0.84200  0.68100  0.58760  1.0000
  H   H11       1.0  0.84200  0.81900  0.08760  1.0000
  H   H12       1.0  0.15800  0.31900  0.41240  1.0000
  H   H13       1.0  0.17400  0.32600  0.90460  1.0000
  H   H14       1.0  0.82600  0.82600  0.59540  1.0000
  H   H15       1.0  0.82600  0.67400  0.09540  1.0000
  H   H16       1.0  0.17400  0.17400  0.40460  1.0000
  C   C13       1.0  0.45400  0.25700  0.95270  1.0000
  C   C14       1.0  0.54600  0.75700  0.54730  1.0000
  C   C15       1.0  0.54600  0.74300  0.04730  1.0000
  C   C16       1.0  0.45400  0.24300  0.45270  1.0000
  H   H17       1.0  0.58900  0.32800  0.95020  1.0000
  H   H18       1.0  0.41100  0.82800  0.54980  1.0000
  H   H19       1.0  0.41100  0.67200  0.04980  1.0000
  H   H20       1.0  0.58900  0.17200  0.45020  1.0000
  H   H21       1.0  0.32100  0.26900  0.98190  1.0000
  H   H22       1.0  0.67900  0.76900  0.51810  1.0000
  H   H23       1.0  0.67900  0.73100  0.01810  1.0000
  H   H24       1.0  0.32100  0.23100  0.48190  1.0000
  H   H25       1.0  0.57300  0.18300  0.95790  1.0000
  H   H26       1.0  0.42700  0.68300  0.54210  1.0000
  H   H27       1.0  0.42700  0.81700  0.04210  1.0000
  H   H28       1.0  0.57300  0.31700  0.45790  1.0000
  C   C17       1.0  0.21300  0.39100  0.66450  1.0000
  C   C18       1.0  0.78700  0.89100  0.83550  1.0000
  C   C19       1.0  0.78700  0.60900  0.33550  1.0000
  C   C20       1.0  0.21300  0.10900  0.16450  1.0000
  C   C21       1.0  0.04600  0.41900  0.62130  1.0000
  C   C22       1.0  0.95400  0.91900  0.87870  1.0000
  C   C23       1.0  0.95400  0.58100  0.37870  1.0000
  C   C24       1.0  0.04600  0.08100  0.12130  1.0000
  H   H29       1.0  0.93900  0.49600  0.62640  1.0000
  H   H30       1.0  0.06100  0.99600  0.87360  1.0000
  H   H31       1.0  0.06100  0.50400  0.37360  1.0000
  H   H32       1.0  0.93900  0.00400  0.12640  1.0000
  H   H33       1.0  0.90200  0.35400  0.61220  1.0000
  H   H34       1.0  0.09800  0.85400  0.88780  1.0000
  H   H35       1.0  0.09800  0.64600  0.38780  1.0000
  H   H36       1.0  0.90200  0.14600  0.11220  1.0000
  C   C25       1.0  0.24500  0.42700  0.58440  1.0000
  C   C26       1.0  0.75500  0.92700  0.91560  1.0000
  C   C27       1.0  0.75500  0.57300  0.41560  1.0000
  C   C28       1.0  0.24500  0.07300  0.08440  1.0000
  H   H37       1.0  0.33100  0.34700  0.57770  1.0000
  H   H38       1.0  0.66900  0.84700  0.92230  1.0000
  H   H39       1.0  0.66900  0.65300  0.42230  1.0000
  H   H40       1.0  0.33100  0.15300  0.07770  1.0000
  H   H41       1.0  0.40300  0.48300  0.59710  1.0000
  H   H42       1.0  0.59700  0.98300  0.90290  1.0000
  H   H43       1.0  0.59700  0.51700  0.40290  1.0000
  H   H44       1.0  0.40300  0.01700  0.09710  1.0000
  C   C29       1.0  0.12900  0.47400  0.53920  1.0000
  C   C30       1.0  0.87100  0.97400  0.96080  1.0000
  C   C31       1.0  0.87100  0.52600  0.46080  1.0000
  C   C32       1.0  0.12900  0.02600  0.03920  1.0000
  H   H45       1.0  0.29000  0.48000  0.51420  1.0000
  H   H46       1.0  0.71000  0.98000  0.98580  1.0000
  H   H47       1.0  0.71000  0.52000  0.48580  1.0000
  H   H48       1.0  0.29000  0.02000  0.01420  1.0000
  H   H49       1.0  0.04300  0.55500  0.54510  1.0000
  H   H50       1.0  0.95700  0.05500  0.95490  1.0000
  H   H51       1.0  0.95700  0.44500  0.45490  1.0000
  H   H52       1.0  0.04300  0.94500  0.04510  1.0000
  H   H53       1.0  0.97200  0.41900  0.52560  1.0000
  H   H54       1.0  0.02800  0.91900  0.97440  1.0000
  H   H55       1.0  0.02800  0.58100  0.47440  1.0000
  H   H56       1.0  0.97200  0.08100  0.02560  1.0000
  C   C33       1.0  0.78600  0.08400  0.68690  1.0000
  C   C34       1.0  0.21400  0.58400  0.81310  1.0000
  C   C35       1.0  0.21400  0.91600  0.31310  1.0000
  C   C36       1.0  0.78600  0.41600  0.18690  1.0000
  C   C37       1.0  0.89700  0.09000  0.64020  1.0000
  C   C38       1.0  0.10300  0.59000  0.85980  1.0000
  C   C39       1.0  0.10300  0.91000  0.35980  1.0000
  C   C40       1.0  0.89700  0.41000  0.14020  1.0000
  H   H57       1.0  0.98000  0.17300  0.63680  1.0000
  H   H58       1.0  0.02000  0.67300  0.86320  1.0000
  H   H59       1.0  0.02000  0.82700  0.36320  1.0000
  H   H60       1.0  0.98000  0.32700  0.13680  1.0000
  H   H61       1.0  0.06000  0.03000  0.63820  1.0000
  H   H62       1.0  0.94000  0.53000  0.86180  1.0000
  H   H63       1.0  0.94000  0.97000  0.36180  1.0000
  H   H64       1.0  0.06000  0.47000  0.13820  1.0000
  C   C41       1.0  0.71300  0.07000  0.59920  1.0000
  C   C42       1.0  0.28700  0.57000  0.90080  1.0000
  C   C43       1.0  0.28700  0.93000  0.40080  1.0000
  C   C44       1.0  0.71300  0.43000  0.09920  1.0000
  H   H65       1.0  0.65500  0.98300  0.59760  1.0000
  H   H66       1.0  0.34500  0.48300  0.90240  1.0000
  H   H67       1.0  0.34500  0.01700  0.40240  1.0000
  H   H68       1.0  0.65500  0.51700  0.09760  1.0000
  H   H69       1.0  0.53200  0.12000  0.60230  1.0000
  H   H70       1.0  0.46800  0.62000  0.89770  1.0000
  H   H71       1.0  0.46800  0.88000  0.39770  1.0000
  H   H72       1.0  0.53200  0.38000  0.10230  1.0000
  C   C45       1.0  0.86000  0.10200  0.55470  1.0000
  C   C46       1.0  0.14000  0.60200  0.94530  1.0000
  C   C47       1.0  0.14000  0.89800  0.44530  1.0000
  C   C48       1.0  0.86000  0.39800  0.05470  1.0000
  H   H73       1.0  0.91800  0.18900  0.55640  1.0000
  H   H74       1.0  0.08200  0.68900  0.94360  1.0000
  H   H75       1.0  0.08200  0.81100  0.44360  1.0000
  H   H76       1.0  0.91800  0.31100  0.05640  1.0000
  H   H77       1.0  0.04100  0.05200  0.55170  1.0000
  H   H78       1.0  0.95900  0.55200  0.94830  1.0000
  H   H79       1.0  0.95900  0.94800  0.44830  1.0000
  H   H80       1.0  0.04100  0.44800  0.05170  1.0000
  H   H81       1.0  0.72800  0.08900  0.52460  1.0000
  H   H82       1.0  0.27200  0.58900  0.97540  1.0000
  H   H83       1.0  0.27200  0.91100  0.47540  1.0000
  H   H84       1.0  0.72800  0.41100  0.02460  1.0000
  Li  Li1       1.0  0.28500  0.19500  0.71460  1.0000
  Li  Li2       1.0  0.71500  0.69500  0.78540  1.0000
  Li  Li3       1.0  0.71500  0.80500  0.28540  1.0000
  Li  Li4       1.0  0.28500  0.30500  0.21460  1.0000
  Li  Li5       1.0  0.22700  0.62200  0.71150  1.0000
  Li  Li6       1.0  0.77300  0.12200  0.78850  1.0000
  Li  Li7       1.0  0.77300  0.37800  0.28850  1.0000
  Li  Li8       1.0  0.22700  0.87800  0.21150  1.0000
  O   O1        1.0  0.41800  0.21600  0.78100  1.0000
  O   O2        1.0  0.58200  0.71600  0.71900  1.0000
  O   O3        1.0  0.58200  0.78400  0.21900  1.0000
  O   O4        1.0  0.41800  0.28400  0.28100  1.0000
  O   O5        1.0  0.03700  0.23000  0.82200  1.0000
  O   O6        1.0  0.96300  0.73000  0.67800  1.0000
  O   O7        1.0  0.96300  0.77000  0.17800  1.0000
  O   O8        1.0  0.03700  0.27000  0.32200  1.0000
  O   O9        1.0  0.33000  0.30400  0.66190  1.0000
  O   O10       1.0  0.67000  0.80400  0.83810  1.0000
  O   O11       1.0  0.67000  0.69600  0.33810  1.0000
  O   O12       1.0  0.33000  0.19600  0.16190  1.0000
  O   O13       1.0  0.31700  0.46400  0.68970  1.0000
  O   O14       1.0  0.68300  0.96400  0.81030  1.0000
  O   O15       1.0  0.68300  0.53600  0.31030  1.0000
  O   O16       1.0  0.31700  0.03600  0.18970  1.0000
  O   O17       1.0  0.54600  0.07600  0.68970  1.0000
  O   O18       1.0  0.45400  0.57600  0.81030  1.0000
  O   O19       1.0  0.45400  0.92400  0.31030  1.0000
  O   O20       1.0  0.54600  0.42400  0.18970  1.0000
  O   O21       1.0  0.92800  0.11300  0.72250  1.0000
  O   O22       1.0  0.07200  0.61300  0.77750  1.0000
  O   O23       1.0  0.07200  0.88700  0.27750  1.0000
  O   O24       1.0  0.92800  0.38700  0.22250  1.0000
