data_image0
_chemical_formula_structural       In16O128F64C128H32C64H32C64H32C96
_chemical_formula_sum              "In16 O128 F64 C352 H96"
_cell_length_a       19.807
_cell_length_b       19.807
_cell_length_c       53.454
_cell_angle_alpha    90
_cell_angle_beta     90
_cell_angle_gamma    90

_space_group_name_H-M_alt    "P 1"
_space_group_IT_number       1

loop_
  _space_group_symop_operation_xyz
  'x, y, z'

loop_
  _atom_site_type_symbol
  _atom_site_label
  _atom_site_symmetry_multiplicity
  _atom_site_fract_x
  _atom_site_fract_y
  _atom_site_fract_z
  _atom_site_occupancy
  In  In1       1.0  0.75692  0.00691  0.12500  1.0000
  In  In2       1.0  0.74308  0.99308  0.62500  1.0000
  In  In3       1.0  0.24308  0.50692  0.37500  1.0000
  In  In4       1.0  0.25692  0.49308  0.87500  1.0000
  In  In5       1.0  0.74308  0.00691  0.87500  1.0000
  In  In6       1.0  0.75692  0.99308  0.37500  1.0000
  In  In7       1.0  0.25692  0.50692  0.62500  1.0000
  In  In8       1.0  0.24308  0.49308  0.12500  1.0000
  In  In9       1.0  0.24308  0.99308  0.87500  1.0000
  In  In10      1.0  0.25692  0.00691  0.37500  1.0000
  In  In11      1.0  0.75692  0.49308  0.62500  1.0000
  In  In12      1.0  0.74308  0.50692  0.12500  1.0000
  In  In13      1.0  0.25692  0.99308  0.12500  1.0000
  In  In14      1.0  0.24308  0.00691  0.62500  1.0000
  In  In15      1.0  0.74308  0.49308  0.37500  1.0000
  In  In16      1.0  0.75692  0.50692  0.87500  1.0000
  O   O1        1.0  0.74680  0.13270  0.11858  1.0000
  O   O2        1.0  0.75320  0.86730  0.61858  1.0000
  O   O3        1.0  0.11730  0.49680  0.36858  1.0000
  O   O4        1.0  0.38270  0.50320  0.86858  1.0000
  O   O5        1.0  0.75320  0.13270  0.88142  1.0000
  O   O6        1.0  0.74680  0.86730  0.38142  1.0000
  O   O7        1.0  0.38270  0.49680  0.63142  1.0000
  O   O8        1.0  0.11730  0.50320  0.13142  1.0000
  O   O9        1.0  0.24680  0.63270  0.61858  1.0000
  O   O10       1.0  0.25320  0.36730  0.11858  1.0000
  O   O11       1.0  0.61730  0.99680  0.86858  1.0000
  O   O12       1.0  0.88270  0.00320  0.36858  1.0000
  O   O13       1.0  0.25320  0.63270  0.38142  1.0000
  O   O14       1.0  0.24680  0.36730  0.88142  1.0000
  O   O15       1.0  0.88270  0.99680  0.13142  1.0000
  O   O16       1.0  0.61730  0.00320  0.63142  1.0000
  O   O17       1.0  0.25320  0.86730  0.88142  1.0000
  O   O18       1.0  0.24680  0.13270  0.38142  1.0000
  O   O19       1.0  0.88270  0.50320  0.63142  1.0000
  O   O20       1.0  0.61730  0.49680  0.13142  1.0000
  O   O21       1.0  0.24680  0.86730  0.11858  1.0000
  O   O22       1.0  0.25320  0.13270  0.61858  1.0000
  O   O23       1.0  0.61730  0.50320  0.36858  1.0000
  O   O24       1.0  0.88270  0.49680  0.86858  1.0000
  O   O25       1.0  0.75320  0.36730  0.38142  1.0000
  O   O26       1.0  0.74680  0.63270  0.88142  1.0000
  O   O27       1.0  0.38270  0.00320  0.13142  1.0000
  O   O28       1.0  0.11730  0.99680  0.63142  1.0000
  O   O29       1.0  0.74680  0.36730  0.61858  1.0000
  O   O30       1.0  0.75320  0.63270  0.11858  1.0000
  O   O31       1.0  0.11730  0.00320  0.86858  1.0000
  O   O32       1.0  0.38270  0.99680  0.36858  1.0000
  O   O33       1.0  0.76273  0.08033  0.15421  1.0000
  O   O34       1.0  0.73727  0.91967  0.65421  1.0000
  O   O35       1.0  0.16967  0.51273  0.40421  1.0000
  O   O36       1.0  0.33033  0.48727  0.90421  1.0000
  O   O37       1.0  0.73727  0.08033  0.84579  1.0000
  O   O38       1.0  0.76273  0.91967  0.34579  1.0000
  O   O39       1.0  0.33033  0.51273  0.59579  1.0000
  O   O40       1.0  0.16967  0.48727  0.09579  1.0000
  O   O41       1.0  0.26273  0.58033  0.65421  1.0000
  O   O42       1.0  0.23727  0.41967  0.15421  1.0000
  O   O43       1.0  0.66967  0.01273  0.90421  1.0000
  O   O44       1.0  0.83033  0.98727  0.40421  1.0000
  O   O45       1.0  0.23727  0.58033  0.34579  1.0000
  O   O46       1.0  0.26273  0.41967  0.84579  1.0000
  O   O47       1.0  0.83033  0.01273  0.09579  1.0000
  O   O48       1.0  0.66967  0.98727  0.59579  1.0000
  O   O49       1.0  0.23727  0.91967  0.84579  1.0000
  O   O50       1.0  0.26273  0.08033  0.34579  1.0000
  O   O51       1.0  0.83033  0.48727  0.59579  1.0000
  O   O52       1.0  0.66967  0.51273  0.09579  1.0000
  O   O53       1.0  0.26273  0.91967  0.15421  1.0000
  O   O54       1.0  0.23727  0.08033  0.65421  1.0000
  O   O55       1.0  0.66967  0.48727  0.40421  1.0000
  O   O56       1.0  0.83033  0.51273  0.90421  1.0000
  O   O57       1.0  0.73727  0.41967  0.34579  1.0000
  O   O58       1.0  0.76273  0.58033  0.84579  1.0000
  O   O59       1.0  0.33033  0.98727  0.09579  1.0000
  O   O60       1.0  0.16967  0.01273  0.59579  1.0000
  O   O61       1.0  0.76273  0.41967  0.65421  1.0000
  O   O62       1.0  0.73727  0.58033  0.15421  1.0000
  O   O63       1.0  0.16967  0.98727  0.90421  1.0000
  O   O64       1.0  0.33033  0.01273  0.40421  1.0000
  O   O65       1.0  0.74478  0.39166  0.12138  1.0000
  O   O66       1.0  0.75522  0.60834  0.62138  1.0000
  O   O67       1.0  0.85834  0.49478  0.37138  1.0000
  O   O68       1.0  0.64166  0.50522  0.87138  1.0000
  O   O69       1.0  0.75522  0.39166  0.87862  1.0000
  O   O70       1.0  0.74478  0.60834  0.37862  1.0000
  O   O71       1.0  0.64166  0.49478  0.62862  1.0000
  O   O72       1.0  0.85834  0.50522  0.12862  1.0000
  O   O73       1.0  0.24478  0.89166  0.62138  1.0000
  O   O74       1.0  0.25522  0.10834  0.12138  1.0000
  O   O75       1.0  0.35834  0.99478  0.87138  1.0000
  O   O76       1.0  0.14166  0.00522  0.37138  1.0000
  O   O77       1.0  0.25522  0.89166  0.37862  1.0000
  O   O78       1.0  0.24478  0.10834  0.87862  1.0000
  O   O79       1.0  0.14166  0.99478  0.12862  1.0000
  O   O80       1.0  0.35834  0.00522  0.62862  1.0000
  O   O81       1.0  0.25522  0.60834  0.87862  1.0000
  O   O82       1.0  0.24478  0.39166  0.37862  1.0000
  O   O83       1.0  0.14166  0.50522  0.62862  1.0000
  O   O84       1.0  0.35834  0.49478  0.12862  1.0000
  O   O85       1.0  0.24478  0.60834  0.12138  1.0000
  O   O86       1.0  0.25522  0.39166  0.62138  1.0000
  O   O87       1.0  0.35834  0.50522  0.37138  1.0000
  O   O88       1.0  0.14166  0.49478  0.87138  1.0000
  O   O89       1.0  0.75522  0.10834  0.37862  1.0000
  O   O90       1.0  0.74478  0.89166  0.87862  1.0000
  O   O91       1.0  0.64166  0.00522  0.12862  1.0000
  O   O92       1.0  0.85834  0.99478  0.62862  1.0000
  O   O93       1.0  0.74478  0.10834  0.62138  1.0000
  O   O94       1.0  0.75522  0.89166  0.12138  1.0000
  O   O95       1.0  0.85834  0.00522  0.87138  1.0000
  O   O96       1.0  0.64166  0.99478  0.37138  1.0000
  O   O97       1.0  0.74086  0.43837  0.15830  1.0000
  O   O98       1.0  0.75914  0.56163  0.65830  1.0000
  O   O99       1.0  0.81163  0.49086  0.40830  1.0000
  O   O100      1.0  0.68837  0.50914  0.90830  1.0000
  O   O101      1.0  0.75914  0.43837  0.84170  1.0000
  O   O102      1.0  0.74086  0.56163  0.34170  1.0000
  O   O103      1.0  0.68837  0.49086  0.59170  1.0000
  O   O104      1.0  0.81163  0.50914  0.09170  1.0000
  O   O105      1.0  0.24086  0.93837  0.65830  1.0000
  O   O106      1.0  0.25914  0.06163  0.15830  1.0000
  O   O107      1.0  0.31163  0.99086  0.90830  1.0000
  O   O108      1.0  0.18837  0.00914  0.40830  1.0000
  O   O109      1.0  0.25914  0.93837  0.34170  1.0000
  O   O110      1.0  0.24086  0.06163  0.84170  1.0000
  O   O111      1.0  0.18837  0.99086  0.09170  1.0000
  O   O112      1.0  0.31163  0.00914  0.59170  1.0000
  O   O113      1.0  0.25914  0.56163  0.84170  1.0000
  O   O114      1.0  0.24086  0.43837  0.34170  1.0000
  O   O115      1.0  0.18837  0.50914  0.59170  1.0000
  O   O116      1.0  0.31163  0.49086  0.09170  1.0000
  O   O117      1.0  0.24086  0.56163  0.15830  1.0000
  O   O118      1.0  0.25914  0.43837  0.65830  1.0000
  O   O119      1.0  0.31163  0.50914  0.40830  1.0000
  O   O120      1.0  0.18837  0.49086  0.90830  1.0000
  O   O121      1.0  0.75914  0.06163  0.34170  1.0000
  O   O122      1.0  0.74086  0.93837  0.84170  1.0000
  O   O123      1.0  0.68837  0.00914  0.09170  1.0000
  O   O124      1.0  0.81163  0.99086  0.59170  1.0000
  O   O125      1.0  0.74086  0.06163  0.65830  1.0000
  O   O126      1.0  0.75914  0.93837  0.15830  1.0000
  O   O127      1.0  0.81163  0.00914  0.90830  1.0000
  O   O128      1.0  0.68837  0.99086  0.40830  1.0000
  F   F1        1.0  0.65510  0.32550  0.22624  1.0000
  F   F2        1.0  0.84490  0.67450  0.72624  1.0000
  F   F3        1.0  0.92450  0.40510  0.47624  1.0000
  F   F4        1.0  0.57550  0.59490  0.97624  1.0000
  F   F5        1.0  0.84490  0.32550  0.77376  1.0000
  F   F6        1.0  0.65510  0.67450  0.27376  1.0000
  F   F7        1.0  0.57550  0.40510  0.52376  1.0000
  F   F8        1.0  0.92450  0.59490  0.02376  1.0000
  F   F9        1.0  0.15510  0.82550  0.72624  1.0000
  F   F10       1.0  0.34490  0.17450  0.22624  1.0000
  F   F11       1.0  0.42450  0.90510  0.97624  1.0000
  F   F12       1.0  0.07550  0.09490  0.47624  1.0000
  F   F13       1.0  0.34490  0.82550  0.27376  1.0000
  F   F14       1.0  0.15510  0.17450  0.77376  1.0000
  F   F15       1.0  0.07550  0.90510  0.02376  1.0000
  F   F16       1.0  0.42450  0.09490  0.52376  1.0000
  F   F17       1.0  0.34490  0.67450  0.77376  1.0000
  F   F18       1.0  0.15510  0.32550  0.27376  1.0000
  F   F19       1.0  0.07550  0.59490  0.52376  1.0000
  F   F20       1.0  0.42450  0.40510  0.02376  1.0000
  F   F21       1.0  0.15510  0.67450  0.22624  1.0000
  F   F22       1.0  0.34490  0.32550  0.72624  1.0000
  F   F23       1.0  0.42450  0.59490  0.47624  1.0000
  F   F24       1.0  0.07550  0.40510  0.97624  1.0000
  F   F25       1.0  0.84490  0.17450  0.27376  1.0000
  F   F26       1.0  0.65510  0.82550  0.77376  1.0000
  F   F27       1.0  0.57550  0.09490  0.02376  1.0000
  F   F28       1.0  0.92450  0.90510  0.52376  1.0000
  F   F29       1.0  0.65510  0.17450  0.72624  1.0000
  F   F30       1.0  0.84490  0.82550  0.22624  1.0000
  F   F31       1.0  0.92450  0.09490  0.97624  1.0000
  F   F32       1.0  0.57550  0.90510  0.47624  1.0000
  F   F33       1.0  0.84490  0.18050  0.22430  1.0000
  F   F34       1.0  0.65510  0.81950  0.72430  1.0000
  F   F35       1.0  0.06950  0.59490  0.47430  1.0000
  F   F36       1.0  0.43050  0.40510  0.97430  1.0000
  F   F37       1.0  0.65510  0.18050  0.77570  1.0000
  F   F38       1.0  0.84490  0.81950  0.27570  1.0000
  F   F39       1.0  0.43050  0.59490  0.52570  1.0000
  F   F40       1.0  0.06950  0.40510  0.02570  1.0000
  F   F41       1.0  0.34490  0.68050  0.72430  1.0000
  F   F42       1.0  0.15510  0.31950  0.22430  1.0000
  F   F43       1.0  0.56950  0.09490  0.97430  1.0000
  F   F44       1.0  0.93050  0.90510  0.47430  1.0000
  F   F45       1.0  0.15510  0.68050  0.27570  1.0000
  F   F46       1.0  0.34490  0.31950  0.77570  1.0000
  F   F47       1.0  0.93050  0.09490  0.02570  1.0000
  F   F48       1.0  0.56950  0.90510  0.52570  1.0000
  F   F49       1.0  0.15510  0.81950  0.77570  1.0000
  F   F50       1.0  0.34490  0.18050  0.27570  1.0000
  F   F51       1.0  0.93050  0.40510  0.52570  1.0000
  F   F52       1.0  0.56950  0.59490  0.02570  1.0000
  F   F53       1.0  0.34490  0.81950  0.22430  1.0000
  F   F54       1.0  0.15510  0.18050  0.72430  1.0000
  F   F55       1.0  0.56950  0.40510  0.47430  1.0000
  F   F56       1.0  0.93050  0.59490  0.97430  1.0000
  F   F57       1.0  0.65510  0.31950  0.27570  1.0000
  F   F58       1.0  0.84490  0.68050  0.77570  1.0000
  F   F59       1.0  0.43050  0.90510  0.02570  1.0000
  F   F60       1.0  0.06950  0.09490  0.52570  1.0000
  F   F61       1.0  0.84490  0.31950  0.72430  1.0000
  F   F62       1.0  0.65510  0.68050  0.22430  1.0000
  F   F63       1.0  0.06950  0.90510  0.97430  1.0000
  F   F64       1.0  0.43050  0.09490  0.47430  1.0000
  C   C1        1.0  0.75430  0.13380  0.14176  1.0000
  C   C2        1.0  0.74570  0.86620  0.64176  1.0000
  C   C3        1.0  0.11620  0.50430  0.39176  1.0000
  C   C4        1.0  0.38380  0.49570  0.89176  1.0000
  C   C5        1.0  0.74570  0.13380  0.85824  1.0000
  C   C6        1.0  0.75430  0.86620  0.35824  1.0000
  C   C7        1.0  0.38380  0.50430  0.60824  1.0000
  C   C8        1.0  0.11620  0.49570  0.10824  1.0000
  C   C9        1.0  0.25430  0.63380  0.64176  1.0000
  C   C10       1.0  0.24570  0.36620  0.14176  1.0000
  C   C11       1.0  0.61620  0.00430  0.89176  1.0000
  C   C12       1.0  0.88380  0.99570  0.39176  1.0000
  C   C13       1.0  0.24570  0.63380  0.35824  1.0000
  C   C14       1.0  0.25430  0.36620  0.85824  1.0000
  C   C15       1.0  0.88380  0.00430  0.10824  1.0000
  C   C16       1.0  0.61620  0.99570  0.60824  1.0000
  C   C17       1.0  0.24570  0.86620  0.85824  1.0000
  C   C18       1.0  0.25430  0.13380  0.35824  1.0000
  C   C19       1.0  0.88380  0.49570  0.60824  1.0000
  C   C20       1.0  0.61620  0.50430  0.10824  1.0000
  C   C21       1.0  0.25430  0.86620  0.14176  1.0000
  C   C22       1.0  0.24570  0.13380  0.64176  1.0000
  C   C23       1.0  0.61620  0.49570  0.39176  1.0000
  C   C24       1.0  0.88380  0.50430  0.89176  1.0000
  C   C25       1.0  0.74570  0.36620  0.35824  1.0000
  C   C26       1.0  0.75430  0.63380  0.85824  1.0000
  C   C27       1.0  0.38380  0.99570  0.10824  1.0000
  C   C28       1.0  0.11620  0.00430  0.60824  1.0000
  C   C29       1.0  0.75430  0.36620  0.64176  1.0000
  C   C30       1.0  0.74570  0.63380  0.14176  1.0000
  C   C31       1.0  0.11620  0.99570  0.89176  1.0000
  C   C32       1.0  0.38380  0.00430  0.39176  1.0000
  C   C33       1.0  0.74390  0.38660  0.14486  1.0000
  C   C34       1.0  0.75610  0.61340  0.64486  1.0000
  C   C35       1.0  0.86340  0.49390  0.39486  1.0000
  C   C36       1.0  0.63660  0.50610  0.89486  1.0000
  C   C37       1.0  0.75610  0.38660  0.85514  1.0000
  C   C38       1.0  0.74390  0.61340  0.35514  1.0000
  C   C39       1.0  0.63660  0.49390  0.60514  1.0000
  C   C40       1.0  0.86340  0.50610  0.10514  1.0000
  C   C41       1.0  0.24390  0.88660  0.64486  1.0000
  C   C42       1.0  0.25610  0.11340  0.14486  1.0000
  C   C43       1.0  0.36340  0.99390  0.89486  1.0000
  C   C44       1.0  0.13660  0.00610  0.39486  1.0000
  C   C45       1.0  0.25610  0.88660  0.35514  1.0000
  C   C46       1.0  0.24390  0.11340  0.85514  1.0000
  C   C47       1.0  0.13660  0.99390  0.10514  1.0000
  C   C48       1.0  0.36340  0.00610  0.60514  1.0000
  C   C49       1.0  0.25610  0.61340  0.85514  1.0000
  C   C50       1.0  0.24390  0.38660  0.35514  1.0000
  C   C51       1.0  0.13660  0.50610  0.60514  1.0000
  C   C52       1.0  0.36340  0.49390  0.10514  1.0000
  C   C53       1.0  0.24390  0.61340  0.14486  1.0000
  C   C54       1.0  0.25610  0.38660  0.64486  1.0000
  C   C55       1.0  0.36340  0.50610  0.39486  1.0000
  C   C56       1.0  0.13660  0.49390  0.89486  1.0000
  C   C57       1.0  0.75610  0.11340  0.35514  1.0000
  C   C58       1.0  0.74390  0.88660  0.85514  1.0000
  C   C59       1.0  0.63660  0.00610  0.10514  1.0000
  C   C60       1.0  0.86340  0.99390  0.60514  1.0000
  C   C61       1.0  0.74390  0.11340  0.64486  1.0000
  C   C62       1.0  0.75610  0.88660  0.14486  1.0000
  C   C63       1.0  0.86340  0.00610  0.89486  1.0000
  C   C64       1.0  0.63660  0.99390  0.39486  1.0000
  C   C65       1.0  0.74550  0.31910  0.15713  1.0000
  C   C66       1.0  0.75450  0.68090  0.65713  1.0000
  C   C67       1.0  0.93090  0.49550  0.40713  1.0000
  C   C68       1.0  0.56910  0.50450  0.90713  1.0000
  C   C69       1.0  0.75450  0.31910  0.84287  1.0000
  C   C70       1.0  0.74550  0.68090  0.34287  1.0000
  C   C71       1.0  0.56910  0.49550  0.59287  1.0000
  C   C72       1.0  0.93090  0.50450  0.09287  1.0000
  C   C73       1.0  0.24550  0.81910  0.65713  1.0000
  C   C74       1.0  0.25450  0.18090  0.15713  1.0000
  C   C75       1.0  0.43090  0.99550  0.90713  1.0000
  C   C76       1.0  0.06910  0.00450  0.40713  1.0000
  C   C77       1.0  0.25450  0.81910  0.34287  1.0000
  C   C78       1.0  0.24550  0.18090  0.84287  1.0000
  C   C79       1.0  0.06910  0.99550  0.09287  1.0000
  C   C80       1.0  0.43090  0.00450  0.59287  1.0000
  C   C81       1.0  0.25450  0.68090  0.84287  1.0000
  C   C82       1.0  0.24550  0.31910  0.34287  1.0000
  C   C83       1.0  0.06910  0.50450  0.59287  1.0000
  C   C84       1.0  0.43090  0.49550  0.09287  1.0000
  C   C85       1.0  0.24550  0.68090  0.15713  1.0000
  C   C86       1.0  0.25450  0.31910  0.65713  1.0000
  C   C87       1.0  0.43090  0.50450  0.40713  1.0000
  C   C88       1.0  0.06910  0.49550  0.90713  1.0000
  C   C89       1.0  0.75450  0.18090  0.34287  1.0000
  C   C90       1.0  0.74550  0.81910  0.84287  1.0000
  C   C91       1.0  0.56910  0.00450  0.09287  1.0000
  C   C92       1.0  0.93090  0.99550  0.59287  1.0000
  C   C93       1.0  0.74550  0.18090  0.65713  1.0000
  C   C94       1.0  0.75450  0.81910  0.15713  1.0000
  C   C95       1.0  0.93090  0.00450  0.90713  1.0000
  C   C96       1.0  0.56910  0.99550  0.40713  1.0000
  C   C97       1.0  0.74680  0.25950  0.14343  1.0000
  C   C98       1.0  0.75320  0.74050  0.64343  1.0000
  C   C99       1.0  0.99050  0.49680  0.39343  1.0000
  C   C100      1.0  0.50950  0.50320  0.89343  1.0000
  C   C101      1.0  0.75320  0.25950  0.85657  1.0000
  C   C102      1.0  0.74680  0.74050  0.35657  1.0000
  C   C103      1.0  0.50950  0.49680  0.60657  1.0000
  C   C104      1.0  0.99050  0.50320  0.10657  1.0000
  C   C105      1.0  0.24680  0.75950  0.64343  1.0000
  C   C106      1.0  0.25320  0.24050  0.14343  1.0000
  C   C107      1.0  0.49050  0.99680  0.89343  1.0000
  C   C108      1.0  0.00950  0.00320  0.39343  1.0000
  C   C109      1.0  0.25320  0.75950  0.35657  1.0000
  C   C110      1.0  0.24680  0.24050  0.85657  1.0000
  C   C111      1.0  0.00950  0.99680  0.10657  1.0000
  C   C112      1.0  0.49050  0.00320  0.60657  1.0000
  C   C113      1.0  0.25320  0.74050  0.85657  1.0000
  C   C114      1.0  0.24680  0.25950  0.35657  1.0000
  C   C115      1.0  0.00950  0.50320  0.60657  1.0000
  C   C116      1.0  0.49050  0.49680  0.10657  1.0000
  C   C117      1.0  0.24680  0.74050  0.14343  1.0000
  C   C118      1.0  0.25320  0.25950  0.64343  1.0000
  C   C119      1.0  0.49050  0.50320  0.39343  1.0000
  C   C120      1.0  0.00950  0.49680  0.89343  1.0000
  C   C121      1.0  0.75320  0.24050  0.35657  1.0000
  C   C122      1.0  0.74680  0.75950  0.85657  1.0000
  C   C123      1.0  0.50950  0.00320  0.10657  1.0000
  C   C124      1.0  0.99050  0.99680  0.60657  1.0000
  C   C125      1.0  0.74680  0.24050  0.64343  1.0000
  C   C126      1.0  0.75320  0.75950  0.14343  1.0000
  C   C127      1.0  0.99050  0.00320  0.89343  1.0000
  C   C128      1.0  0.50950  0.99680  0.39343  1.0000
  H   H1        1.0  0.74450  0.26080  0.12570  1.0000
  H   H2        1.0  0.75550  0.73920  0.62570  1.0000
  H   H3        1.0  0.98920  0.49450  0.37570  1.0000
  H   H4        1.0  0.51080  0.50550  0.87570  1.0000
  H   H5        1.0  0.75550  0.26080  0.87430  1.0000
  H   H6        1.0  0.74450  0.73920  0.37430  1.0000
  H   H7        1.0  0.51080  0.49450  0.62430  1.0000
  H   H8        1.0  0.98920  0.50550  0.12430  1.0000
  H   H9        1.0  0.24450  0.76080  0.62570  1.0000
  H   H10       1.0  0.25550  0.23920  0.12570  1.0000
  H   H11       1.0  0.48920  0.99450  0.87570  1.0000
  H   H12       1.0  0.01080  0.00550  0.37570  1.0000
  H   H13       1.0  0.25550  0.76080  0.37430  1.0000
  H   H14       1.0  0.24450  0.23920  0.87430  1.0000
  H   H15       1.0  0.01080  0.99450  0.12430  1.0000
  H   H16       1.0  0.48920  0.00550  0.62430  1.0000
  H   H17       1.0  0.25550  0.73920  0.87430  1.0000
  H   H18       1.0  0.24450  0.26080  0.37430  1.0000
  H   H19       1.0  0.01080  0.50550  0.62430  1.0000
  H   H20       1.0  0.48920  0.49450  0.12430  1.0000
  H   H21       1.0  0.24450  0.73920  0.12570  1.0000
  H   H22       1.0  0.25550  0.26080  0.62570  1.0000
  H   H23       1.0  0.48920  0.50550  0.37570  1.0000
  H   H24       1.0  0.01080  0.49450  0.87570  1.0000
  H   H25       1.0  0.75550  0.23920  0.37430  1.0000
  H   H26       1.0  0.74450  0.76080  0.87430  1.0000
  H   H27       1.0  0.51080  0.00550  0.12430  1.0000
  H   H28       1.0  0.98920  0.99450  0.62430  1.0000
  H   H29       1.0  0.74450  0.23920  0.62570  1.0000
  H   H30       1.0  0.75550  0.76080  0.12570  1.0000
  H   H31       1.0  0.98920  0.00550  0.87570  1.0000
  H   H32       1.0  0.51080  0.99450  0.37570  1.0000
  C   C129      1.0  0.75160  0.19780  0.15575  1.0000
  C   C130      1.0  0.74840  0.80220  0.65575  1.0000
  C   C131      1.0  0.05220  0.50160  0.40575  1.0000
  C   C132      1.0  0.44780  0.49840  0.90575  1.0000
  C   C133      1.0  0.74840  0.19780  0.84425  1.0000
  C   C134      1.0  0.75160  0.80220  0.34425  1.0000
  C   C135      1.0  0.44780  0.50160  0.59425  1.0000
  C   C136      1.0  0.05220  0.49840  0.09425  1.0000
  C   C137      1.0  0.25160  0.69780  0.65575  1.0000
  C   C138      1.0  0.24840  0.30220  0.15575  1.0000
  C   C139      1.0  0.55220  0.00160  0.90575  1.0000
  C   C140      1.0  0.94780  0.99840  0.40575  1.0000
  C   C141      1.0  0.24840  0.69780  0.34425  1.0000
  C   C142      1.0  0.25160  0.30220  0.84425  1.0000
  C   C143      1.0  0.94780  0.00160  0.09425  1.0000
  C   C144      1.0  0.55220  0.99840  0.59425  1.0000
  C   C145      1.0  0.24840  0.80220  0.84425  1.0000
  C   C146      1.0  0.25160  0.19780  0.34425  1.0000
  C   C147      1.0  0.94780  0.49840  0.59425  1.0000
  C   C148      1.0  0.55220  0.50160  0.09425  1.0000
  C   C149      1.0  0.25160  0.80220  0.15575  1.0000
  C   C150      1.0  0.24840  0.19780  0.65575  1.0000
  C   C151      1.0  0.55220  0.49840  0.40575  1.0000
  C   C152      1.0  0.94780  0.50160  0.90575  1.0000
  C   C153      1.0  0.74840  0.30220  0.34425  1.0000
  C   C154      1.0  0.75160  0.69780  0.84425  1.0000
  C   C155      1.0  0.44780  0.99840  0.09425  1.0000
  C   C156      1.0  0.05220  0.00160  0.59425  1.0000
  C   C157      1.0  0.75160  0.30220  0.65575  1.0000
  C   C158      1.0  0.74840  0.69780  0.15575  1.0000
  C   C159      1.0  0.05220  0.99840  0.90575  1.0000
  C   C160      1.0  0.44780  0.00160  0.40575  1.0000
  C   C161      1.0  0.75430  0.19640  0.18147  1.0000
  C   C162      1.0  0.74570  0.80360  0.68147  1.0000
  C   C163      1.0  0.05360  0.50430  0.43147  1.0000
  C   C164      1.0  0.44640  0.49570  0.93147  1.0000
  C   C165      1.0  0.74570  0.19640  0.81853  1.0000
  C   C166      1.0  0.75430  0.80360  0.31853  1.0000
  C   C167      1.0  0.44640  0.50430  0.56853  1.0000
  C   C168      1.0  0.05360  0.49570  0.06853  1.0000
  C   C169      1.0  0.25430  0.69640  0.68147  1.0000
  C   C170      1.0  0.24570  0.30360  0.18147  1.0000
  C   C171      1.0  0.55360  0.00430  0.93147  1.0000
  C   C172      1.0  0.94640  0.99570  0.43147  1.0000
  C   C173      1.0  0.24570  0.69640  0.31853  1.0000
  C   C174      1.0  0.25430  0.30360  0.81853  1.0000
  C   C175      1.0  0.94640  0.00430  0.06853  1.0000
  C   C176      1.0  0.55360  0.99570  0.56853  1.0000
  C   C177      1.0  0.24570  0.80360  0.81853  1.0000
  C   C178      1.0  0.25430  0.19640  0.31853  1.0000
  C   C179      1.0  0.94640  0.49570  0.56853  1.0000
  C   C180      1.0  0.55360  0.50430  0.06853  1.0000
  C   C181      1.0  0.25430  0.80360  0.18147  1.0000
  C   C182      1.0  0.24570  0.19640  0.68147  1.0000
  C   C183      1.0  0.55360  0.49570  0.43147  1.0000
  C   C184      1.0  0.94640  0.50430  0.93147  1.0000
  C   C185      1.0  0.74570  0.30360  0.31853  1.0000
  C   C186      1.0  0.75430  0.69640  0.81853  1.0000
  C   C187      1.0  0.44640  0.99570  0.06853  1.0000
  C   C188      1.0  0.05360  0.00430  0.56853  1.0000
  C   C189      1.0  0.75430  0.30360  0.68147  1.0000
  C   C190      1.0  0.74570  0.69640  0.18147  1.0000
  C   C191      1.0  0.05360  0.99570  0.93147  1.0000
  C   C192      1.0  0.44640  0.00430  0.43147  1.0000
  H   H33       1.0  0.75790  0.15410  0.18980  1.0000
  H   H34       1.0  0.74210  0.84590  0.68980  1.0000
  H   H35       1.0  0.09590  0.50790  0.43980  1.0000
  H   H36       1.0  0.40410  0.49210  0.93980  1.0000
  H   H37       1.0  0.74210  0.15410  0.81020  1.0000
  H   H38       1.0  0.75790  0.84590  0.31020  1.0000
  H   H39       1.0  0.40410  0.50790  0.56020  1.0000
  H   H40       1.0  0.09590  0.49210  0.06020  1.0000
  H   H41       1.0  0.25790  0.65410  0.68980  1.0000
  H   H42       1.0  0.24210  0.34590  0.18980  1.0000
  H   H43       1.0  0.59590  0.00790  0.93980  1.0000
  H   H44       1.0  0.90410  0.99210  0.43980  1.0000
  H   H45       1.0  0.24210  0.65410  0.31020  1.0000
  H   H46       1.0  0.25790  0.34590  0.81020  1.0000
  H   H47       1.0  0.90410  0.00790  0.06020  1.0000
  H   H48       1.0  0.59590  0.99210  0.56020  1.0000
  H   H49       1.0  0.24210  0.84590  0.81020  1.0000
  H   H50       1.0  0.25790  0.15410  0.31020  1.0000
  H   H51       1.0  0.90410  0.49210  0.56020  1.0000
  H   H52       1.0  0.59590  0.50790  0.06020  1.0000
  H   H53       1.0  0.25790  0.84590  0.18980  1.0000
  H   H54       1.0  0.24210  0.15410  0.68980  1.0000
  H   H55       1.0  0.59590  0.49210  0.43980  1.0000
  H   H56       1.0  0.90410  0.50790  0.93980  1.0000
  H   H57       1.0  0.74210  0.34590  0.31020  1.0000
  H   H58       1.0  0.75790  0.65410  0.81020  1.0000
  H   H59       1.0  0.40410  0.99210  0.06020  1.0000
  H   H60       1.0  0.09590  0.00790  0.56020  1.0000
  H   H61       1.0  0.75790  0.34590  0.68980  1.0000
  H   H62       1.0  0.74210  0.65410  0.18980  1.0000
  H   H63       1.0  0.09590  0.99210  0.93980  1.0000
  H   H64       1.0  0.40410  0.00790  0.43980  1.0000
  C   C193      1.0  0.75170  0.25540  0.19564  1.0000
  C   C194      1.0  0.74830  0.74460  0.69564  1.0000
  C   C195      1.0  0.99460  0.50170  0.44564  1.0000
  C   C196      1.0  0.50540  0.49830  0.94564  1.0000
  C   C197      1.0  0.74830  0.25540  0.80436  1.0000
  C   C198      1.0  0.75170  0.74460  0.30436  1.0000
  C   C199      1.0  0.50540  0.50170  0.55436  1.0000
  C   C200      1.0  0.99460  0.49830  0.05436  1.0000
  C   C201      1.0  0.25170  0.75540  0.69564  1.0000
  C   C202      1.0  0.24830  0.24460  0.19564  1.0000
  C   C203      1.0  0.49460  0.00170  0.94564  1.0000
  C   C204      1.0  0.00540  0.99830  0.44564  1.0000
  C   C205      1.0  0.24830  0.75540  0.30436  1.0000
  C   C206      1.0  0.25170  0.24460  0.80436  1.0000
  C   C207      1.0  0.00540  0.00170  0.05436  1.0000
  C   C208      1.0  0.49460  0.99830  0.55436  1.0000
  C   C209      1.0  0.24830  0.74460  0.80436  1.0000
  C   C210      1.0  0.25170  0.25540  0.30436  1.0000
  C   C211      1.0  0.00540  0.49830  0.55436  1.0000
  C   C212      1.0  0.49460  0.50170  0.05436  1.0000
  C   C213      1.0  0.25170  0.74460  0.19564  1.0000
  C   C214      1.0  0.24830  0.25540  0.69564  1.0000
  C   C215      1.0  0.49460  0.49830  0.44564  1.0000
  C   C216      1.0  0.00540  0.50170  0.94564  1.0000
  C   C217      1.0  0.74830  0.24460  0.30436  1.0000
  C   C218      1.0  0.75170  0.75540  0.80436  1.0000
  C   C219      1.0  0.50540  0.99830  0.05436  1.0000
  C   C220      1.0  0.99460  0.00170  0.55436  1.0000
  C   C221      1.0  0.75170  0.24460  0.69564  1.0000
  C   C222      1.0  0.74830  0.75540  0.19564  1.0000
  C   C223      1.0  0.99460  0.99830  0.94564  1.0000
  C   C224      1.0  0.50540  0.00170  0.44564  1.0000
  C   C225      1.0  0.74790  0.31720  0.18317  1.0000
  C   C226      1.0  0.75210  0.68280  0.68317  1.0000
  C   C227      1.0  0.93280  0.49790  0.43317  1.0000
  C   C228      1.0  0.56720  0.50210  0.93317  1.0000
  C   C229      1.0  0.75210  0.31720  0.81683  1.0000
  C   C230      1.0  0.74790  0.68280  0.31683  1.0000
  C   C231      1.0  0.56720  0.49790  0.56683  1.0000
  C   C232      1.0  0.93280  0.50210  0.06683  1.0000
  C   C233      1.0  0.24790  0.81720  0.68317  1.0000
  C   C234      1.0  0.25210  0.18280  0.18317  1.0000
  C   C235      1.0  0.43280  0.99790  0.93317  1.0000
  C   C236      1.0  0.06720  0.00210  0.43317  1.0000
  C   C237      1.0  0.25210  0.81720  0.31683  1.0000
  C   C238      1.0  0.24790  0.18280  0.81683  1.0000
  C   C239      1.0  0.06720  0.99790  0.06683  1.0000
  C   C240      1.0  0.43280  0.00210  0.56683  1.0000
  C   C241      1.0  0.25210  0.68280  0.81683  1.0000
  C   C242      1.0  0.24790  0.31720  0.31683  1.0000
  C   C243      1.0  0.06720  0.50210  0.56683  1.0000
  C   C244      1.0  0.43280  0.49790  0.06683  1.0000
  C   C245      1.0  0.24790  0.68280  0.18317  1.0000
  C   C246      1.0  0.25210  0.31720  0.68317  1.0000
  C   C247      1.0  0.43280  0.50210  0.43317  1.0000
  C   C248      1.0  0.06720  0.49790  0.93317  1.0000
  C   C249      1.0  0.75210  0.18280  0.31683  1.0000
  C   C250      1.0  0.74790  0.81720  0.81683  1.0000
  C   C251      1.0  0.56720  0.00210  0.06683  1.0000
  C   C252      1.0  0.93280  0.99790  0.56683  1.0000
  C   C253      1.0  0.74790  0.18280  0.68317  1.0000
  C   C254      1.0  0.75210  0.81720  0.18317  1.0000
  C   C255      1.0  0.93280  0.00210  0.93317  1.0000
  C   C256      1.0  0.56720  0.99790  0.43317  1.0000
  H   H65       1.0  0.74700  0.35800  0.19250  1.0000
  H   H66       1.0  0.75300  0.64200  0.69250  1.0000
  H   H67       1.0  0.89200  0.49700  0.44250  1.0000
  H   H68       1.0  0.60800  0.50300  0.94250  1.0000
  H   H69       1.0  0.75300  0.35800  0.80750  1.0000
  H   H70       1.0  0.74700  0.64200  0.30750  1.0000
  H   H71       1.0  0.60800  0.49700  0.55750  1.0000
  H   H72       1.0  0.89200  0.50300  0.05750  1.0000
  H   H73       1.0  0.24700  0.85800  0.69250  1.0000
  H   H74       1.0  0.25300  0.14200  0.19250  1.0000
  H   H75       1.0  0.39200  0.99700  0.94250  1.0000
  H   H76       1.0  0.10800  0.00300  0.44250  1.0000
  H   H77       1.0  0.25300  0.85800  0.30750  1.0000
  H   H78       1.0  0.24700  0.14200  0.80750  1.0000
  H   H79       1.0  0.10800  0.99700  0.05750  1.0000
  H   H80       1.0  0.39200  0.00300  0.55750  1.0000
  H   H81       1.0  0.25300  0.64200  0.80750  1.0000
  H   H82       1.0  0.24700  0.35800  0.30750  1.0000
  H   H83       1.0  0.10800  0.50300  0.55750  1.0000
  H   H84       1.0  0.39200  0.49700  0.05750  1.0000
  H   H85       1.0  0.24700  0.64200  0.19250  1.0000
  H   H86       1.0  0.25300  0.35800  0.69250  1.0000
  H   H87       1.0  0.39200  0.50300  0.44250  1.0000
  H   H88       1.0  0.10800  0.49700  0.94250  1.0000
  H   H89       1.0  0.75300  0.14200  0.30750  1.0000
  H   H90       1.0  0.74700  0.85800  0.80750  1.0000
  H   H91       1.0  0.60800  0.00300  0.05750  1.0000
  H   H92       1.0  0.89200  0.99700  0.55750  1.0000
  H   H93       1.0  0.74700  0.14200  0.69250  1.0000
  H   H94       1.0  0.75300  0.85800  0.19250  1.0000
  H   H95       1.0  0.89200  0.00300  0.94250  1.0000
  H   H96       1.0  0.60800  0.99700  0.44250  1.0000
  C   C257      1.0  0.75130  0.25230  0.22321  1.0000
  C   C258      1.0  0.74870  0.74770  0.72321  1.0000
  C   C259      1.0  0.99770  0.50130  0.47321  1.0000
  C   C260      1.0  0.50230  0.49870  0.97321  1.0000
  C   C261      1.0  0.74870  0.25230  0.77679  1.0000
  C   C262      1.0  0.75130  0.74770  0.27679  1.0000
  C   C263      1.0  0.50230  0.50130  0.52679  1.0000
  C   C264      1.0  0.99770  0.49870  0.02679  1.0000
  C   C265      1.0  0.25130  0.75230  0.72321  1.0000
  C   C266      1.0  0.24870  0.24770  0.22321  1.0000
  C   C267      1.0  0.49770  0.00130  0.97321  1.0000
  C   C268      1.0  0.00230  0.99870  0.47321  1.0000
  C   C269      1.0  0.24870  0.75230  0.27679  1.0000
  C   C270      1.0  0.25130  0.24770  0.77679  1.0000
  C   C271      1.0  0.00230  0.00130  0.02679  1.0000
  C   C272      1.0  0.49770  0.99870  0.52679  1.0000
  C   C273      1.0  0.24870  0.74770  0.77679  1.0000
  C   C274      1.0  0.25130  0.25230  0.27679  1.0000
  C   C275      1.0  0.00230  0.49870  0.52679  1.0000
  C   C276      1.0  0.49770  0.50130  0.02679  1.0000
  C   C277      1.0  0.25130  0.74770  0.22321  1.0000
  C   C278      1.0  0.24870  0.25230  0.72321  1.0000
  C   C279      1.0  0.49770  0.49870  0.47321  1.0000
  C   C280      1.0  0.00230  0.50130  0.97321  1.0000
  C   C281      1.0  0.74870  0.24770  0.27679  1.0000
  C   C282      1.0  0.75130  0.75230  0.77679  1.0000
  C   C283      1.0  0.50230  0.99870  0.02679  1.0000
  C   C284      1.0  0.99770  0.00130  0.52679  1.0000
  C   C285      1.0  0.75130  0.24770  0.72321  1.0000
  C   C286      1.0  0.74870  0.75230  0.22321  1.0000
  C   C287      1.0  0.99770  0.99870  0.97321  1.0000
  C   C288      1.0  0.50230  0.00130  0.47321  1.0000
  C   C289      1.0  0.70280  0.28770  0.23747  1.0000
  C   C290      1.0  0.79720  0.71230  0.73747  1.0000
  C   C291      1.0  0.96230  0.45280  0.48747  1.0000
  C   C292      1.0  0.53770  0.54720  0.98747  1.0000
  C   C293      1.0  0.79720  0.28770  0.76253  1.0000
  C   C294      1.0  0.70280  0.71230  0.26253  1.0000
  C   C295      1.0  0.53770  0.45280  0.51253  1.0000
  C   C296      1.0  0.96230  0.54720  0.01253  1.0000
  C   C297      1.0  0.20280  0.78770  0.73747  1.0000
  C   C298      1.0  0.29720  0.21230  0.23747  1.0000
  C   C299      1.0  0.46230  0.95280  0.98747  1.0000
  C   C300      1.0  0.03770  0.04720  0.48747  1.0000
  C   C301      1.0  0.29720  0.78770  0.26253  1.0000
  C   C302      1.0  0.20280  0.21230  0.76253  1.0000
  C   C303      1.0  0.03770  0.95280  0.01253  1.0000
  C   C304      1.0  0.46230  0.04720  0.51253  1.0000
  C   C305      1.0  0.29720  0.71230  0.76253  1.0000
  C   C306      1.0  0.20280  0.28770  0.26253  1.0000
  C   C307      1.0  0.03770  0.54720  0.51253  1.0000
  C   C308      1.0  0.46230  0.45280  0.01253  1.0000
  C   C309      1.0  0.20280  0.71230  0.23747  1.0000
  C   C310      1.0  0.29720  0.28770  0.73747  1.0000
  C   C311      1.0  0.46230  0.54720  0.48747  1.0000
  C   C312      1.0  0.03770  0.45280  0.98747  1.0000
  C   C313      1.0  0.79720  0.21230  0.26253  1.0000
  C   C314      1.0  0.70280  0.78770  0.76253  1.0000
  C   C315      1.0  0.53770  0.04720  0.01253  1.0000
  C   C316      1.0  0.96230  0.95280  0.51253  1.0000
  C   C317      1.0  0.70280  0.21230  0.73747  1.0000
  C   C318      1.0  0.79720  0.78770  0.23747  1.0000
  C   C319      1.0  0.96230  0.04720  0.98747  1.0000
  C   C320      1.0  0.53770  0.95280  0.48747  1.0000
  C   C321      1.0  0.79610  0.21440  0.23648  1.0000
  C   C322      1.0  0.70390  0.78560  0.73648  1.0000
  C   C323      1.0  0.03560  0.54610  0.48648  1.0000
  C   C324      1.0  0.46440  0.45390  0.98648  1.0000
  C   C325      1.0  0.70390  0.21440  0.76352  1.0000
  C   C326      1.0  0.79610  0.78560  0.26352  1.0000
  C   C327      1.0  0.46440  0.54610  0.51352  1.0000
  C   C328      1.0  0.03560  0.45390  0.01352  1.0000
  C   C329      1.0  0.29610  0.71440  0.73648  1.0000
  C   C330      1.0  0.20390  0.28560  0.23648  1.0000
  C   C331      1.0  0.53560  0.04610  0.98648  1.0000
  C   C332      1.0  0.96440  0.95390  0.48648  1.0000
  C   C333      1.0  0.20390  0.71440  0.26352  1.0000
  C   C334      1.0  0.29610  0.28560  0.76352  1.0000
  C   C335      1.0  0.96440  0.04610  0.01352  1.0000
  C   C336      1.0  0.53560  0.95390  0.51352  1.0000
  C   C337      1.0  0.20390  0.78560  0.76352  1.0000
  C   C338      1.0  0.29610  0.21440  0.26352  1.0000
  C   C339      1.0  0.96440  0.45390  0.51352  1.0000
  C   C340      1.0  0.53560  0.54610  0.01352  1.0000
  C   C341      1.0  0.29610  0.78560  0.23648  1.0000
  C   C342      1.0  0.20390  0.21440  0.73648  1.0000
  C   C343      1.0  0.53560  0.45390  0.48648  1.0000
  C   C344      1.0  0.96440  0.54610  0.98648  1.0000
  C   C345      1.0  0.70390  0.28560  0.26352  1.0000
  C   C346      1.0  0.79610  0.71440  0.76352  1.0000
  C   C347      1.0  0.46440  0.95390  0.01352  1.0000
  C   C348      1.0  0.03560  0.04610  0.51352  1.0000
  C   C349      1.0  0.79610  0.28560  0.73648  1.0000
  C   C350      1.0  0.70390  0.71440  0.23648  1.0000
  C   C351      1.0  0.03560  0.95390  0.98648  1.0000
  C   C352      1.0  0.46440  0.04610  0.48648  1.0000
