data_image0
_chemical_formula_structural       C4H12C24Cr4Mn4O8H4O44
_chemical_formula_sum              "C28 H16 Cr4 Mn4 O52"
_cell_length_a       9.2235
_cell_length_b       15.3552
_cell_length_c       16.5639
_cell_angle_alpha    90
_cell_angle_beta     100.765
_cell_angle_gamma    90

_space_group_name_H-M_alt    "P 1"
_space_group_IT_number       1

loop_
  _space_group_symop_operation_xyz
  'x, y, z'

loop_
  _atom_site_type_symbol
  _atom_site_label
  _atom_site_symmetry_multiplicity
  _atom_site_fract_x
  _atom_site_fract_y
  _atom_site_fract_z
  _atom_site_occupancy
  C   C1        1.0  0.57350  0.49000  0.12280  1.0000
  C   C2        1.0  0.92650  0.99000  0.37720  1.0000
  C   C3        1.0  0.42650  0.51000  0.87720  1.0000
  C   C4        1.0  0.07350  0.01000  0.62280  1.0000
  H   H1        1.0  0.49130  0.45800  0.09290  1.0000
  H   H2        1.0  0.00870  0.95800  0.40710  1.0000
  H   H3        1.0  0.50870  0.54200  0.90710  1.0000
  H   H4        1.0  0.99130  0.04200  0.59290  1.0000
  H   H5        1.0  0.60260  0.46520  0.17660  1.0000
  H   H6        1.0  0.89740  0.96520  0.32340  1.0000
  H   H7        1.0  0.39740  0.53480  0.82340  1.0000
  H   H8        1.0  0.10260  0.03480  0.67660  1.0000
  H   H9        1.0  0.65460  0.48710  0.09400  1.0000
  H   H10       1.0  0.84540  0.98710  0.40600  1.0000
  H   H11       1.0  0.34540  0.51290  0.90600  1.0000
  H   H12       1.0  0.15460  0.01290  0.59400  1.0000
  C   C5        1.0  0.47760  0.66880  0.32390  1.0000
  C   C6        1.0  0.02240  0.16880  0.17610  1.0000
  C   C7        1.0  0.52240  0.33120  0.67610  1.0000
  C   C8        1.0  0.97760  0.83120  0.82390  1.0000
  C   C9        1.0  0.40340  0.73670  0.26090  1.0000
  C   C10       1.0  0.09660  0.23670  0.23910  1.0000
  C   C11       1.0  0.59660  0.26330  0.73910  1.0000
  C   C12       1.0  0.90340  0.76330  0.76090  1.0000
  C   C13       1.0  0.69150  0.77270  0.03410  1.0000
  C   C14       1.0  0.80850  0.27270  0.46590  1.0000
  C   C15       1.0  0.30850  0.22730  0.96590  1.0000
  C   C16       1.0  0.19150  0.72730  0.53410  1.0000
  C   C17       1.0  0.77470  0.68940  0.02110  1.0000
  C   C18       1.0  0.72530  0.18940  0.47890  1.0000
  C   C19       1.0  0.22530  0.31060  0.97890  1.0000
  C   C20       1.0  0.27470  0.81060  0.52110  1.0000
  C   C21       1.0  0.93490  0.74620  0.30280  1.0000
  C   C22       1.0  0.56510  0.24620  0.19720  1.0000
  C   C23       1.0  0.06510  0.25380  0.69720  1.0000
  C   C24       1.0  0.43490  0.75380  0.80280  1.0000
  C   C25       1.0  0.97290  0.65180  0.28300  1.0000
  C   C26       1.0  0.52710  0.15180  0.21700  1.0000
  C   C27       1.0  0.02710  0.34820  0.71700  1.0000
  C   C28       1.0  0.47290  0.84820  0.78300  1.0000
  Cr  Cr1       1.0  0.72443  0.77615  0.87463  1.0000
  Cr  Cr2       1.0  0.77557  0.27615  0.62537  1.0000
  Cr  Cr3       1.0  0.27557  0.22385  0.12537  1.0000
  Cr  Cr4       1.0  0.22443  0.72385  0.37463  1.0000
  Mn  Mn1       1.0  0.66918  0.68013  0.19224  1.0000
  Mn  Mn2       1.0  0.83082  0.18013  0.30776  1.0000
  Mn  Mn3       1.0  0.33082  0.31987  0.80776  1.0000
  Mn  Mn4       1.0  0.16918  0.81987  0.69224  1.0000
  O   O1        1.0  0.46030  0.75190  0.20030  1.0000
  O   O2        1.0  0.03970  0.25190  0.29970  1.0000
  O   O3        1.0  0.53970  0.24810  0.79970  1.0000
  O   O4        1.0  0.96030  0.74810  0.70030  1.0000
  O   O5        1.0  0.53200  0.57850  0.13010  1.0000
  O   O6        1.0  0.96800  0.07850  0.36990  1.0000
  O   O7        1.0  0.46800  0.42150  0.86990  1.0000
  O   O8        1.0  0.03200  0.92150  0.63010  1.0000
  H   H13       1.0  0.44480  0.58090  0.13420  1.0000
  H   H14       1.0  0.05520  0.08090  0.36580  1.0000
  H   H15       1.0  0.55520  0.41910  0.86580  1.0000
  H   H16       1.0  0.94480  0.91910  0.63420  1.0000
  O   O9        1.0  0.59120  0.63310  0.31256  1.0000
  O   O10       1.0  0.90880  0.13310  0.18744  1.0000
  O   O11       1.0  0.40880  0.36690  0.68744  1.0000
  O   O12       1.0  0.09120  0.86690  0.81256  1.0000
  O   O13       1.0  0.28910  0.77290  0.27758  1.0000
  O   O14       1.0  0.21090  0.27290  0.22242  1.0000
  O   O15       1.0  0.71090  0.22710  0.72242  1.0000
  O   O16       1.0  0.78910  0.72710  0.77758  1.0000
  O   O17       1.0  0.40970  0.65592  0.38372  1.0000
  O   O18       1.0  0.09030  0.15592  0.11628  1.0000
  O   O19       1.0  0.59030  0.34408  0.61628  1.0000
  O   O20       1.0  0.90970  0.84408  0.88372  1.0000
  O   O21       1.0  0.81220  0.68310  0.95026  1.0000
  O   O22       1.0  0.68780  0.18310  0.54974  1.0000
  O   O23       1.0  0.18780  0.31690  0.04974  1.0000
  O   O24       1.0  0.31220  0.81690  0.45026  1.0000
  O   O25       1.0  0.67040  0.82550  0.97399  1.0000
  O   O26       1.0  0.82960  0.32550  0.52601  1.0000
  O   O27       1.0  0.32960  0.17450  0.02601  1.0000
  O   O28       1.0  0.17040  0.67450  0.47399  1.0000
  O   O29       1.0  0.03640  0.78853  0.34845  1.0000
  O   O30       1.0  0.46360  0.28853  0.15155  1.0000
  O   O31       1.0  0.96360  0.21147  0.65155  1.0000
  O   O32       1.0  0.53640  0.71147  0.84845  1.0000
  O   O33       1.0  0.10840  0.63078  0.30884  1.0000
  O   O34       1.0  0.39160  0.13078  0.19116  1.0000
  O   O35       1.0  0.89160  0.36922  0.69116  1.0000
  O   O36       1.0  0.60840  0.86922  0.80884  1.0000
  O   O37       1.0  0.80930  0.77400  0.27352  1.0000
  O   O38       1.0  0.69070  0.27400  0.22648  1.0000
  O   O39       1.0  0.19070  0.22600  0.72648  1.0000
  O   O40       1.0  0.30930  0.72600  0.77352  1.0000
  O   O41       1.0  0.87440  0.60478  0.24596  1.0000
  O   O42       1.0  0.62560  0.10478  0.25404  1.0000
  O   O43       1.0  0.12560  0.39522  0.75404  1.0000
  O   O44       1.0  0.37440  0.89522  0.74596  1.0000
  O   O45       1.0  0.65240  0.78450  0.10090  1.0000
  O   O46       1.0  0.84760  0.28450  0.39910  1.0000
  O   O47       1.0  0.34760  0.21550  0.89910  1.0000
  O   O48       1.0  0.15240  0.71550  0.60090  1.0000
  O   O49       1.0  0.80140  0.63780  0.07830  1.0000
  O   O50       1.0  0.69860  0.13780  0.42170  1.0000
  O   O51       1.0  0.19860  0.36220  0.92170  1.0000
  O   O52       1.0  0.30140  0.86220  0.57830  1.0000
