data_image0
_chemical_formula_structural       Ho8O8C8H4C4H4C4H12O8C8H4C4H4C4H12O8C8H4C4H4C4H12O8C8H4C4H4C4H12O8C8H4C4H4C4H12O8C8H4C4H4C4H12O8C8H4C4H4C4H12
_chemical_formula_sum              "Ho8 O56 C112 H140"
_cell_length_a       19.395
_cell_length_b       17.142
_cell_length_c       15.814
_cell_angle_alpha    90
_cell_angle_beta     118.908
_cell_angle_gamma    90

_space_group_name_H-M_alt    "P 1"
_space_group_IT_number       1

loop_
  _space_group_symop_operation_xyz
  'x, y, z'

loop_
  _atom_site_type_symbol
  _atom_site_label
  _atom_site_symmetry_multiplicity
  _atom_site_fract_x
  _atom_site_fract_y
  _atom_site_fract_z
  _atom_site_occupancy
  Ho  Ho1       1.0  0.41960  0.49866  0.70159  1.0000
  Ho  Ho2       1.0  0.41960  0.50134  0.20159  1.0000
  Ho  Ho3       1.0  0.91960  0.99866  0.70159  1.0000
  Ho  Ho4       1.0  0.91960  0.00134  0.20159  1.0000
  Ho  Ho5       1.0  0.37229  0.50135  0.92340  1.0000
  Ho  Ho6       1.0  0.37229  0.49865  0.42340  1.0000
  Ho  Ho7       1.0  0.87229  0.00135  0.92340  1.0000
  Ho  Ho8       1.0  0.87229  0.99865  0.42340  1.0000
  O   O1        1.0  0.39010  0.42450  0.81130  1.0000
  O   O2        1.0  0.39010  0.57550  0.31130  1.0000
  O   O3        1.0  0.89010  0.92450  0.81130  1.0000
  O   O4        1.0  0.89010  0.07550  0.31130  1.0000
  O   O5        1.0  0.38840  0.36050  0.69050  1.0000
  O   O6        1.0  0.38840  0.63950  0.19050  1.0000
  O   O7        1.0  0.88840  0.86050  0.69050  1.0000
  O   O8        1.0  0.88840  0.13950  0.19050  1.0000
  C   C1        1.0  0.37940  0.35790  0.76080  1.0000
  C   C2        1.0  0.37940  0.64210  0.26080  1.0000
  C   C3        1.0  0.87940  0.85790  0.76080  1.0000
  C   C4        1.0  0.87940  0.14210  0.26080  1.0000
  C   C5        1.0  0.35070  0.29030  0.79400  1.0000
  C   C6        1.0  0.35070  0.70970  0.29400  1.0000
  C   C7        1.0  0.85070  0.79030  0.79400  1.0000
  C   C8        1.0  0.85070  0.20970  0.29400  1.0000
  H   H1        1.0  0.33520  0.29640  0.84080  1.0000
  H   H2        1.0  0.33520  0.70360  0.34080  1.0000
  H   H3        1.0  0.83520  0.79640  0.84080  1.0000
  H   H4        1.0  0.83520  0.20360  0.34080  1.0000
  C   C9        1.0  0.34780  0.22070  0.75480  1.0000
  C   C10       1.0  0.34780  0.77930  0.25480  1.0000
  C   C11       1.0  0.84780  0.72070  0.75480  1.0000
  C   C12       1.0  0.84780  0.27930  0.25480  1.0000
  H   H5        1.0  0.36780  0.21490  0.71220  1.0000
  H   H6        1.0  0.36780  0.78510  0.21220  1.0000
  H   H7        1.0  0.86780  0.71490  0.71220  1.0000
  H   H8        1.0  0.86780  0.28510  0.21220  1.0000
  C   C13       1.0  0.31270  0.15170  0.77870  1.0000
  C   C14       1.0  0.31270  0.84830  0.27870  1.0000
  C   C15       1.0  0.81270  0.65170  0.77870  1.0000
  C   C16       1.0  0.81270  0.34830  0.27870  1.0000
  H   H9        1.0  0.31490  0.10690  0.74360  1.0000
  H   H10       1.0  0.31490  0.89310  0.24360  1.0000
  H   H11       1.0  0.81490  0.60690  0.74360  1.0000
  H   H12       1.0  0.81490  0.39310  0.24360  1.0000
  H   H13       1.0  0.25890  0.16270  0.76090  1.0000
  H   H14       1.0  0.25890  0.83730  0.26090  1.0000
  H   H15       1.0  0.75890  0.66270  0.76090  1.0000
  H   H16       1.0  0.75890  0.33730  0.26090  1.0000
  H   H17       1.0  0.34190  0.14130  0.84670  1.0000
  H   H18       1.0  0.34190  0.85870  0.34670  1.0000
  H   H19       1.0  0.84190  0.64130  0.84670  1.0000
  H   H20       1.0  0.84190  0.35870  0.34670  1.0000
  O   O9        1.0  0.40390  0.63740  0.93290  1.0000
  O   O10       1.0  0.40390  0.36260  0.43290  1.0000
  O   O11       1.0  0.90390  0.13740  0.93290  1.0000
  O   O12       1.0  0.90390  0.86260  0.43290  1.0000
  O   O13       1.0  0.40740  0.57600  0.81510  1.0000
  O   O14       1.0  0.40740  0.42400  0.31510  1.0000
  O   O15       1.0  0.90740  0.07600  0.81510  1.0000
  O   O16       1.0  0.90740  0.92400  0.31510  1.0000
  C   C17       1.0  0.41640  0.63580  0.85960  1.0000
  C   C18       1.0  0.41640  0.36420  0.35960  1.0000
  C   C19       1.0  0.91640  0.13580  0.85960  1.0000
  C   C20       1.0  0.91640  0.86420  0.35960  1.0000
  C   C21       1.0  0.43900  0.70980  0.83110  1.0000
  C   C22       1.0  0.43900  0.29020  0.33110  1.0000
  C   C23       1.0  0.93900  0.20980  0.83110  1.0000
  C   C24       1.0  0.93900  0.79020  0.33110  1.0000
  H   H21       1.0  0.44840  0.70770  0.77880  1.0000
  H   H22       1.0  0.44840  0.29230  0.27880  1.0000
  H   H23       1.0  0.94840  0.20770  0.77880  1.0000
  H   H24       1.0  0.94840  0.79230  0.27880  1.0000
  C   C25       1.0  0.44700  0.77850  0.87290  1.0000
  C   C26       1.0  0.44700  0.22150  0.37290  1.0000
  C   C27       1.0  0.94700  0.27850  0.87290  1.0000
  C   C28       1.0  0.94700  0.72150  0.37290  1.0000
  H   H25       1.0  0.43800  0.78030  0.92550  1.0000
  H   H26       1.0  0.43800  0.21970  0.42550  1.0000
  H   H27       1.0  0.93800  0.28030  0.92550  1.0000
  H   H28       1.0  0.93800  0.71970  0.42550  1.0000
  C   C29       1.0  0.46910  0.85350  0.84440  1.0000
  C   C30       1.0  0.46910  0.14650  0.34440  1.0000
  C   C31       1.0  0.96910  0.35350  0.84440  1.0000
  C   C32       1.0  0.96910  0.64650  0.34440  1.0000
  H   H29       1.0  0.47010  0.89440  0.88650  1.0000
  H   H30       1.0  0.47010  0.10560  0.38650  1.0000
  H   H31       1.0  0.97010  0.39440  0.88650  1.0000
  H   H32       1.0  0.97010  0.60560  0.38650  1.0000
  H   H33       1.0  0.52020  0.84850  0.84950  1.0000
  H   H34       1.0  0.52020  0.15150  0.34950  1.0000
  H   H35       1.0  0.02020  0.34850  0.84950  1.0000
  H   H36       1.0  0.02020  0.65150  0.34950  1.0000
  H   H37       1.0  0.43110  0.86590  0.77900  1.0000
  H   H38       1.0  0.43110  0.13410  0.27900  1.0000
  H   H39       1.0  0.93110  0.36590  0.77900  1.0000
  H   H40       1.0  0.93110  0.63410  0.27900  1.0000
  O   O17       1.0  0.27360  0.49590  0.62590  1.0000
  O   O18       1.0  0.27360  0.50410  0.12590  1.0000
  O   O19       1.0  0.77360  0.99590  0.62590  1.0000
  O   O20       1.0  0.77360  0.00410  0.12590  1.0000
  O   O21       1.0  0.31970  0.47190  0.52690  1.0000
  O   O22       1.0  0.31970  0.52810  0.02690  1.0000
  O   O23       1.0  0.81970  0.97190  0.52690  1.0000
  O   O24       1.0  0.81970  0.02810  0.02690  1.0000
  C   C33       1.0  0.26320  0.47240  0.55050  1.0000
  C   C34       1.0  0.26320  0.52760  0.05050  1.0000
  C   C35       1.0  0.76320  0.97240  0.55050  1.0000
  C   C36       1.0  0.76320  0.02760  0.05050  1.0000
  C   C37       1.0  0.18670  0.43800  0.47580  1.0000
  C   C38       1.0  0.18670  0.56200  0.97580  1.0000
  C   C39       1.0  0.68670  0.93800  0.47580  1.0000
  C   C40       1.0  0.68670  0.06200  0.97580  1.0000
  H   H41       1.0  0.18620  0.40470  0.42910  1.0000
  H   H42       1.0  0.18620  0.59530  0.92910  1.0000
  H   H43       1.0  0.68620  0.90470  0.42910  1.0000
  H   H44       1.0  0.68620  0.09530  0.92910  1.0000
  C   C41       1.0  0.12030  0.45420  0.47530  1.0000
  C   C42       1.0  0.12030  0.54580  0.97530  1.0000
  C   C43       1.0  0.62030  0.95420  0.47530  1.0000
  C   C44       1.0  0.62030  0.04580  0.97530  1.0000
  H   H45       1.0  0.12440  0.48770  0.52370  1.0000
  H   H46       1.0  0.12440  0.51230  0.02370  1.0000
  H   H47       1.0  0.62440  0.98770  0.52370  1.0000
  H   H48       1.0  0.62440  0.01230  0.02370  1.0000
  C   C45       1.0  0.03870  0.42590  0.40690  1.0000
  C   C46       1.0  0.03870  0.57410  0.90690  1.0000
  C   C47       1.0  0.53870  0.92590  0.40690  1.0000
  C   C48       1.0  0.53870  0.07410  0.90690  1.0000
  H   H49       1.0  0.00210  0.44780  0.42500  1.0000
  H   H50       1.0  0.00210  0.55220  0.92500  1.0000
  H   H51       1.0  0.50210  0.94780  0.42500  1.0000
  H   H52       1.0  0.50210  0.05220  0.92500  1.0000
  H   H53       1.0  0.03730  0.37000  0.40980  1.0000
  H   H54       1.0  0.03730  0.63000  0.90980  1.0000
  H   H55       1.0  0.53730  0.87000  0.40980  1.0000
  H   H56       1.0  0.53730  0.13000  0.90980  1.0000
  H   H57       1.0  0.02460  0.44170  0.34240  1.0000
  H   H58       1.0  0.02460  0.55830  0.84240  1.0000
  H   H59       1.0  0.52460  0.94170  0.34240  1.0000
  H   H60       1.0  0.52460  0.05830  0.84240  1.0000
  O   O25       1.0  0.24250  0.44330  0.82980  1.0000
  O   O26       1.0  0.24250  0.55670  0.32980  1.0000
  O   O27       1.0  0.74250  0.94330  0.82980  1.0000
  O   O28       1.0  0.74250  0.05670  0.32980  1.0000
  O   O29       1.0  0.25260  0.56580  0.80800  1.0000
  O   O30       1.0  0.25260  0.43420  0.30800  1.0000
  O   O31       1.0  0.75260  0.06580  0.80800  1.0000
  O   O32       1.0  0.75260  0.93420  0.30800  1.0000
  C   C49       1.0  0.21180  0.50370  0.79120  1.0000
  C   C50       1.0  0.21180  0.49630  0.29120  1.0000
  C   C51       1.0  0.71180  0.00370  0.79120  1.0000
  C   C52       1.0  0.71180  0.99630  0.29120  1.0000
  C   C53       1.0  0.12610  0.50760  0.72040  1.0000
  C   C54       1.0  0.12610  0.49240  0.22040  1.0000
  C   C55       1.0  0.62610  0.00760  0.72040  1.0000
  C   C56       1.0  0.62610  0.99240  0.22040  1.0000
  H   H61       1.0  0.09810  0.46100  0.70490  1.0000
  H   H62       1.0  0.09810  0.53900  0.20490  1.0000
  H   H63       1.0  0.59810  0.96100  0.70490  1.0000
  H   H64       1.0  0.59810  0.03900  0.20490  1.0000
  C   C57       1.0  0.08700  0.57090  0.67820  1.0000
  C   C58       1.0  0.08700  0.42910  0.17820  1.0000
  C   C59       1.0  0.58700  0.07090  0.67820  1.0000
  C   C60       1.0  0.58700  0.92910  0.17820  1.0000
  H   H65       1.0  0.11430  0.61690  0.68370  1.0000
  H   H66       1.0  0.11430  0.38310  0.18370  1.0000
  H   H67       1.0  0.61430  0.11690  0.68370  1.0000
  H   H68       1.0  0.61430  0.88310  0.18370  1.0000
  C   C61       1.0  0.99830  0.57060  0.62070  1.0000
  C   C62       1.0  0.99830  0.42940  0.12070  1.0000
  C   C63       1.0  0.49830  0.07060  0.62070  1.0000
  C   C64       1.0  0.49830  0.92940  0.12070  1.0000
  H   H69       1.0  0.98000  0.62130  0.59320  1.0000
  H   H70       1.0  0.98000  0.37870  0.09320  1.0000
  H   H71       1.0  0.48000  0.12130  0.59320  1.0000
  H   H72       1.0  0.48000  0.87870  0.09320  1.0000
  H   H73       1.0  0.98150  0.53260  0.56990  1.0000
  H   H74       1.0  0.98150  0.46740  0.06990  1.0000
  H   H75       1.0  0.48150  0.03260  0.56990  1.0000
  H   H76       1.0  0.48150  0.96740  0.06990  1.0000
  H   H77       1.0  0.97690  0.55760  0.66240  1.0000
  H   H78       1.0  0.97690  0.44240  0.16240  1.0000
  H   H79       1.0  0.47690  0.05760  0.66240  1.0000
  H   H80       1.0  0.47690  0.94240  0.16240  1.0000
  O   O33       1.0  0.47280  0.46860  0.60190  1.0000
  O   O34       1.0  0.47280  0.53140  0.10190  1.0000
  O   O35       1.0  0.97280  0.96860  0.60190  1.0000
  O   O36       1.0  0.97280  0.03140  0.10190  1.0000
  O   O37       1.0  0.51210  0.49290  0.49600  1.0000
  O   O38       1.0  0.51210  0.50710  0.99600  1.0000
  O   O39       1.0  0.01210  0.99290  0.49600  1.0000
  O   O40       1.0  0.01210  0.00710  0.99600  1.0000
  C   C65       1.0  0.52660  0.46930  0.58300  1.0000
  C   C66       1.0  0.52660  0.53070  0.08300  1.0000
  C   C67       1.0  0.02660  0.96930  0.58300  1.0000
  C   C68       1.0  0.02660  0.03070  0.08300  1.0000
  C   C69       1.0  0.60620  0.43790  0.65290  1.0000
  C   C70       1.0  0.60620  0.56210  0.15290  1.0000
  C   C71       1.0  0.10620  0.93790  0.65290  1.0000
  C   C72       1.0  0.10620  0.06210  0.15290  1.0000
  H   H81       1.0  0.61010  0.40600  0.70260  1.0000
  H   H82       1.0  0.61010  0.59400  0.20260  1.0000
  H   H83       1.0  0.11010  0.90600  0.70260  1.0000
  H   H84       1.0  0.11010  0.09400  0.20260  1.0000
  C   C73       1.0  0.67060  0.45240  0.64840  1.0000
  C   C74       1.0  0.67060  0.54760  0.14840  1.0000
  C   C75       1.0  0.17060  0.95240  0.64840  1.0000
  C   C76       1.0  0.17060  0.04760  0.14840  1.0000
  H   H85       1.0  0.66800  0.48240  0.59790  1.0000
  H   H86       1.0  0.66800  0.51760  0.09790  1.0000
  H   H87       1.0  0.16800  0.98240  0.59790  1.0000
  H   H88       1.0  0.16800  0.01760  0.09790  1.0000
  C   C77       1.0  0.74880  0.42100  0.72390  1.0000
  C   C78       1.0  0.74880  0.57900  0.22390  1.0000
  C   C79       1.0  0.24880  0.92100  0.72390  1.0000
  C   C80       1.0  0.24880  0.07900  0.22390  1.0000
  H   H89       1.0  0.78930  0.43720  0.70940  1.0000
  H   H90       1.0  0.78930  0.56280  0.20940  1.0000
  H   H91       1.0  0.28930  0.93720  0.70940  1.0000
  H   H92       1.0  0.28930  0.06280  0.20940  1.0000
  H   H93       1.0  0.74670  0.36510  0.72440  1.0000
  H   H94       1.0  0.74670  0.63490  0.22440  1.0000
  H   H95       1.0  0.24670  0.86510  0.72440  1.0000
  H   H96       1.0  0.24670  0.13490  0.22440  1.0000
  H   H97       1.0  0.76020  0.44070  0.78620  1.0000
  H   H98       1.0  0.76020  0.55930  0.28620  1.0000
  H   H99       1.0  0.26020  0.94070  0.78620  1.0000
  H   H100      1.0  0.26020  0.05930  0.28620  1.0000
  O   O41       1.0  0.53900  0.43190  0.81420  1.0000
  O   O42       1.0  0.53900  0.56810  0.31420  1.0000
  O   O43       1.0  0.03900  0.93190  0.81420  1.0000
  O   O44       1.0  0.03900  0.06810  0.31420  1.0000
  O   O45       1.0  0.54930  0.55790  0.79390  1.0000
  O   O46       1.0  0.54930  0.44210  0.29390  1.0000
  O   O47       1.0  0.04930  0.05790  0.79390  1.0000
  O   O48       1.0  0.04930  0.94210  0.29390  1.0000
  C   C81       1.0  0.57960  0.48640  0.83640  1.0000
  C   C82       1.0  0.57960  0.51360  0.33640  1.0000
  C   C83       1.0  0.07960  0.98640  0.83640  1.0000
  C   C84       1.0  0.07960  0.01360  0.33640  1.0000
  C   C85       1.0  0.66700  0.48890  0.89900  1.0000
  C   C86       1.0  0.66700  0.51110  0.39900  1.0000
  C   C87       1.0  0.16700  0.98890  0.89900  1.0000
  C   C88       1.0  0.16700  0.01110  0.39900  1.0000
  H   H101      1.0  0.69470  0.53500  0.90680  1.0000
  H   H102      1.0  0.69470  0.46500  0.40680  1.0000
  H   H103      1.0  0.19470  0.03500  0.90680  1.0000
  H   H104      1.0  0.19470  0.96500  0.40680  1.0000
  C   C89       1.0  0.70380  0.42490  0.94250  1.0000
  C   C90       1.0  0.70380  0.57510  0.44250  1.0000
  C   C91       1.0  0.20380  0.92490  0.94250  1.0000
  C   C92       1.0  0.20380  0.07510  0.44250  1.0000
  H   H105      1.0  0.67300  0.38010  0.92590  1.0000
  H   H106      1.0  0.67300  0.61990  0.42590  1.0000
  H   H107      1.0  0.17300  0.88010  0.92590  1.0000
  H   H108      1.0  0.17300  0.11990  0.42590  1.0000
  C   C93       1.0  0.78890  0.41390  0.01560  1.0000
  C   C94       1.0  0.78890  0.58610  0.51560  1.0000
  C   C95       1.0  0.28890  0.91390  0.01560  1.0000
  C   C96       1.0  0.28890  0.08610  0.51560  1.0000
  H   H109      1.0  0.79860  0.35970  0.03280  1.0000
  H   H110      1.0  0.79860  0.64030  0.53280  1.0000
  H   H111      1.0  0.29860  0.85970  0.03280  1.0000
  H   H112      1.0  0.29860  0.14030  0.53280  1.0000
  H   H113      1.0  0.80110  0.44420  0.07210  1.0000
  H   H114      1.0  0.80110  0.55580  0.57210  1.0000
  H   H115      1.0  0.30110  0.94420  0.07210  1.0000
  H   H116      1.0  0.30110  0.05580  0.57210  1.0000
  H   H117      1.0  0.82130  0.43060  0.98860  1.0000
  H   H118      1.0  0.82130  0.56940  0.48860  1.0000
  H   H119      1.0  0.32130  0.93060  0.98860  1.0000
  H   H120      1.0  0.32130  0.06940  0.48860  1.0000
  O   O49       1.0  0.39430  0.62070  0.48830  1.0000
  O   O50       1.0  0.39430  0.37930  0.98830  1.0000
  O   O51       1.0  0.89430  0.12070  0.48830  1.0000
  O   O52       1.0  0.89430  0.87930  0.98830  1.0000
  O   O53       1.0  0.40020  0.62160  0.63200  1.0000
  O   O54       1.0  0.40020  0.37840  0.13200  1.0000
  O   O55       1.0  0.90020  0.12160  0.63200  1.0000
  O   O56       1.0  0.90020  0.87840  0.13200  1.0000
  C   C97       1.0  0.39520  0.65450  0.56390  1.0000
  C   C98       1.0  0.39520  0.34550  0.06390  1.0000
  C   C99       1.0  0.89520  0.15450  0.56390  1.0000
  C   C100      1.0  0.89520  0.84550  0.06390  1.0000
  C   C101      1.0  0.39610  0.74160  0.55200  1.0000
  C   C102      1.0  0.39610  0.25840  0.05200  1.0000
  C   C103      1.0  0.89610  0.24160  0.55200  1.0000
  C   C104      1.0  0.89610  0.75840  0.05200  1.0000
  H   H121      1.0  0.41420  0.76080  0.51130  1.0000
  H   H122      1.0  0.41420  0.23920  0.01130  1.0000
  H   H123      1.0  0.91420  0.26080  0.51130  1.0000
  H   H124      1.0  0.91420  0.73920  0.01130  1.0000
  C   C105      1.0  0.37320  0.79170  0.59470  1.0000
  C   C106      1.0  0.37320  0.20830  0.09470  1.0000
  C   C107      1.0  0.87320  0.29170  0.59470  1.0000
  C   C108      1.0  0.87320  0.70830  0.09470  1.0000
  H   H125      1.0  0.35490  0.77420  0.63590  1.0000
  H   H126      1.0  0.35490  0.22580  0.13590  1.0000
  H   H127      1.0  0.85490  0.27420  0.63590  1.0000
  H   H128      1.0  0.85490  0.72580  0.13590  1.0000
  C   C109      1.0  0.37600  0.87760  0.57850  1.0000
  C   C110      1.0  0.37600  0.12240  0.07850  1.0000
  C   C111      1.0  0.87600  0.37760  0.57850  1.0000
  C   C112      1.0  0.87600  0.62240  0.07850  1.0000
  H   H129      1.0  0.35660  0.90580  0.61520  1.0000
  H   H130      1.0  0.35660  0.09420  0.11520  1.0000
  H   H131      1.0  0.85660  0.40580  0.61520  1.0000
  H   H132      1.0  0.85660  0.59420  0.11520  1.0000
  H   H133      1.0  0.34380  0.88910  0.51110  1.0000
  H   H134      1.0  0.34380  0.11090  0.01110  1.0000
  H   H135      1.0  0.84380  0.38910  0.51110  1.0000
  H   H136      1.0  0.84380  0.61090  0.01110  1.0000
  H   H137      1.0  0.42940  0.89290  0.59890  1.0000
  H   H138      1.0  0.42940  0.10710  0.09890  1.0000
  H   H139      1.0  0.92940  0.39290  0.59890  1.0000
  H   H140      1.0  0.92940  0.60710  0.09890  1.0000
