data_image0
_chemical_formula_structural       CuO8N4C6H2C2H2C4
_chemical_formula_sum              "Cu1 O8 N4 C12 H4"
_cell_length_a       6.4108
_cell_length_b       7.9773
_cell_length_c       11.4761
_cell_angle_alpha    75.183
_cell_angle_beta     85.61
_cell_angle_gamma    84.775

_space_group_name_H-M_alt    "P 1"
_space_group_IT_number       1

loop_
  _space_group_symop_operation_xyz
  'x, y, z'

loop_
  _atom_site_type_symbol
  _atom_site_label
  _atom_site_symmetry_multiplicity
  _atom_site_fract_x
  _atom_site_fract_y
  _atom_site_fract_z
  _atom_site_occupancy
  Cu  Cu1       1.0  0.50000  0.50000  0.50000  1.0000
  O   O1        1.0  0.31250  0.70175  0.43267  1.0000
  O   O2        1.0  0.68750  0.29825  0.56733  1.0000
  O   O3        1.0  0.03200  0.77990  0.32119  1.0000
  O   O4        1.0  0.96800  0.22010  0.67881  1.0000
  O   O5        1.0  0.89870  0.58820  0.13516  1.0000
  O   O6        1.0  0.10130  0.41180  0.86484  1.0000
  O   O7        1.0  0.65400  0.54150  0.28819  1.0000
  O   O8        1.0  0.34600  0.45850  0.71181  1.0000
  N   N1        1.0  0.29300  0.37240  0.44512  1.0000
  N   N2        1.0  0.70700  0.62760  0.55488  1.0000
  N   N3        1.0  0.00150  0.24340  0.33188  1.0000
  N   N4        1.0  0.99850  0.75660  0.66812  1.0000
  C   C1        1.0  0.16080  0.67140  0.37567  1.0000
  C   C2        1.0  0.83920  0.32860  0.62433  1.0000
  C   C3        1.0  0.14710  0.48070  0.38035  1.0000
  C   C4        1.0  0.85290  0.51930  0.61965  1.0000
  C   C5        1.0  0.29270  0.20250  0.45650  1.0000
  C   C6        1.0  0.70730  0.79750  0.54350  1.0000
  H   H1        1.0  0.39250  0.12440  0.50400  1.0000
  H   H2        1.0  0.60750  0.87560  0.49600  1.0000
  C   C7        1.0  0.14560  0.13890  0.39850  1.0000
  C   C8        1.0  0.85440  0.86110  0.60150  1.0000
  H   H3        1.0  0.14820  0.01710  0.40680  1.0000
  H   H4        1.0  0.85180  0.98290  0.59320  1.0000
  C   C9        1.0  0.00030  0.41490  0.32351  1.0000
  C   C10       1.0  0.99970  0.58510  0.67649  1.0000
  C   C11       1.0  0.83640  0.52770  0.24280  1.0000
  C   C12       1.0  0.16360  0.47230  0.75720  1.0000
