data_image0
_chemical_formula_structural       Cu12Cl20N16C20H4C16H4C4
_chemical_formula_sum              "Cu12 Cl20 N16 C40 H8"
_cell_length_a       17.2824
_cell_length_b       17.0846
_cell_length_c       22.4135
_cell_angle_alpha    90
_cell_angle_beta     129.778
_cell_angle_gamma    90

_space_group_name_H-M_alt    "P 1"
_space_group_IT_number       1

loop_
  _space_group_symop_operation_xyz
  'x, y, z'

loop_
  _atom_site_type_symbol
  _atom_site_label
  _atom_site_symmetry_multiplicity
  _atom_site_fract_x
  _atom_site_fract_y
  _atom_site_fract_z
  _atom_site_occupancy
  Cu  Cu1       1.0  0.57215  0.94381  0.84136  1.0000
  Cu  Cu2       1.0  0.42785  0.44381  0.65864  1.0000
  Cu  Cu3       1.0  0.42785  0.05619  0.15864  1.0000
  Cu  Cu4       1.0  0.57215  0.55619  0.34136  1.0000
  Cu  Cu5       1.0  0.39873  0.10779  0.77017  1.0000
  Cu  Cu6       1.0  0.60127  0.60779  0.72983  1.0000
  Cu  Cu7       1.0  0.60127  0.89221  0.22983  1.0000
  Cu  Cu8       1.0  0.39873  0.39221  0.27017  1.0000
  Cu  Cu9       1.0  0.53187  0.76844  0.76124  1.0000
  Cu  Cu10      1.0  0.46813  0.26844  0.73876  1.0000
  Cu  Cu11      1.0  0.46813  0.23156  0.23876  1.0000
  Cu  Cu12      1.0  0.53187  0.73156  0.26124  1.0000
  Cl  Cl1       1.0  0.48015  0.01204  0.86327  1.0000
  Cl  Cl2       1.0  0.51985  0.51204  0.63673  1.0000
  Cl  Cl3       1.0  0.51985  0.98796  0.13673  1.0000
  Cl  Cl4       1.0  0.48015  0.48796  0.36327  1.0000
  Cl  Cl5       1.0  0.50532  0.14155  0.73553  1.0000
  Cl  Cl6       1.0  0.49468  0.64155  0.76447  1.0000
  Cl  Cl7       1.0  0.49468  0.85845  0.26447  1.0000
  Cl  Cl8       1.0  0.50532  0.35845  0.23553  1.0000
  Cl  Cl9       1.0  0.44024  0.23699  0.82109  1.0000
  Cl  Cl10      1.0  0.55976  0.73699  0.67891  1.0000
  Cl  Cl11      1.0  0.55976  0.76301  0.17891  1.0000
  Cl  Cl12      1.0  0.44024  0.26301  0.32109  1.0000
  Cl  Cl13      1.0  0.47775  0.89088  0.71618  1.0000
  Cl  Cl14      1.0  0.52225  0.39088  0.78382  1.0000
  Cl  Cl15      1.0  0.52225  0.10912  0.28382  1.0000
  Cl  Cl16      1.0  0.47775  0.60912  0.21618  1.0000
  Cl  Cl17      1.0  0.58902  0.79725  0.88131  1.0000
  Cl  Cl18      1.0  0.41098  0.29725  0.61869  1.0000
  Cl  Cl19      1.0  0.41098  0.20275  0.11869  1.0000
  Cl  Cl20      1.0  0.58902  0.70275  0.38131  1.0000
  N   N1        1.0  0.26068  0.08920  0.68053  1.0000
  N   N2        1.0  0.73932  0.58920  0.81947  1.0000
  N   N3        1.0  0.73932  0.91080  0.31947  1.0000
  N   N4        1.0  0.26068  0.41080  0.18053  1.0000
  N   N5        1.0  0.21650  0.86746  0.67664  1.0000
  N   N6        1.0  0.78350  0.36746  0.82336  1.0000
  N   N7        1.0  0.78350  0.13254  0.32336  1.0000
  N   N8        1.0  0.21650  0.63254  0.17664  1.0000
  N   N9        1.0  0.70941  0.96816  0.88913  1.0000
  N   N10       1.0  0.29059  0.46816  0.61087  1.0000
  N   N11       1.0  0.29059  0.03184  0.11087  1.0000
  N   N12       1.0  0.70941  0.53184  0.38913  1.0000
  N   N13       1.0  0.89340  0.98102  0.11259  1.0000
  N   N14       1.0  0.10660  0.48102  0.38741  1.0000
  N   N15       1.0  0.10660  0.01898  0.88741  1.0000
  N   N16       1.0  0.89340  0.51898  0.61259  1.0000
  C   C1        1.0  0.18410  0.06710  0.62744  1.0000
  C   C2        1.0  0.81590  0.56710  0.87256  1.0000
  C   C3        1.0  0.81590  0.93290  0.37256  1.0000
  C   C4        1.0  0.18410  0.43290  0.12744  1.0000
  C   C5        1.0  0.08987  0.03384  0.56255  1.0000
  C   C6        1.0  0.91013  0.53384  0.93745  1.0000
  C   C7        1.0  0.91013  0.96616  0.43745  1.0000
  C   C8        1.0  0.08987  0.46616  0.06255  1.0000
  C   C9        1.0  0.07573  0.95265  0.56123  1.0000
  C   C10       1.0  0.92427  0.45265  0.93877  1.0000
  C   C11       1.0  0.92427  0.04735  0.43877  1.0000
  C   C12       1.0  0.07573  0.54735  0.06123  1.0000
  C   C13       1.0  0.15450  0.90456  0.62540  1.0000
  C   C14       1.0  0.84550  0.40456  0.87460  1.0000
  C   C15       1.0  0.84550  0.09544  0.37460  1.0000
  C   C16       1.0  0.15450  0.59544  0.12540  1.0000
  C   C17       1.0  0.01430  0.08098  0.50152  1.0000
  C   C18       1.0  0.98570  0.58098  0.99848  1.0000
  C   C19       1.0  0.98570  0.91902  0.49848  1.0000
  C   C20       1.0  0.01430  0.41902  0.00152  1.0000
  H   H1        1.0  0.02410  0.13470  0.50280  1.0000
  H   H2        1.0  0.97590  0.63470  0.99720  1.0000
  H   H3        1.0  0.97590  0.86530  0.49720  1.0000
  H   H4        1.0  0.02410  0.36530  0.00280  1.0000
  C   C21       1.0  0.79260  0.97727  0.91899  1.0000
  C   C22       1.0  0.20740  0.47727  0.58101  1.0000
  C   C23       1.0  0.20740  0.02273  0.08101  1.0000
  C   C24       1.0  0.79260  0.52273  0.41899  1.0000
  C   C25       1.0  0.89771  0.98852  0.95954  1.0000
  C   C26       1.0  0.10229  0.48852  0.54046  1.0000
  C   C27       1.0  0.10229  0.01148  0.04046  1.0000
  C   C28       1.0  0.89771  0.51148  0.45954  1.0000
  C   C29       1.0  0.96488  0.99348  0.04083  1.0000
  C   C30       1.0  0.03512  0.49348  0.45917  1.0000
  C   C31       1.0  0.03512  0.00652  0.95917  1.0000
  C   C32       1.0  0.96488  0.50652  0.54083  1.0000
  C   C33       1.0  0.93277  0.99559  0.91861  1.0000
  C   C34       1.0  0.06723  0.49559  0.58139  1.0000
  C   C35       1.0  0.06723  0.00441  0.08139  1.0000
  C   C36       1.0  0.93277  0.50441  0.41861  1.0000
  H   H5        1.0  0.88820  0.99300  0.86470  1.0000
  H   H6        1.0  0.11180  0.49300  0.63530  1.0000
  H   H7        1.0  0.11180  0.00700  0.13530  1.0000
  H   H8        1.0  0.88820  0.50700  0.36470  1.0000
  C   C37       1.0  0.92660  0.98616  0.08222  1.0000
  C   C38       1.0  0.07340  0.48616  0.41778  1.0000
  C   C39       1.0  0.07340  0.01384  0.91778  1.0000
  C   C40       1.0  0.92660  0.51384  0.58222  1.0000
