data_image0
_chemical_formula_structural       Eu16Cl8O32C16H8C8H8C16H8C8H8C16O32C16H8C8H8C16H8C8H8C16O16C12H8C8H8C12O16C16H8C8H8C8
_chemical_formula_sum              "Eu16 Cl8 O96 C192 H96"
_cell_length_a       19.1758
_cell_length_b       10.9867
_cell_length_c       33.4105
_cell_angle_alpha    90
_cell_angle_beta     103.273
_cell_angle_gamma    90

_space_group_name_H-M_alt    "P 1"
_space_group_IT_number       1

loop_
  _space_group_symop_operation_xyz
  'x, y, z'

loop_
  _atom_site_type_symbol
  _atom_site_label
  _atom_site_symmetry_multiplicity
  _atom_site_fract_x
  _atom_site_fract_y
  _atom_site_fract_z
  _atom_site_occupancy
  Eu  Eu1       1.0  0.01301  0.18479  0.18668  1.0000
  Eu  Eu2       1.0  0.98699  0.18479  0.31332  1.0000
  Eu  Eu3       1.0  0.51301  0.68479  0.18668  1.0000
  Eu  Eu4       1.0  0.48699  0.68479  0.31332  1.0000
  Eu  Eu5       1.0  0.98699  0.81521  0.81332  1.0000
  Eu  Eu6       1.0  0.01301  0.81521  0.68668  1.0000
  Eu  Eu7       1.0  0.48699  0.31521  0.81332  1.0000
  Eu  Eu8       1.0  0.51301  0.31521  0.68668  1.0000
  Eu  Eu9       1.0  0.00349  0.05911  0.05576  1.0000
  Eu  Eu10      1.0  0.99651  0.05911  0.44424  1.0000
  Eu  Eu11      1.0  0.50349  0.55911  0.05576  1.0000
  Eu  Eu12      1.0  0.49651  0.55911  0.44424  1.0000
  Eu  Eu13      1.0  0.99651  0.94089  0.94424  1.0000
  Eu  Eu14      1.0  0.00349  0.94089  0.55576  1.0000
  Eu  Eu15      1.0  0.49651  0.44089  0.94424  1.0000
  Eu  Eu16      1.0  0.50349  0.44089  0.55576  1.0000
  Cl  Cl1       1.0  0.92194  0.08659  0.11528  1.0000
  Cl  Cl2       1.0  0.07806  0.08659  0.38472  1.0000
  Cl  Cl3       1.0  0.42194  0.58659  0.11528  1.0000
  Cl  Cl4       1.0  0.57806  0.58659  0.38472  1.0000
  Cl  Cl5       1.0  0.07806  0.91341  0.88472  1.0000
  Cl  Cl6       1.0  0.92194  0.91341  0.61528  1.0000
  Cl  Cl7       1.0  0.57806  0.41341  0.88472  1.0000
  Cl  Cl8       1.0  0.42194  0.41341  0.61528  1.0000
  O   O1        1.0  0.03180  0.33670  0.13901  1.0000
  O   O2        1.0  0.96820  0.33670  0.36099  1.0000
  O   O3        1.0  0.53180  0.83670  0.13901  1.0000
  O   O4        1.0  0.46820  0.83670  0.36099  1.0000
  O   O5        1.0  0.96820  0.66330  0.86099  1.0000
  O   O6        1.0  0.03180  0.66330  0.63901  1.0000
  O   O7        1.0  0.46820  0.16330  0.86099  1.0000
  O   O8        1.0  0.53180  0.16330  0.63901  1.0000
  O   O9        1.0  0.05630  0.23760  0.08591  1.0000
  O   O10       1.0  0.94370  0.23760  0.41409  1.0000
  O   O11       1.0  0.55630  0.73760  0.08591  1.0000
  O   O12       1.0  0.44370  0.73760  0.41409  1.0000
  O   O13       1.0  0.94370  0.76240  0.91409  1.0000
  O   O14       1.0  0.05630  0.76240  0.58591  1.0000
  O   O15       1.0  0.44370  0.26240  0.91409  1.0000
  O   O16       1.0  0.55630  0.26240  0.58591  1.0000
  O   O17       1.0  0.01880  0.87080  0.01979  1.0000
  O   O18       1.0  0.98120  0.87080  0.48021  1.0000
  O   O19       1.0  0.51880  0.37080  0.01979  1.0000
  O   O20       1.0  0.48120  0.37080  0.48021  1.0000
  O   O21       1.0  0.98120  0.12920  0.98021  1.0000
  O   O22       1.0  0.01880  0.12920  0.51979  1.0000
  O   O23       1.0  0.48120  0.62920  0.98021  1.0000
  O   O24       1.0  0.51880  0.62920  0.51979  1.0000
  O   O25       1.0  0.07220  0.76830  0.97866  1.0000
  O   O26       1.0  0.92780  0.76830  0.52134  1.0000
  O   O27       1.0  0.57220  0.26830  0.97866  1.0000
  O   O28       1.0  0.42780  0.26830  0.52134  1.0000
  O   O29       1.0  0.92780  0.23170  0.02134  1.0000
  O   O30       1.0  0.07220  0.23170  0.47866  1.0000
  O   O31       1.0  0.42780  0.73170  0.02134  1.0000
  O   O32       1.0  0.57220  0.73170  0.47866  1.0000
  C   C1        1.0  0.05410  0.45280  0.08284  1.0000
  C   C2        1.0  0.94590  0.45280  0.41716  1.0000
  C   C3        1.0  0.55410  0.95280  0.08284  1.0000
  C   C4        1.0  0.44590  0.95280  0.41716  1.0000
  C   C5        1.0  0.94590  0.54720  0.91716  1.0000
  C   C6        1.0  0.05410  0.54720  0.58284  1.0000
  C   C7        1.0  0.44590  0.04720  0.91716  1.0000
  C   C8        1.0  0.55410  0.04720  0.58284  1.0000
  C   C9        1.0  0.03330  0.56090  0.09700  1.0000
  C   C10       1.0  0.96670  0.56090  0.40300  1.0000
  C   C11       1.0  0.53330  0.06090  0.09700  1.0000
  C   C12       1.0  0.46670  0.06090  0.40300  1.0000
  C   C13       1.0  0.96670  0.43910  0.90300  1.0000
  C   C14       1.0  0.03330  0.43910  0.59700  1.0000
  C   C15       1.0  0.46670  0.93910  0.90300  1.0000
  C   C16       1.0  0.53330  0.93910  0.59700  1.0000
  H   H1        1.0  0.01960  0.56350  0.12190  1.0000
  H   H2        1.0  0.98040  0.56350  0.37810  1.0000
  H   H3        1.0  0.51960  0.06350  0.12190  1.0000
  H   H4        1.0  0.48040  0.06350  0.37810  1.0000
  H   H5        1.0  0.98040  0.43650  0.87810  1.0000
  H   H6        1.0  0.01960  0.43650  0.62190  1.0000
  H   H7        1.0  0.48040  0.93650  0.87810  1.0000
  H   H8        1.0  0.51960  0.93650  0.62190  1.0000
  C   C17       1.0  0.03290  0.66720  0.07400  1.0000
  C   C18       1.0  0.96710  0.66720  0.42600  1.0000
  C   C19       1.0  0.53290  0.16720  0.07400  1.0000
  C   C20       1.0  0.46710  0.16720  0.42600  1.0000
  C   C21       1.0  0.96710  0.33280  0.92600  1.0000
  C   C22       1.0  0.03290  0.33280  0.57400  1.0000
  C   C23       1.0  0.46710  0.83280  0.92600  1.0000
  C   C24       1.0  0.53290  0.83280  0.57400  1.0000
  H   H9        1.0  0.01590  0.73930  0.08290  1.0000
  H   H10       1.0  0.98410  0.73930  0.41710  1.0000
  H   H11       1.0  0.51590  0.23930  0.08290  1.0000
  H   H12       1.0  0.48410  0.23930  0.41710  1.0000
  H   H13       1.0  0.98410  0.26070  0.91710  1.0000
  H   H14       1.0  0.01590  0.26070  0.58290  1.0000
  H   H15       1.0  0.48410  0.76070  0.91710  1.0000
  H   H16       1.0  0.51590  0.76070  0.58290  1.0000
  C   C25       1.0  0.05700  0.66610  0.03870  1.0000
  C   C26       1.0  0.94300  0.66610  0.46130  1.0000
  C   C27       1.0  0.55700  0.16610  0.03870  1.0000
  C   C28       1.0  0.44300  0.16610  0.46130  1.0000
  C   C29       1.0  0.94300  0.33390  0.96130  1.0000
  C   C30       1.0  0.05700  0.33390  0.53870  1.0000
  C   C31       1.0  0.44300  0.83390  0.96130  1.0000
  C   C32       1.0  0.55700  0.83390  0.53870  1.0000
  C   C33       1.0  0.08080  0.55700  0.02540  1.0000
  C   C34       1.0  0.91920  0.55700  0.47460  1.0000
  C   C35       1.0  0.58080  0.05700  0.02540  1.0000
  C   C36       1.0  0.41920  0.05700  0.47460  1.0000
  C   C37       1.0  0.91920  0.44300  0.97460  1.0000
  C   C38       1.0  0.08080  0.44300  0.52540  1.0000
  C   C39       1.0  0.41920  0.94300  0.97460  1.0000
  C   C40       1.0  0.58080  0.94300  0.52540  1.0000
  H   H17       1.0  0.09840  0.55560  0.00170  1.0000
  H   H18       1.0  0.90160  0.55560  0.49830  1.0000
  H   H19       1.0  0.59840  0.05560  0.00170  1.0000
  H   H20       1.0  0.40160  0.05560  0.49830  1.0000
  H   H21       1.0  0.90160  0.44440  0.99830  1.0000
  H   H22       1.0  0.09840  0.44440  0.50170  1.0000
  H   H23       1.0  0.40160  0.94440  0.99830  1.0000
  H   H24       1.0  0.59840  0.94440  0.50170  1.0000
  C   C41       1.0  0.07830  0.45110  0.04710  1.0000
  C   C42       1.0  0.92170  0.45110  0.45290  1.0000
  C   C43       1.0  0.57830  0.95110  0.04710  1.0000
  C   C44       1.0  0.42170  0.95110  0.45290  1.0000
  C   C45       1.0  0.92170  0.54890  0.95290  1.0000
  C   C46       1.0  0.07830  0.54890  0.54710  1.0000
  C   C47       1.0  0.42170  0.04890  0.95290  1.0000
  C   C48       1.0  0.57830  0.04890  0.54710  1.0000
  H   H25       1.0  0.09310  0.37810  0.03760  1.0000
  H   H26       1.0  0.90690  0.37810  0.46240  1.0000
  H   H27       1.0  0.59310  0.87810  0.03760  1.0000
  H   H28       1.0  0.40690  0.87810  0.46240  1.0000
  H   H29       1.0  0.90690  0.62190  0.96240  1.0000
  H   H30       1.0  0.09310  0.62190  0.53760  1.0000
  H   H31       1.0  0.40690  0.12190  0.96240  1.0000
  H   H32       1.0  0.59310  0.12190  0.53760  1.0000
  C   C49       1.0  0.04730  0.33370  0.10440  1.0000
  C   C50       1.0  0.95270  0.33370  0.39560  1.0000
  C   C51       1.0  0.54730  0.83370  0.10440  1.0000
  C   C52       1.0  0.45270  0.83370  0.39560  1.0000
  C   C53       1.0  0.95270  0.66630  0.89560  1.0000
  C   C54       1.0  0.04730  0.66630  0.60440  1.0000
  C   C55       1.0  0.45270  0.16630  0.89560  1.0000
  C   C56       1.0  0.54730  0.16630  0.60440  1.0000
  C   C57       1.0  0.05110  0.77510  0.01110  1.0000
  C   C58       1.0  0.94890  0.77510  0.48890  1.0000
  C   C59       1.0  0.55110  0.27510  0.01110  1.0000
  C   C60       1.0  0.44890  0.27510  0.48890  1.0000
  C   C61       1.0  0.94890  0.22490  0.98890  1.0000
  C   C62       1.0  0.05110  0.22490  0.51110  1.0000
  C   C63       1.0  0.44890  0.72490  0.98890  1.0000
  C   C64       1.0  0.55110  0.72490  0.51110  1.0000
  O   O33       1.0  0.09600  0.07370  0.16113  1.0000
  O   O34       1.0  0.90400  0.07370  0.33887  1.0000
  O   O35       1.0  0.59600  0.57370  0.16113  1.0000
  O   O36       1.0  0.40400  0.57370  0.33887  1.0000
  O   O37       1.0  0.90400  0.92630  0.83887  1.0000
  O   O38       1.0  0.09600  0.92630  0.66113  1.0000
  O   O39       1.0  0.40400  0.42630  0.83887  1.0000
  O   O40       1.0  0.59600  0.42630  0.66113  1.0000
  O   O41       1.0  0.07910  0.94780  0.10800  1.0000
  O   O42       1.0  0.92090  0.94780  0.39200  1.0000
  O   O43       1.0  0.57910  0.44780  0.10800  1.0000
  O   O44       1.0  0.42090  0.44780  0.39200  1.0000
  O   O45       1.0  0.92090  0.05220  0.89200  1.0000
  O   O46       1.0  0.07910  0.05220  0.60800  1.0000
  O   O47       1.0  0.42090  0.55220  0.89200  1.0000
  O   O48       1.0  0.57910  0.55220  0.60800  1.0000
  O   O49       1.0  0.38110  0.72000  0.26413  1.0000
  O   O50       1.0  0.61890  0.72000  0.23587  1.0000
  O   O51       1.0  0.88110  0.22000  0.26413  1.0000
  O   O52       1.0  0.11890  0.22000  0.23587  1.0000
  O   O53       1.0  0.61890  0.28000  0.73587  1.0000
  O   O54       1.0  0.38110  0.28000  0.76413  1.0000
  O   O55       1.0  0.11890  0.78000  0.73587  1.0000
  O   O56       1.0  0.88110  0.78000  0.76413  1.0000
  O   O57       1.0  0.40140  0.67700  0.20280  1.0000
  O   O58       1.0  0.59860  0.67700  0.29720  1.0000
  O   O59       1.0  0.90140  0.17700  0.20280  1.0000
  O   O60       1.0  0.09860  0.17700  0.29720  1.0000
  O   O61       1.0  0.59860  0.32300  0.79720  1.0000
  O   O62       1.0  0.40140  0.32300  0.70280  1.0000
  O   O63       1.0  0.09860  0.82300  0.79720  1.0000
  O   O64       1.0  0.90140  0.82300  0.70280  1.0000
  C   C65       1.0  0.17150  0.90270  0.16647  1.0000
  C   C66       1.0  0.82850  0.90270  0.33353  1.0000
  C   C67       1.0  0.67150  0.40270  0.16647  1.0000
  C   C68       1.0  0.32850  0.40270  0.33353  1.0000
  C   C69       1.0  0.82850  0.09730  0.83353  1.0000
  C   C70       1.0  0.17150  0.09730  0.66647  1.0000
  C   C71       1.0  0.32850  0.59730  0.83353  1.0000
  C   C72       1.0  0.67150  0.59730  0.66647  1.0000
  C   C73       1.0  0.19830  0.80880  0.14630  1.0000
  C   C74       1.0  0.80170  0.80880  0.35370  1.0000
  C   C75       1.0  0.69830  0.30880  0.14630  1.0000
  C   C76       1.0  0.30170  0.30880  0.35370  1.0000
  C   C77       1.0  0.80170  0.19120  0.85370  1.0000
  C   C78       1.0  0.19830  0.19120  0.64630  1.0000
  C   C79       1.0  0.30170  0.69120  0.85370  1.0000
  C   C80       1.0  0.69830  0.69120  0.64630  1.0000
  H   H33       1.0  0.17430  0.78600  0.12000  1.0000
  H   H34       1.0  0.82570  0.78600  0.38000  1.0000
  H   H35       1.0  0.67430  0.28600  0.12000  1.0000
  H   H36       1.0  0.32570  0.28600  0.38000  1.0000
  H   H37       1.0  0.82570  0.21400  0.88000  1.0000
  H   H38       1.0  0.17430  0.21400  0.62000  1.0000
  H   H39       1.0  0.32570  0.71400  0.88000  1.0000
  H   H40       1.0  0.67430  0.71400  0.62000  1.0000
  C   C81       1.0  0.26030  0.74970  0.16540  1.0000
  C   C82       1.0  0.73970  0.74970  0.33460  1.0000
  C   C83       1.0  0.76030  0.24970  0.16540  1.0000
  C   C84       1.0  0.23970  0.24970  0.33460  1.0000
  C   C85       1.0  0.73970  0.25030  0.83460  1.0000
  C   C86       1.0  0.26030  0.25030  0.66540  1.0000
  C   C87       1.0  0.23970  0.75030  0.83460  1.0000
  C   C88       1.0  0.76030  0.75030  0.66540  1.0000
  H   H41       1.0  0.27940  0.68990  0.15140  1.0000
  H   H42       1.0  0.72060  0.68990  0.34860  1.0000
  H   H43       1.0  0.77940  0.18990  0.15140  1.0000
  H   H44       1.0  0.22060  0.18990  0.34860  1.0000
  H   H45       1.0  0.72060  0.31010  0.84860  1.0000
  H   H46       1.0  0.27940  0.31010  0.65140  1.0000
  H   H47       1.0  0.22060  0.81010  0.84860  1.0000
  H   H48       1.0  0.77940  0.81010  0.65140  1.0000
  C   C89       1.0  0.29400  0.77850  0.20510  1.0000
  C   C90       1.0  0.70600  0.77850  0.29490  1.0000
  C   C91       1.0  0.79400  0.27850  0.20510  1.0000
  C   C92       1.0  0.20600  0.27850  0.29490  1.0000
  C   C93       1.0  0.70600  0.22150  0.79490  1.0000
  C   C94       1.0  0.29400  0.22150  0.70510  1.0000
  C   C95       1.0  0.20600  0.72150  0.79490  1.0000
  C   C96       1.0  0.79400  0.72150  0.70510  1.0000
  C   C97       1.0  0.26510  0.86800  0.22600  1.0000
  C   C98       1.0  0.73490  0.86800  0.27400  1.0000
  C   C99       1.0  0.76510  0.36800  0.22600  1.0000
  C   C100      1.0  0.23490  0.36800  0.27400  1.0000
  C   C101      1.0  0.73490  0.13200  0.77400  1.0000
  C   C102      1.0  0.26510  0.13200  0.72600  1.0000
  C   C103      1.0  0.23490  0.63200  0.77400  1.0000
  C   C104      1.0  0.76510  0.63200  0.72600  1.0000
  H   H49       1.0  0.28680  0.88590  0.25320  1.0000
  H   H50       1.0  0.71320  0.88590  0.24680  1.0000
  H   H51       1.0  0.78680  0.38590  0.25320  1.0000
  H   H52       1.0  0.21320  0.38590  0.24680  1.0000
  H   H53       1.0  0.71320  0.11410  0.74680  1.0000
  H   H54       1.0  0.28680  0.11410  0.75320  1.0000
  H   H55       1.0  0.21320  0.61410  0.74680  1.0000
  H   H56       1.0  0.78680  0.61410  0.75320  1.0000
  C   C105      1.0  0.20450  0.92990  0.20650  1.0000
  C   C106      1.0  0.79550  0.92990  0.29350  1.0000
  C   C107      1.0  0.70450  0.42990  0.20650  1.0000
  C   C108      1.0  0.29550  0.42990  0.29350  1.0000
  C   C109      1.0  0.79550  0.07010  0.79350  1.0000
  C   C110      1.0  0.20450  0.07010  0.70650  1.0000
  C   C111      1.0  0.29550  0.57010  0.79350  1.0000
  C   C112      1.0  0.70450  0.57010  0.70650  1.0000
  H   H57       1.0  0.18570  0.99040  0.22040  1.0000
  H   H58       1.0  0.81430  0.99040  0.27960  1.0000
  H   H59       1.0  0.68570  0.49040  0.22040  1.0000
  H   H60       1.0  0.31430  0.49040  0.27960  1.0000
  H   H61       1.0  0.81430  0.00960  0.77960  1.0000
  H   H62       1.0  0.18570  0.00960  0.72040  1.0000
  H   H63       1.0  0.31430  0.50960  0.77960  1.0000
  H   H64       1.0  0.68570  0.50960  0.72040  1.0000
  C   C113      1.0  0.10990  0.98000  0.14394  1.0000
  C   C114      1.0  0.89010  0.98000  0.35606  1.0000
  C   C115      1.0  0.60990  0.48000  0.14394  1.0000
  C   C116      1.0  0.39010  0.48000  0.35606  1.0000
  C   C117      1.0  0.89010  0.02000  0.85606  1.0000
  C   C118      1.0  0.10990  0.02000  0.64394  1.0000
  C   C119      1.0  0.39010  0.52000  0.85606  1.0000
  C   C120      1.0  0.60990  0.52000  0.64394  1.0000
  C   C121      1.0  0.36390  0.72030  0.22570  1.0000
  C   C122      1.0  0.63610  0.72030  0.27430  1.0000
  C   C123      1.0  0.86390  0.22030  0.22570  1.0000
  C   C124      1.0  0.13610  0.22030  0.27430  1.0000
  C   C125      1.0  0.63610  0.27970  0.77430  1.0000
  C   C126      1.0  0.36390  0.27970  0.72570  1.0000
  C   C127      1.0  0.13610  0.77970  0.77430  1.0000
  C   C128      1.0  0.86390  0.77970  0.72570  1.0000
  O   O65       1.0  0.99630  0.37340  0.21641  1.0000
  O   O66       1.0  0.00370  0.37340  0.28359  1.0000
  O   O67       1.0  0.49630  0.87340  0.21641  1.0000
  O   O68       1.0  0.50370  0.87340  0.28359  1.0000
  O   O69       1.0  0.00370  0.62660  0.78359  1.0000
  O   O70       1.0  0.99630  0.62660  0.71641  1.0000
  O   O71       1.0  0.50370  0.12660  0.78359  1.0000
  O   O72       1.0  0.49630  0.12660  0.71641  1.0000
  O   O73       1.0  0.01800  0.00020  0.22042  1.0000
  O   O74       1.0  0.98200  0.00020  0.27958  1.0000
  O   O75       1.0  0.51800  0.50020  0.22042  1.0000
  O   O76       1.0  0.48200  0.50020  0.27958  1.0000
  O   O77       1.0  0.98200  0.99980  0.77958  1.0000
  O   O78       1.0  0.01800  0.99980  0.72042  1.0000
  O   O79       1.0  0.48200  0.49980  0.77958  1.0000
  O   O80       1.0  0.51800  0.49980  0.72042  1.0000
  C   C129      1.0  0.00000  0.56110  0.25000  1.0000
  C   C130      1.0  0.50000  0.06110  0.25000  1.0000
  C   C131      1.0  0.00000  0.43890  0.75000  1.0000
  C   C132      1.0  0.50000  0.93890  0.75000  1.0000
  C   C133      1.0  0.02830  0.62350  0.22170  1.0000
  C   C134      1.0  0.97170  0.62350  0.27830  1.0000
  C   C135      1.0  0.52830  0.12350  0.22170  1.0000
  C   C136      1.0  0.47170  0.12350  0.27830  1.0000
  C   C137      1.0  0.97170  0.37650  0.77830  1.0000
  C   C138      1.0  0.02830  0.37650  0.72170  1.0000
  C   C139      1.0  0.47170  0.87650  0.77830  1.0000
  C   C140      1.0  0.52830  0.87650  0.72170  1.0000
  H   H65       1.0  0.04700  0.58100  0.20240  1.0000
  H   H66       1.0  0.95300  0.58100  0.29760  1.0000
  H   H67       1.0  0.54700  0.08100  0.20240  1.0000
  H   H68       1.0  0.45300  0.08100  0.29760  1.0000
  H   H69       1.0  0.95300  0.41900  0.79760  1.0000
  H   H70       1.0  0.04700  0.41900  0.70240  1.0000
  H   H71       1.0  0.45300  0.91900  0.79760  1.0000
  H   H72       1.0  0.54700  0.91900  0.70240  1.0000
  C   C141      1.0  0.02900  0.75010  0.22180  1.0000
  C   C142      1.0  0.97100  0.75010  0.27820  1.0000
  C   C143      1.0  0.52900  0.25010  0.22180  1.0000
  C   C144      1.0  0.47100  0.25010  0.27820  1.0000
  C   C145      1.0  0.97100  0.24990  0.77820  1.0000
  C   C146      1.0  0.02900  0.24990  0.72180  1.0000
  C   C147      1.0  0.47100  0.74990  0.77820  1.0000
  C   C148      1.0  0.52900  0.74990  0.72180  1.0000
  H   H73       1.0  0.04890  0.79230  0.20310  1.0000
  H   H74       1.0  0.95110  0.79230  0.29690  1.0000
  H   H75       1.0  0.54890  0.29230  0.20310  1.0000
  H   H76       1.0  0.45110  0.29230  0.29690  1.0000
  H   H77       1.0  0.95110  0.20770  0.79690  1.0000
  H   H78       1.0  0.04890  0.20770  0.70310  1.0000
  H   H79       1.0  0.45110  0.70770  0.79690  1.0000
  H   H80       1.0  0.54890  0.70770  0.70310  1.0000
  C   C149      1.0  0.00000  0.81270  0.25000  1.0000
  C   C150      1.0  0.50000  0.31270  0.25000  1.0000
  C   C151      1.0  0.00000  0.18730  0.75000  1.0000
  C   C152      1.0  0.50000  0.68730  0.75000  1.0000
  C   C153      1.0  0.00000  0.42460  0.25000  1.0000
  C   C154      1.0  0.50000  0.92460  0.25000  1.0000
  C   C155      1.0  0.00000  0.57540  0.75000  1.0000
  C   C156      1.0  0.50000  0.07540  0.75000  1.0000
  C   C157      1.0  0.00000  0.94910  0.25000  1.0000
  C   C158      1.0  0.50000  0.44910  0.25000  1.0000
  C   C159      1.0  0.00000  0.05090  0.75000  1.0000
  C   C160      1.0  0.50000  0.55090  0.75000  1.0000
  O   O81       1.0  0.89320  0.96970  0.02806  1.0000
  O   O82       1.0  0.10680  0.96970  0.47194  1.0000
  O   O83       1.0  0.39320  0.46970  0.02806  1.0000
  O   O84       1.0  0.60680  0.46970  0.47194  1.0000
  O   O85       1.0  0.10680  0.03030  0.97194  1.0000
  O   O86       1.0  0.89320  0.03030  0.52806  1.0000
  O   O87       1.0  0.60680  0.53030  0.97194  1.0000
  O   O88       1.0  0.39320  0.53030  0.52806  1.0000
  O   O89       1.0  0.88390  0.92110  0.96224  1.0000
  O   O90       1.0  0.11610  0.92110  0.53776  1.0000
  O   O91       1.0  0.38390  0.42110  0.96224  1.0000
  O   O92       1.0  0.61610  0.42110  0.53776  1.0000
  O   O93       1.0  0.11610  0.07890  0.03776  1.0000
  O   O94       1.0  0.88390  0.07890  0.46224  1.0000
  O   O95       1.0  0.61610  0.57890  0.03776  1.0000
  O   O96       1.0  0.38390  0.57890  0.46224  1.0000
  C   C161      1.0  0.80490  0.82880  0.99770  1.0000
  C   C162      1.0  0.19510  0.82880  0.50230  1.0000
  C   C163      1.0  0.30490  0.32880  0.99770  1.0000
  C   C164      1.0  0.69510  0.32880  0.50230  1.0000
  C   C165      1.0  0.19510  0.17120  0.00230  1.0000
  C   C166      1.0  0.80490  0.17120  0.49770  1.0000
  C   C167      1.0  0.69510  0.67120  0.00230  1.0000
  C   C168      1.0  0.30490  0.67120  0.49770  1.0000
  C   C169      1.0  0.77530  0.83110  0.03200  1.0000
  C   C170      1.0  0.22470  0.83110  0.46800  1.0000
  C   C171      1.0  0.27530  0.33110  0.03200  1.0000
  C   C172      1.0  0.72470  0.33110  0.46800  1.0000
  C   C173      1.0  0.22470  0.16890  0.96800  1.0000
  C   C174      1.0  0.77530  0.16890  0.53200  1.0000
  C   C175      1.0  0.72470  0.66890  0.96800  1.0000
  C   C176      1.0  0.27530  0.66890  0.53200  1.0000
  H   H81       1.0  0.79230  0.88530  0.05340  1.0000
  H   H82       1.0  0.20770  0.88530  0.44660  1.0000
  H   H83       1.0  0.29230  0.38530  0.05340  1.0000
  H   H84       1.0  0.70770  0.38530  0.44660  1.0000
  H   H85       1.0  0.20770  0.11470  0.94660  1.0000
  H   H86       1.0  0.79230  0.11470  0.55340  1.0000
  H   H87       1.0  0.70770  0.61470  0.94660  1.0000
  H   H88       1.0  0.29230  0.61470  0.55340  1.0000
  C   C177      1.0  0.77960  0.74860  0.96620  1.0000
  C   C178      1.0  0.22040  0.74860  0.53380  1.0000
  C   C179      1.0  0.27960  0.24860  0.96620  1.0000
  C   C180      1.0  0.72040  0.24860  0.53380  1.0000
  C   C181      1.0  0.22040  0.25140  0.03380  1.0000
  C   C182      1.0  0.77960  0.25140  0.46620  1.0000
  C   C183      1.0  0.72040  0.75140  0.03380  1.0000
  C   C184      1.0  0.27960  0.75140  0.46620  1.0000
  H   H89       1.0  0.79960  0.74800  0.94340  1.0000
  H   H90       1.0  0.20040  0.74800  0.55660  1.0000
  H   H91       1.0  0.29960  0.24800  0.94340  1.0000
  H   H92       1.0  0.70040  0.24800  0.55660  1.0000
  H   H93       1.0  0.20040  0.25200  0.05660  1.0000
  H   H94       1.0  0.79960  0.25200  0.44340  1.0000
  H   H95       1.0  0.70040  0.75200  0.05660  1.0000
  H   H96       1.0  0.29960  0.75200  0.44340  1.0000
  C   C185      1.0  0.86560  0.91300  0.99600  1.0000
  C   C186      1.0  0.13440  0.91300  0.50400  1.0000
  C   C187      1.0  0.36560  0.41300  0.99600  1.0000
  C   C188      1.0  0.63440  0.41300  0.50400  1.0000
  C   C189      1.0  0.13440  0.08700  0.00400  1.0000
  C   C190      1.0  0.86560  0.08700  0.49600  1.0000
  C   C191      1.0  0.63440  0.58700  0.00400  1.0000
  C   C192      1.0  0.36560  0.58700  0.49600  1.0000
