data_image0
_chemical_formula_structural       Eu8Cl4O48C8H4C4H4C8H4C4H4C16H4C4H4C8H4C4H4C16H4C4H4C12H4C4H4C4
_chemical_formula_sum              "Eu8 Cl4 O48 C96 H48"
_cell_length_a       12.0317
_cell_length_b       19.515
_cell_length_c       17.2834
_cell_angle_alpha    90
_cell_angle_beta     122.332
_cell_angle_gamma    90

_space_group_name_H-M_alt    "P 1"
_space_group_IT_number       1

loop_
  _space_group_symop_operation_xyz
  'x, y, z'

loop_
  _atom_site_type_symbol
  _atom_site_label
  _atom_site_symmetry_multiplicity
  _atom_site_fract_x
  _atom_site_fract_y
  _atom_site_fract_z
  _atom_site_occupancy
  Eu  Eu1       1.0  0.73544  0.73014  0.55654  1.0000
  Eu  Eu2       1.0  0.26456  0.23014  0.94346  1.0000
  Eu  Eu3       1.0  0.26456  0.26986  0.44346  1.0000
  Eu  Eu4       1.0  0.73544  0.76986  0.05654  1.0000
  Eu  Eu5       1.0  0.68554  0.76747  0.76588  1.0000
  Eu  Eu6       1.0  0.31446  0.26747  0.73412  1.0000
  Eu  Eu7       1.0  0.31446  0.23253  0.23412  1.0000
  Eu  Eu8       1.0  0.68554  0.73253  0.26588  1.0000
  Cl  Cl1       1.0  0.76445  0.80849  0.42863  1.0000
  Cl  Cl2       1.0  0.23555  0.30849  0.07137  1.0000
  Cl  Cl3       1.0  0.23555  0.19151  0.57137  1.0000
  Cl  Cl4       1.0  0.76445  0.69151  0.92863  1.0000
  O   O1        1.0  0.44590  0.31177  0.57450  1.0000
  O   O2        1.0  0.55410  0.81177  0.92550  1.0000
  O   O3        1.0  0.55410  0.68823  0.42550  1.0000
  O   O4        1.0  0.44590  0.18823  0.07450  1.0000
  O   O5        1.0  0.45710  0.32708  0.70510  1.0000
  O   O6        1.0  0.54290  0.82708  0.79490  1.0000
  O   O7        1.0  0.54290  0.67292  0.29490  1.0000
  O   O8        1.0  0.45710  0.17292  0.20510  1.0000
  O   O9        1.0  0.71210  0.65130  0.74390  1.0000
  O   O10       1.0  0.28790  0.15130  0.75610  1.0000
  O   O11       1.0  0.28790  0.34870  0.25610  1.0000
  O   O12       1.0  0.71210  0.84870  0.24390  1.0000
  O   O13       1.0  0.74880  0.62847  0.63380  1.0000
  O   O14       1.0  0.25120  0.12847  0.86620  1.0000
  O   O15       1.0  0.25120  0.37153  0.36620  1.0000
  O   O16       1.0  0.74880  0.87153  0.13380  1.0000
  O   O17       1.0  0.96250  0.75100  0.16990  1.0000
  O   O18       1.0  0.03750  0.25100  0.33010  1.0000
  O   O19       1.0  0.03750  0.24900  0.83010  1.0000
  O   O20       1.0  0.96250  0.74900  0.66990  1.0000
  O   O21       1.0  0.86240  0.73581  0.24340  1.0000
  O   O22       1.0  0.13760  0.23581  0.25660  1.0000
  O   O23       1.0  0.13760  0.26419  0.75660  1.0000
  O   O24       1.0  0.86240  0.76419  0.74340  1.0000
  O   O25       1.0  0.45790  0.72680  0.65700  1.0000
  O   O26       1.0  0.54210  0.22680  0.84300  1.0000
  O   O27       1.0  0.54210  0.27320  0.34300  1.0000
  O   O28       1.0  0.45790  0.77320  0.15700  1.0000
  O   O29       1.0  0.56790  0.73933  0.59030  1.0000
  O   O30       1.0  0.43210  0.23933  0.90970  1.0000
  O   O31       1.0  0.43210  0.26067  0.40970  1.0000
  O   O32       1.0  0.56790  0.76067  0.09030  1.0000
  O   O33       1.0  0.83560  0.65258  0.51030  1.0000
  O   O34       1.0  0.16440  0.15258  0.98970  1.0000
  O   O35       1.0  0.16440  0.34742  0.48970  1.0000
  O   O36       1.0  0.83560  0.84742  0.01030  1.0000
  O   O37       1.0  0.82430  0.65444  0.37830  1.0000
  O   O38       1.0  0.17570  0.15444  0.12170  1.0000
  O   O39       1.0  0.17570  0.34556  0.62170  1.0000
  O   O40       1.0  0.82430  0.84556  0.87830  1.0000
  O   O41       1.0  0.64250  0.86825  0.67570  1.0000
  O   O42       1.0  0.35750  0.36825  0.82430  1.0000
  O   O43       1.0  0.35750  0.13175  0.32430  1.0000
  O   O44       1.0  0.64250  0.63175  0.17570  1.0000
  O   O45       1.0  0.69990  0.84567  0.57530  1.0000
  O   O46       1.0  0.30010  0.34567  0.92470  1.0000
  O   O47       1.0  0.30010  0.15433  0.42470  1.0000
  O   O48       1.0  0.69990  0.65433  0.07530  1.0000
  C   C1        1.0  0.53610  0.41520  0.65400  1.0000
  C   C2        1.0  0.46390  0.91520  0.84600  1.0000
  C   C3        1.0  0.46390  0.58480  0.34600  1.0000
  C   C4        1.0  0.53610  0.08480  0.15400  1.0000
  C   C5        1.0  0.53420  0.46340  0.71220  1.0000
  C   C6        1.0  0.46580  0.96340  0.78780  1.0000
  C   C7        1.0  0.46580  0.53660  0.28780  1.0000
  C   C8        1.0  0.53420  0.03660  0.21220  1.0000
  H   H1        1.0  0.49490  0.45290  0.74460  1.0000
  H   H2        1.0  0.50510  0.95290  0.75540  1.0000
  H   H3        1.0  0.50510  0.54710  0.25540  1.0000
  H   H4        1.0  0.49490  0.04710  0.24460  1.0000
  C   C9        1.0  0.59020  0.52710  0.72170  1.0000
  C   C10       1.0  0.40980  0.02710  0.77830  1.0000
  C   C11       1.0  0.40980  0.47290  0.27830  1.0000
  C   C12       1.0  0.59020  0.97290  0.22170  1.0000
  H   H5        1.0  0.58900  0.55930  0.76100  1.0000
  H   H6        1.0  0.41100  0.05930  0.73900  1.0000
  H   H7        1.0  0.41100  0.44070  0.23900  1.0000
  H   H8        1.0  0.58900  0.94070  0.26100  1.0000
  C   C13       1.0  0.64860  0.54340  0.67350  1.0000
  C   C14       1.0  0.35140  0.04340  0.82650  1.0000
  C   C15       1.0  0.35140  0.45660  0.32650  1.0000
  C   C16       1.0  0.64860  0.95660  0.17350  1.0000
  C   C17       1.0  0.64930  0.49560  0.61530  1.0000
  C   C18       1.0  0.35070  0.99560  0.88470  1.0000
  C   C19       1.0  0.35070  0.50440  0.38470  1.0000
  C   C20       1.0  0.64930  0.00440  0.11530  1.0000
  H   H9        1.0  0.68790  0.50640  0.58240  1.0000
  H   H10       1.0  0.31210  0.00640  0.91760  1.0000
  H   H11       1.0  0.31210  0.49360  0.41760  1.0000
  H   H12       1.0  0.68790  0.99360  0.08240  1.0000
  C   C21       1.0  0.59340  0.43170  0.60500  1.0000
  C   C22       1.0  0.40660  0.93170  0.89500  1.0000
  C   C23       1.0  0.40660  0.56830  0.39500  1.0000
  C   C24       1.0  0.59340  0.06830  0.10500  1.0000
  H   H13       1.0  0.59430  0.39980  0.56540  1.0000
  H   H14       1.0  0.40570  0.89980  0.93460  1.0000
  H   H15       1.0  0.40570  0.60020  0.43460  1.0000
  H   H16       1.0  0.59430  0.10020  0.06540  1.0000
  C   C25       1.0  0.47410  0.34660  0.64380  1.0000
  C   C26       1.0  0.52590  0.84660  0.85620  1.0000
  C   C27       1.0  0.52590  0.65340  0.35620  1.0000
  C   C28       1.0  0.47410  0.15340  0.14380  1.0000
  C   C29       1.0  0.70760  0.61300  0.68420  1.0000
  C   C30       1.0  0.29240  0.11300  0.81580  1.0000
  C   C31       1.0  0.29240  0.38700  0.31580  1.0000
  C   C32       1.0  0.70760  0.88700  0.18420  1.0000
  C   C33       1.0  0.09530  0.73270  0.32990  1.0000
  C   C34       1.0  0.90470  0.23270  0.17010  1.0000
  C   C35       1.0  0.90470  0.26730  0.67010  1.0000
  C   C36       1.0  0.09530  0.76730  0.82990  1.0000
  C   C37       1.0  0.10680  0.69830  0.40350  1.0000
  C   C38       1.0  0.89320  0.19830  0.09650  1.0000
  C   C39       1.0  0.89320  0.30170  0.59650  1.0000
  C   C40       1.0  0.10680  0.80170  0.90350  1.0000
  H   H17       1.0  0.03370  0.67690  0.39780  1.0000
  H   H18       1.0  0.96630  0.17690  0.10220  1.0000
  H   H19       1.0  0.96630  0.32310  0.60220  1.0000
  H   H20       1.0  0.03370  0.82310  0.89780  1.0000
  C   C41       1.0  0.22640  0.69550  0.48560  1.0000
  C   C42       1.0  0.77360  0.19550  0.01440  1.0000
  C   C43       1.0  0.77360  0.30450  0.51440  1.0000
  C   C44       1.0  0.22640  0.80450  0.98560  1.0000
  H   H21       1.0  0.23350  0.67220  0.53500  1.0000
  H   H22       1.0  0.76650  0.17220  0.96500  1.0000
  H   H23       1.0  0.76650  0.32780  0.46500  1.0000
  H   H24       1.0  0.23350  0.82780  0.03500  1.0000
  C   C45       1.0  0.33540  0.72740  0.49460  1.0000
  C   C46       1.0  0.66460  0.22740  0.00540  1.0000
  C   C47       1.0  0.66460  0.27260  0.50540  1.0000
  C   C48       1.0  0.33540  0.77260  0.99460  1.0000
  C   C49       1.0  0.32500  0.76000  0.42040  1.0000
  C   C50       1.0  0.67500  0.26000  0.07960  1.0000
  C   C51       1.0  0.67500  0.24000  0.57960  1.0000
  C   C52       1.0  0.32500  0.74000  0.92040  1.0000
  H   H25       1.0  0.39870  0.78040  0.42580  1.0000
  H   H26       1.0  0.60130  0.28040  0.07420  1.0000
  H   H27       1.0  0.60130  0.21960  0.57420  1.0000
  H   H28       1.0  0.39870  0.71960  0.92580  1.0000
  C   C53       1.0  0.20590  0.76270  0.33850  1.0000
  C   C54       1.0  0.79410  0.26270  0.16150  1.0000
  C   C55       1.0  0.79410  0.23730  0.66150  1.0000
  C   C56       1.0  0.20590  0.73730  0.83850  1.0000
  H   H29       1.0  0.19960  0.78460  0.28850  1.0000
  H   H30       1.0  0.80040  0.28460  0.21150  1.0000
  H   H31       1.0  0.80040  0.21540  0.71150  1.0000
  H   H32       1.0  0.19960  0.71540  0.78850  1.0000
  C   C57       1.0  0.96550  0.74010  0.24210  1.0000
  C   C58       1.0  0.03450  0.24010  0.25790  1.0000
  C   C59       1.0  0.03450  0.25990  0.75790  1.0000
  C   C60       1.0  0.96550  0.75990  0.74210  1.0000
  C   C61       1.0  0.46090  0.73020  0.58640  1.0000
  C   C62       1.0  0.53910  0.23020  0.91360  1.0000
  C   C63       1.0  0.53910  0.26980  0.41360  1.0000
  C   C64       1.0  0.46090  0.76980  0.08640  1.0000
  C   C65       1.0  0.93150  0.56160  0.47730  1.0000
  C   C66       1.0  0.06850  0.06160  0.02270  1.0000
  C   C67       1.0  0.06850  0.43840  0.52270  1.0000
  C   C68       1.0  0.93150  0.93840  0.97730  1.0000
  C   C69       1.0  0.94980  0.52860  0.41520  1.0000
  C   C70       1.0  0.05020  0.02860  0.08480  1.0000
  C   C71       1.0  0.05020  0.47140  0.58480  1.0000
  C   C72       1.0  0.94980  0.97140  0.91520  1.0000
  H   H33       1.0  0.91600  0.54760  0.35740  1.0000
  H   H34       1.0  0.08400  0.04760  0.14260  1.0000
  H   H35       1.0  0.08400  0.45240  0.64260  1.0000
  H   H36       1.0  0.91600  0.95240  0.85740  1.0000
  C   C73       1.0  0.98230  0.53270  0.56300  1.0000
  C   C74       1.0  0.01770  0.03270  0.93700  1.0000
  C   C75       1.0  0.01770  0.46730  0.43700  1.0000
  C   C76       1.0  0.98230  0.96730  0.06300  1.0000
  H   H37       1.0  0.97080  0.55460  0.60610  1.0000
  H   H38       1.0  0.02920  0.05460  0.89390  1.0000
  H   H39       1.0  0.02920  0.44540  0.39390  1.0000
  H   H40       1.0  0.97080  0.94540  0.10610  1.0000
  C   C77       1.0  0.85770  0.62790  0.45350  1.0000
  C   C78       1.0  0.14230  0.12790  0.04650  1.0000
  C   C79       1.0  0.14230  0.37210  0.54650  1.0000
  C   C80       1.0  0.85770  0.87210  0.95350  1.0000
  C   C81       1.0  0.57160  0.94360  0.55130  1.0000
  C   C82       1.0  0.42840  0.44360  0.94870  1.0000
  C   C83       1.0  0.42840  0.05640  0.44870  1.0000
  C   C84       1.0  0.57160  0.55640  0.05130  1.0000
  C   C85       1.0  0.52920  0.94760  0.46000  1.0000
  C   C86       1.0  0.47080  0.44760  0.04000  1.0000
  C   C87       1.0  0.47080  0.05240  0.54000  1.0000
  C   C88       1.0  0.52920  0.55240  0.96000  1.0000
  H   H41       1.0  0.54930  0.91260  0.43300  1.0000
  H   H42       1.0  0.45070  0.41260  0.06700  1.0000
  H   H43       1.0  0.45070  0.08740  0.56700  1.0000
  H   H44       1.0  0.54930  0.58740  0.93300  1.0000
  C   C89       1.0  0.54360  0.99630  0.59190  1.0000
  C   C90       1.0  0.45640  0.49630  0.90810  1.0000
  C   C91       1.0  0.45640  0.00370  0.40810  1.0000
  C   C92       1.0  0.54360  0.50370  0.09190  1.0000
  H   H45       1.0  0.57330  0.99410  0.65380  1.0000
  H   H46       1.0  0.42670  0.49410  0.84620  1.0000
  H   H47       1.0  0.42670  0.00590  0.34620  1.0000
  H   H48       1.0  0.57330  0.50590  0.15380  1.0000
  C   C93       1.0  0.64580  0.88100  0.60610  1.0000
  C   C94       1.0  0.35420  0.38100  0.89390  1.0000
  C   C95       1.0  0.35420  0.11900  0.39390  1.0000
  C   C96       1.0  0.64580  0.61900  0.10610  1.0000
