data_image0
_chemical_formula_structural       Cd12K4Na8O88C16H8C32H8C16H8C16O8C8H8C8H8C8H8C8H8C8H8C32H8C8H8C16H8C8H8C8
_chemical_formula_sum              "Cd12 K4 Na8 O96 C192 H96"
_cell_length_a       18.9895
_cell_length_b       28.481
_cell_length_c       16.9587
_cell_angle_alpha    90
_cell_angle_beta     119.896
_cell_angle_gamma    90

_space_group_name_H-M_alt    "P 1"
_space_group_IT_number       1

loop_
  _space_group_symop_operation_xyz
  'x, y, z'

loop_
  _atom_site_type_symbol
  _atom_site_label
  _atom_site_symmetry_multiplicity
  _atom_site_fract_x
  _atom_site_fract_y
  _atom_site_fract_z
  _atom_site_occupancy
  Cd  Cd1       1.0  0.40033  0.63052  0.37225  1.0000
  Cd  Cd2       1.0  0.59967  0.63052  0.12775  1.0000
  Cd  Cd3       1.0  0.90033  0.13052  0.37225  1.0000
  Cd  Cd4       1.0  0.09967  0.13052  0.12775  1.0000
  Cd  Cd5       1.0  0.59967  0.36948  0.62775  1.0000
  Cd  Cd6       1.0  0.40033  0.36948  0.87225  1.0000
  Cd  Cd7       1.0  0.09967  0.86948  0.62775  1.0000
  Cd  Cd8       1.0  0.90033  0.86948  0.87225  1.0000
  Cd  Cd9       1.0  0.00000  0.63247  0.25000  1.0000
  Cd  Cd10      1.0  0.50000  0.13247  0.25000  1.0000
  Cd  Cd11      1.0  0.00000  0.36753  0.75000  1.0000
  Cd  Cd12      1.0  0.50000  0.86753  0.75000  1.0000
  K   K1        1.0  0.50000  0.66301  0.25000  1.0000
  K   K2        1.0  0.00000  0.16301  0.25000  1.0000
  K   K3        1.0  0.50000  0.33699  0.75000  1.0000
  K   K4        1.0  0.00000  0.83699  0.75000  1.0000
  Na  Na1       1.0  0.20235  0.60864  0.28182  1.0000
  Na  Na2       1.0  0.79765  0.60864  0.21818  1.0000
  Na  Na3       1.0  0.70235  0.10864  0.28182  1.0000
  Na  Na4       1.0  0.29765  0.10864  0.21818  1.0000
  Na  Na5       1.0  0.79765  0.39136  0.71818  1.0000
  Na  Na6       1.0  0.20235  0.39136  0.78182  1.0000
  Na  Na7       1.0  0.29765  0.89136  0.71818  1.0000
  Na  Na8       1.0  0.70235  0.89136  0.78182  1.0000
  O   O1        1.0  0.43840  0.43126  0.97400  1.0000
  O   O2        1.0  0.56160  0.43126  0.52600  1.0000
  O   O3        1.0  0.93840  0.93126  0.97400  1.0000
  O   O4        1.0  0.06160  0.93126  0.52600  1.0000
  O   O5        1.0  0.56160  0.56874  0.02600  1.0000
  O   O6        1.0  0.43840  0.56874  0.47400  1.0000
  O   O7        1.0  0.06160  0.06874  0.02600  1.0000
  O   O8        1.0  0.93840  0.06874  0.47400  1.0000
  O   O9        1.0  0.40590  0.59183  0.26230  1.0000
  O   O10       1.0  0.59410  0.59183  0.23770  1.0000
  O   O11       1.0  0.90590  0.09183  0.26230  1.0000
  O   O12       1.0  0.09410  0.09183  0.23770  1.0000
  O   O13       1.0  0.59410  0.40817  0.73770  1.0000
  O   O14       1.0  0.40590  0.40817  0.76230  1.0000
  O   O15       1.0  0.09410  0.90817  0.73770  1.0000
  O   O16       1.0  0.90590  0.90817  0.76230  1.0000
  O   O17       1.0  0.28830  0.56260  0.23200  1.0000
  O   O18       1.0  0.71170  0.56260  0.26800  1.0000
  O   O19       1.0  0.78830  0.06260  0.23200  1.0000
  O   O20       1.0  0.21170  0.06260  0.26800  1.0000
  O   O21       1.0  0.71170  0.43740  0.76800  1.0000
  O   O22       1.0  0.28830  0.43740  0.73200  1.0000
  O   O23       1.0  0.21170  0.93740  0.76800  1.0000
  O   O24       1.0  0.78830  0.93740  0.73200  1.0000
  O   O25       1.0  0.28790  0.67119  0.28040  1.0000
  O   O26       1.0  0.71210  0.67119  0.21960  1.0000
  O   O27       1.0  0.78790  0.17119  0.28040  1.0000
  O   O28       1.0  0.21210  0.17119  0.21960  1.0000
  O   O29       1.0  0.71210  0.32881  0.71960  1.0000
  O   O30       1.0  0.28790  0.32881  0.78040  1.0000
  O   O31       1.0  0.21210  0.82881  0.71960  1.0000
  O   O32       1.0  0.78790  0.82881  0.78040  1.0000
  O   O33       1.0  0.03400  0.83807  0.92300  1.0000
  O   O34       1.0  0.96600  0.83807  0.57700  1.0000
  O   O35       1.0  0.53400  0.33807  0.92300  1.0000
  O   O36       1.0  0.46600  0.33807  0.57700  1.0000
  O   O37       1.0  0.96600  0.16193  0.07700  1.0000
  O   O38       1.0  0.03400  0.16193  0.42300  1.0000
  O   O39       1.0  0.46600  0.66193  0.07700  1.0000
  O   O40       1.0  0.53400  0.66193  0.42300  1.0000
  O   O41       1.0  0.96570  0.81429  0.98890  1.0000
  O   O42       1.0  0.03430  0.81429  0.51110  1.0000
  O   O43       1.0  0.46570  0.31429  0.98890  1.0000
  O   O44       1.0  0.53430  0.31429  0.51110  1.0000
  O   O45       1.0  0.03430  0.18571  0.01110  1.0000
  O   O46       1.0  0.96570  0.18571  0.48890  1.0000
  O   O47       1.0  0.53430  0.68571  0.01110  1.0000
  O   O48       1.0  0.46570  0.68571  0.48890  1.0000
  O   O49       1.0  0.31560  0.40475  0.92960  1.0000
  O   O50       1.0  0.68440  0.40475  0.57040  1.0000
  O   O51       1.0  0.81560  0.90475  0.92960  1.0000
  O   O52       1.0  0.18440  0.90475  0.57040  1.0000
  O   O53       1.0  0.68440  0.59525  0.07040  1.0000
  O   O54       1.0  0.31560  0.59525  0.42960  1.0000
  O   O55       1.0  0.18440  0.09525  0.07040  1.0000
  O   O56       1.0  0.81560  0.09525  0.42960  1.0000
  O   O57       1.0  0.36840  0.70583  0.23970  1.0000
  O   O58       1.0  0.63160  0.70583  0.26030  1.0000
  O   O59       1.0  0.86840  0.20583  0.23970  1.0000
  O   O60       1.0  0.13160  0.20583  0.26030  1.0000
  O   O61       1.0  0.63160  0.29417  0.76030  1.0000
  O   O62       1.0  0.36840  0.29417  0.73970  1.0000
  O   O63       1.0  0.13160  0.79417  0.76030  1.0000
  O   O64       1.0  0.86840  0.79417  0.73970  1.0000
  O   O65       1.0  0.86940  0.66346  0.17640  1.0000
  O   O66       1.0  0.13060  0.66346  0.32360  1.0000
  O   O67       1.0  0.36940  0.16346  0.17640  1.0000
  O   O68       1.0  0.63060  0.16346  0.32360  1.0000
  O   O69       1.0  0.13060  0.33654  0.82360  1.0000
  O   O70       1.0  0.86940  0.33654  0.67640  1.0000
  O   O71       1.0  0.63060  0.83654  0.82360  1.0000
  O   O72       1.0  0.36940  0.83654  0.67640  1.0000
  O   O73       1.0  0.94720  0.57540  0.13600  1.0000
  O   O74       1.0  0.05280  0.57540  0.36400  1.0000
  O   O75       1.0  0.44720  0.07540  0.13600  1.0000
  O   O76       1.0  0.55280  0.07540  0.36400  1.0000
  O   O77       1.0  0.05280  0.42460  0.86400  1.0000
  O   O78       1.0  0.94720  0.42460  0.63600  1.0000
  O   O79       1.0  0.55280  0.92460  0.86400  1.0000
  O   O80       1.0  0.44720  0.92460  0.63600  1.0000
  O   O81       1.0  0.95000  0.69570  0.13450  1.0000
  O   O82       1.0  0.05000  0.69570  0.36550  1.0000
  O   O83       1.0  0.45000  0.19570  0.13450  1.0000
  O   O84       1.0  0.55000  0.19570  0.36550  1.0000
  O   O85       1.0  0.05000  0.30430  0.86550  1.0000
  O   O86       1.0  0.95000  0.30430  0.63450  1.0000
  O   O87       1.0  0.55000  0.80430  0.86550  1.0000
  O   O88       1.0  0.45000  0.80430  0.63450  1.0000
  C   C1        1.0  0.34690  0.56400  0.22100  1.0000
  C   C2        1.0  0.65310  0.56400  0.27900  1.0000
  C   C3        1.0  0.84690  0.06400  0.22100  1.0000
  C   C4        1.0  0.15310  0.06400  0.27900  1.0000
  C   C5        1.0  0.65310  0.43600  0.77900  1.0000
  C   C6        1.0  0.34690  0.43600  0.72100  1.0000
  C   C7        1.0  0.15310  0.93600  0.77900  1.0000
  C   C8        1.0  0.84690  0.93600  0.72100  1.0000
  C   C9        1.0  0.82720  0.75750  0.01620  1.0000
  C   C10       1.0  0.17280  0.75750  0.48380  1.0000
  C   C11       1.0  0.32720  0.25750  0.01620  1.0000
  C   C12       1.0  0.67280  0.25750  0.48380  1.0000
  C   C13       1.0  0.17280  0.24250  0.98380  1.0000
  C   C14       1.0  0.82720  0.24250  0.51620  1.0000
  C   C15       1.0  0.67280  0.74250  0.98380  1.0000
  C   C16       1.0  0.32720  0.74250  0.51620  1.0000
  H   H1        1.0  0.88070  0.76280  0.02710  1.0000
  H   H2        1.0  0.11930  0.76280  0.47290  1.0000
  H   H3        1.0  0.38070  0.26280  0.02710  1.0000
  H   H4        1.0  0.61930  0.26280  0.47290  1.0000
  H   H5        1.0  0.11930  0.23720  0.97290  1.0000
  H   H6        1.0  0.88070  0.23720  0.52710  1.0000
  H   H7        1.0  0.61930  0.73720  0.97290  1.0000
  H   H8        1.0  0.38070  0.73720  0.52710  1.0000
  C   C17       1.0  0.30150  0.69970  0.23330  1.0000
  C   C18       1.0  0.69850  0.69970  0.26670  1.0000
  C   C19       1.0  0.80150  0.19970  0.23330  1.0000
  C   C20       1.0  0.19850  0.19970  0.26670  1.0000
  C   C21       1.0  0.69850  0.30030  0.76670  1.0000
  C   C22       1.0  0.30150  0.30030  0.73330  1.0000
  C   C23       1.0  0.19850  0.80030  0.76670  1.0000
  C   C24       1.0  0.80150  0.80030  0.73330  1.0000
  C   C25       1.0  0.35230  0.53010  0.15460  1.0000
  C   C26       1.0  0.64770  0.53010  0.34540  1.0000
  C   C27       1.0  0.85230  0.03010  0.15460  1.0000
  C   C28       1.0  0.14770  0.03010  0.34540  1.0000
  C   C29       1.0  0.64770  0.46990  0.84540  1.0000
  C   C30       1.0  0.35230  0.46990  0.65460  1.0000
  C   C31       1.0  0.14770  0.96990  0.84540  1.0000
  C   C32       1.0  0.85230  0.96990  0.65460  1.0000
  C   C33       1.0  0.81390  0.72240  0.06250  1.0000
  C   C34       1.0  0.18610  0.72240  0.43750  1.0000
  C   C35       1.0  0.31390  0.22240  0.06250  1.0000
  C   C36       1.0  0.68610  0.22240  0.43750  1.0000
  C   C37       1.0  0.18610  0.27760  0.93750  1.0000
  C   C38       1.0  0.81390  0.27760  0.56250  1.0000
  C   C39       1.0  0.68610  0.77760  0.93750  1.0000
  C   C40       1.0  0.31390  0.77760  0.56250  1.0000
  C   C41       1.0  0.23520  0.75650  0.10230  1.0000
  C   C42       1.0  0.76480  0.75650  0.39770  1.0000
  C   C43       1.0  0.73520  0.25650  0.10230  1.0000
  C   C44       1.0  0.26480  0.25650  0.39770  1.0000
  C   C45       1.0  0.76480  0.24350  0.89770  1.0000
  C   C46       1.0  0.23520  0.24350  0.60230  1.0000
  C   C47       1.0  0.26480  0.74350  0.89770  1.0000
  C   C48       1.0  0.73520  0.74350  0.60230  1.0000
  H   H9        1.0  0.28380  0.75660  0.09910  1.0000
  H   H10       1.0  0.71620  0.75660  0.40090  1.0000
  H   H11       1.0  0.78380  0.25660  0.09910  1.0000
  H   H12       1.0  0.21620  0.25660  0.40090  1.0000
  H   H13       1.0  0.71620  0.24340  0.90090  1.0000
  H   H14       1.0  0.28380  0.24340  0.59910  1.0000
  H   H15       1.0  0.21620  0.74340  0.90090  1.0000
  H   H16       1.0  0.78380  0.74340  0.59910  1.0000
  C   C49       1.0  0.37310  0.43250  0.97500  1.0000
  C   C50       1.0  0.62690  0.43250  0.52500  1.0000
  C   C51       1.0  0.87310  0.93250  0.97500  1.0000
  C   C52       1.0  0.12690  0.93250  0.52500  1.0000
  C   C53       1.0  0.62690  0.56750  0.02500  1.0000
  C   C54       1.0  0.37310  0.56750  0.47500  1.0000
  C   C55       1.0  0.12690  0.06750  0.02500  1.0000
  C   C56       1.0  0.87310  0.06750  0.47500  1.0000
  C   C57       1.0  0.15800  0.72810  0.16800  1.0000
  C   C58       1.0  0.84200  0.72810  0.33200  1.0000
  C   C59       1.0  0.65800  0.22810  0.16800  1.0000
  C   C60       1.0  0.34200  0.22810  0.33200  1.0000
  C   C61       1.0  0.84200  0.27190  0.83200  1.0000
  C   C62       1.0  0.15800  0.27190  0.66800  1.0000
  C   C63       1.0  0.34200  0.77190  0.83200  1.0000
  C   C64       1.0  0.65800  0.77190  0.66800  1.0000
  H   H17       1.0  0.15290  0.70840  0.21000  1.0000
  H   H18       1.0  0.84710  0.70840  0.29000  1.0000
  H   H19       1.0  0.65290  0.20840  0.21000  1.0000
  H   H20       1.0  0.34710  0.20840  0.29000  1.0000
  H   H21       1.0  0.84710  0.29160  0.79000  1.0000
  H   H22       1.0  0.15290  0.29160  0.71000  1.0000
  H   H23       1.0  0.34710  0.79160  0.79000  1.0000
  H   H24       1.0  0.65290  0.79160  0.71000  1.0000
  C   C65       1.0  0.02780  0.81350  0.98130  1.0000
  C   C66       1.0  0.97220  0.81350  0.51870  1.0000
  C   C67       1.0  0.52780  0.31350  0.98130  1.0000
  C   C68       1.0  0.47220  0.31350  0.51870  1.0000
  C   C69       1.0  0.97220  0.18650  0.01870  1.0000
  C   C70       1.0  0.02780  0.18650  0.48130  1.0000
  C   C71       1.0  0.47220  0.68650  0.01870  1.0000
  C   C72       1.0  0.52780  0.68650  0.48130  1.0000
  C   C73       1.0  0.09880  0.78350  0.04500  1.0000
  C   C74       1.0  0.90120  0.78350  0.45500  1.0000
  C   C75       1.0  0.59880  0.28350  0.04500  1.0000
  C   C76       1.0  0.40120  0.28350  0.45500  1.0000
  C   C77       1.0  0.90120  0.21650  0.95500  1.0000
  C   C78       1.0  0.09880  0.21650  0.54500  1.0000
  C   C79       1.0  0.40120  0.71650  0.95500  1.0000
  C   C80       1.0  0.59880  0.71650  0.54500  1.0000
  O   O89       1.0  0.07340  0.58980  0.17720  1.0000
  O   O90       1.0  0.92660  0.58980  0.32280  1.0000
  O   O91       1.0  0.57340  0.08980  0.17720  1.0000
  O   O92       1.0  0.42660  0.08980  0.32280  1.0000
  O   O93       1.0  0.92660  0.41020  0.82280  1.0000
  O   O94       1.0  0.07340  0.41020  0.67720  1.0000
  O   O95       1.0  0.42660  0.91020  0.82280  1.0000
  O   O96       1.0  0.57340  0.91020  0.67720  1.0000
  C   C81       1.0  0.16990  0.78350  0.04250  1.0000
  C   C82       1.0  0.83010  0.78350  0.45750  1.0000
  C   C83       1.0  0.66990  0.28350  0.04250  1.0000
  C   C84       1.0  0.33010  0.28350  0.45750  1.0000
  C   C85       1.0  0.83010  0.21650  0.95750  1.0000
  C   C86       1.0  0.16990  0.21650  0.54250  1.0000
  C   C87       1.0  0.33010  0.71650  0.95750  1.0000
  C   C88       1.0  0.66990  0.71650  0.54250  1.0000
  H   H25       1.0  0.17430  0.80240  0.99900  1.0000
  H   H26       1.0  0.82570  0.80240  0.50100  1.0000
  H   H27       1.0  0.67430  0.30240  0.99900  1.0000
  H   H28       1.0  0.32570  0.30240  0.50100  1.0000
  H   H29       1.0  0.82570  0.19760  0.00100  1.0000
  H   H30       1.0  0.17430  0.19760  0.49900  1.0000
  H   H31       1.0  0.32570  0.69760  0.00100  1.0000
  H   H32       1.0  0.67430  0.69760  0.49900  1.0000
  C   C89       1.0  0.29460  0.49620  0.11150  1.0000
  C   C90       1.0  0.70540  0.49620  0.38850  1.0000
  C   C91       1.0  0.79460  0.99620  0.11150  1.0000
  C   C92       1.0  0.20540  0.99620  0.38850  1.0000
  C   C93       1.0  0.70540  0.50380  0.88850  1.0000
  C   C94       1.0  0.29460  0.50380  0.61150  1.0000
  C   C95       1.0  0.20540  0.00380  0.88850  1.0000
  C   C96       1.0  0.79460  0.00380  0.61150  1.0000
  H   H33       1.0  0.25000  0.49400  0.12200  1.0000
  H   H34       1.0  0.75000  0.49400  0.37800  1.0000
  H   H35       1.0  0.75000  0.99400  0.12200  1.0000
  H   H36       1.0  0.25000  0.99400  0.37800  1.0000
  H   H37       1.0  0.75000  0.50600  0.87800  1.0000
  H   H38       1.0  0.25000  0.50600  0.62200  1.0000
  H   H39       1.0  0.25000  0.00600  0.87800  1.0000
  H   H40       1.0  0.75000  0.00600  0.62200  1.0000
  C   C97       1.0  0.73500  0.71500  0.04560  1.0000
  C   C98       1.0  0.26500  0.71500  0.45440  1.0000
  C   C99       1.0  0.23500  0.21500  0.04560  1.0000
  C   C100      1.0  0.76500  0.21500  0.45440  1.0000
  C   C101      1.0  0.26500  0.28500  0.95440  1.0000
  C   C102      1.0  0.73500  0.28500  0.54560  1.0000
  C   C103      1.0  0.76500  0.78500  0.95440  1.0000
  C   C104      1.0  0.23500  0.78500  0.54560  1.0000
  H   H41       1.0  0.72450  0.69090  0.07690  1.0000
  H   H42       1.0  0.27550  0.69090  0.42310  1.0000
  H   H43       1.0  0.22450  0.19090  0.07690  1.0000
  H   H44       1.0  0.77550  0.19090  0.42310  1.0000
  H   H45       1.0  0.27550  0.30910  0.92310  1.0000
  H   H46       1.0  0.72450  0.30910  0.57690  1.0000
  H   H47       1.0  0.77550  0.80910  0.92310  1.0000
  H   H48       1.0  0.22450  0.80910  0.57690  1.0000
  C   C105      1.0  0.42040  0.50230  0.07620  1.0000
  C   C106      1.0  0.57960  0.50230  0.42380  1.0000
  C   C107      1.0  0.92040  0.00230  0.07620  1.0000
  C   C108      1.0  0.07960  0.00230  0.42380  1.0000
  C   C109      1.0  0.57960  0.49770  0.92380  1.0000
  C   C110      1.0  0.42040  0.49770  0.57620  1.0000
  C   C111      1.0  0.07960  0.99770  0.92380  1.0000
  C   C112      1.0  0.92040  0.99770  0.57620  1.0000
  H   H49       1.0  0.46390  0.50500  0.06390  1.0000
  H   H50       1.0  0.53610  0.50500  0.43610  1.0000
  H   H51       1.0  0.96390  0.00500  0.06390  1.0000
  H   H52       1.0  0.03610  0.00500  0.43610  1.0000
  H   H53       1.0  0.53610  0.49500  0.93610  1.0000
  H   H54       1.0  0.46390  0.49500  0.56390  1.0000
  H   H55       1.0  0.03610  0.99500  0.93610  1.0000
  H   H56       1.0  0.96390  0.99500  0.56390  1.0000
  C   C113      1.0  0.41460  0.53400  0.13630  1.0000
  C   C114      1.0  0.58540  0.53400  0.36370  1.0000
  C   C115      1.0  0.91460  0.03400  0.13630  1.0000
  C   C116      1.0  0.08540  0.03400  0.36370  1.0000
  C   C117      1.0  0.58540  0.46600  0.86370  1.0000
  C   C118      1.0  0.41460  0.46600  0.63630  1.0000
  C   C119      1.0  0.08540  0.96600  0.86370  1.0000
  C   C120      1.0  0.91460  0.96600  0.63630  1.0000
  H   H57       1.0  0.45390  0.55810  0.16420  1.0000
  H   H58       1.0  0.54610  0.55810  0.33580  1.0000
  H   H59       1.0  0.95390  0.05810  0.16420  1.0000
  H   H60       1.0  0.04610  0.05810  0.33580  1.0000
  H   H61       1.0  0.54610  0.44190  0.83580  1.0000
  H   H62       1.0  0.45390  0.44190  0.66420  1.0000
  H   H63       1.0  0.04610  0.94190  0.83580  1.0000
  H   H64       1.0  0.95390  0.94190  0.66420  1.0000
  C   C121      1.0  0.23010  0.72920  0.16670  1.0000
  C   C122      1.0  0.76990  0.72920  0.33330  1.0000
  C   C123      1.0  0.73010  0.22920  0.16670  1.0000
  C   C124      1.0  0.26990  0.22920  0.33330  1.0000
  C   C125      1.0  0.76990  0.27080  0.83330  1.0000
  C   C126      1.0  0.23010  0.27080  0.66670  1.0000
  C   C127      1.0  0.26990  0.77080  0.83330  1.0000
  C   C128      1.0  0.73010  0.77080  0.66670  1.0000
  C   C129      1.0  0.36350  0.46750  0.03530  1.0000
  C   C130      1.0  0.63650  0.46750  0.46470  1.0000
  C   C131      1.0  0.86350  0.96750  0.03530  1.0000
  C   C132      1.0  0.13650  0.96750  0.46470  1.0000
  C   C133      1.0  0.63650  0.53250  0.96470  1.0000
  C   C134      1.0  0.36350  0.53250  0.53530  1.0000
  C   C135      1.0  0.13650  0.03250  0.96470  1.0000
  C   C136      1.0  0.86350  0.03250  0.53530  1.0000
  C   C137      1.0  0.88190  0.69190  0.12910  1.0000
  C   C138      1.0  0.11810  0.69190  0.37090  1.0000
  C   C139      1.0  0.38190  0.19190  0.12910  1.0000
  C   C140      1.0  0.61810  0.19190  0.37090  1.0000
  C   C141      1.0  0.11810  0.30810  0.87090  1.0000
  C   C142      1.0  0.88190  0.30810  0.62910  1.0000
  C   C143      1.0  0.61810  0.80810  0.87090  1.0000
  C   C144      1.0  0.38190  0.80810  0.62910  1.0000
  C   C145      1.0  0.09330  0.75560  0.10840  1.0000
  C   C146      1.0  0.90670  0.75560  0.39160  1.0000
  C   C147      1.0  0.59330  0.25560  0.10840  1.0000
  C   C148      1.0  0.40670  0.25560  0.39160  1.0000
  C   C149      1.0  0.90670  0.24440  0.89160  1.0000
  C   C150      1.0  0.09330  0.24440  0.60840  1.0000
  C   C151      1.0  0.40670  0.74440  0.89160  1.0000
  C   C152      1.0  0.59330  0.74440  0.60840  1.0000
  H   H65       1.0  0.04450  0.75530  0.11090  1.0000
  H   H66       1.0  0.95550  0.75530  0.38910  1.0000
  H   H67       1.0  0.54450  0.25530  0.11090  1.0000
  H   H68       1.0  0.45550  0.25530  0.38910  1.0000
  H   H69       1.0  0.95550  0.24470  0.88910  1.0000
  H   H70       1.0  0.04450  0.24470  0.61090  1.0000
  H   H71       1.0  0.45550  0.74470  0.88910  1.0000
  H   H72       1.0  0.54450  0.74470  0.61090  1.0000
  C   C153      1.0  0.30060  0.46510  0.05300  1.0000
  C   C154      1.0  0.69940  0.46510  0.44700  1.0000
  C   C155      1.0  0.80060  0.96510  0.05300  1.0000
  C   C156      1.0  0.19940  0.96510  0.44700  1.0000
  C   C157      1.0  0.69940  0.53490  0.94700  1.0000
  C   C158      1.0  0.30060  0.53490  0.55300  1.0000
  C   C159      1.0  0.19940  0.03490  0.94700  1.0000
  C   C160      1.0  0.80060  0.03490  0.55300  1.0000
  H   H73       1.0  0.26040  0.44140  0.02440  1.0000
  H   H74       1.0  0.73960  0.44140  0.47560  1.0000
  H   H75       1.0  0.76040  0.94140  0.02440  1.0000
  H   H76       1.0  0.23960  0.94140  0.47560  1.0000
  H   H77       1.0  0.73960  0.55860  0.97560  1.0000
  H   H78       1.0  0.26040  0.55860  0.52440  1.0000
  H   H79       1.0  0.23960  0.05860  0.97560  1.0000
  H   H80       1.0  0.76040  0.05860  0.52440  1.0000
  C   C161      1.0  0.00520  0.53280  0.06280  1.0000
  C   C162      1.0  0.99480  0.53280  0.43720  1.0000
  C   C163      1.0  0.50520  0.03280  0.06280  1.0000
  C   C164      1.0  0.49480  0.03280  0.43720  1.0000
  C   C165      1.0  0.99480  0.46720  0.93720  1.0000
  C   C166      1.0  0.00520  0.46720  0.56280  1.0000
  C   C167      1.0  0.49480  0.96720  0.93720  1.0000
  C   C168      1.0  0.50520  0.96720  0.56280  1.0000
  C   C169      1.0  0.93390  0.50710  0.01130  1.0000
  C   C170      1.0  0.06610  0.50710  0.48870  1.0000
  C   C171      1.0  0.43390  0.00710  0.01130  1.0000
  C   C172      1.0  0.56610  0.00710  0.48870  1.0000
  C   C173      1.0  0.06610  0.49290  0.98870  1.0000
  C   C174      1.0  0.93390  0.49290  0.51130  1.0000
  C   C175      1.0  0.56610  0.99290  0.98870  1.0000
  C   C176      1.0  0.43390  0.99290  0.51130  1.0000
  H   H81       1.0  0.88850  0.51200  0.01940  1.0000
  H   H82       1.0  0.11150  0.51200  0.48060  1.0000
  H   H83       1.0  0.38850  0.01200  0.01940  1.0000
  H   H84       1.0  0.61150  0.01200  0.48060  1.0000
  H   H85       1.0  0.11150  0.48800  0.98060  1.0000
  H   H86       1.0  0.88850  0.48800  0.51940  1.0000
  H   H87       1.0  0.61150  0.98800  0.98060  1.0000
  H   H88       1.0  0.38850  0.98800  0.51940  1.0000
  C   C177      1.0  0.07040  0.52480  0.05030  1.0000
  C   C178      1.0  0.92960  0.52480  0.44970  1.0000
  C   C179      1.0  0.57040  0.02480  0.05030  1.0000
  C   C180      1.0  0.42960  0.02480  0.44970  1.0000
  C   C181      1.0  0.92960  0.47520  0.94970  1.0000
  C   C182      1.0  0.07040  0.47520  0.55030  1.0000
  C   C183      1.0  0.42960  0.97520  0.94970  1.0000
  C   C184      1.0  0.57040  0.97520  0.55030  1.0000
  H   H89       1.0  0.11930  0.54200  0.08540  1.0000
  H   H90       1.0  0.88070  0.54200  0.41460  1.0000
  H   H91       1.0  0.61930  0.04200  0.08540  1.0000
  H   H92       1.0  0.38070  0.04200  0.41460  1.0000
  H   H93       1.0  0.88070  0.45800  0.91460  1.0000
  H   H94       1.0  0.11930  0.45800  0.58540  1.0000
  H   H95       1.0  0.38070  0.95800  0.91460  1.0000
  H   H96       1.0  0.61930  0.95800  0.58540  1.0000
  C   C185      1.0  0.00960  0.56860  0.13040  1.0000
  C   C186      1.0  0.99040  0.56860  0.36960  1.0000
  C   C187      1.0  0.50960  0.06860  0.13040  1.0000
  C   C188      1.0  0.49040  0.06860  0.36960  1.0000
  C   C189      1.0  0.99040  0.43140  0.86960  1.0000
  C   C190      1.0  0.00960  0.43140  0.63040  1.0000
  C   C191      1.0  0.49040  0.93140  0.86960  1.0000
  C   C192      1.0  0.50960  0.93140  0.63040  1.0000
