data_image0
_chemical_formula_structural       Cd12K12O80C32H8C16H8C8H8C16H8C16H8C8H8C8H8C24H8C8O8C16H8C8H8C8H8C24H8O8
_chemical_formula_sum              "Cd12 K12 O96 C192 H96"
_cell_length_a       19.2145
_cell_length_b       26.4088
_cell_length_c       17.7174
_cell_angle_alpha    90
_cell_angle_beta     118.431
_cell_angle_gamma    90

_space_group_name_H-M_alt    "P 1"
_space_group_IT_number       1

loop_
  _space_group_symop_operation_xyz
  'x, y, z'

loop_
  _atom_site_type_symbol
  _atom_site_label
  _atom_site_symmetry_multiplicity
  _atom_site_fract_x
  _atom_site_fract_y
  _atom_site_fract_z
  _atom_site_occupancy
  Cd  Cd1       1.0  0.89816  0.63320  0.86642  1.0000
  Cd  Cd2       1.0  0.10184  0.63320  0.63358  1.0000
  Cd  Cd3       1.0  0.39816  0.13320  0.86642  1.0000
  Cd  Cd4       1.0  0.60184  0.13320  0.63358  1.0000
  Cd  Cd5       1.0  0.10184  0.36680  0.13358  1.0000
  Cd  Cd6       1.0  0.89816  0.36680  0.36642  1.0000
  Cd  Cd7       1.0  0.60184  0.86680  0.13358  1.0000
  Cd  Cd8       1.0  0.39816  0.86680  0.36642  1.0000
  Cd  Cd9       1.0  0.50000  0.36350  0.25000  1.0000
  Cd  Cd10      1.0  0.00000  0.86350  0.25000  1.0000
  Cd  Cd11      1.0  0.50000  0.63650  0.75000  1.0000
  Cd  Cd12      1.0  0.00000  0.13650  0.75000  1.0000
  K   K1        1.0  0.50000  0.83051  0.25000  1.0000
  K   K2        1.0  0.00000  0.33051  0.25000  1.0000
  K   K3        1.0  0.50000  0.16949  0.75000  1.0000
  K   K4        1.0  0.00000  0.66949  0.75000  1.0000
  K   K5        1.0  0.69525  0.40755  0.28858  1.0000
  K   K6        1.0  0.30475  0.40755  0.21142  1.0000
  K   K7        1.0  0.19525  0.90755  0.28858  1.0000
  K   K8        1.0  0.80475  0.90755  0.21142  1.0000
  K   K9        1.0  0.30475  0.59245  0.71142  1.0000
  K   K10       1.0  0.69525  0.59245  0.78858  1.0000
  K   K11       1.0  0.80475  0.09245  0.71142  1.0000
  K   K12       1.0  0.19525  0.09245  0.78858  1.0000
  O   O1        1.0  0.90480  0.59087  0.75920  1.0000
  O   O2        1.0  0.09520  0.59087  0.74080  1.0000
  O   O3        1.0  0.40480  0.09087  0.75920  1.0000
  O   O4        1.0  0.59520  0.09087  0.74080  1.0000
  O   O5        1.0  0.09520  0.40913  0.24080  1.0000
  O   O6        1.0  0.90480  0.40913  0.25920  1.0000
  O   O7        1.0  0.59520  0.90913  0.24080  1.0000
  O   O8        1.0  0.40480  0.90913  0.25920  1.0000
  O   O9        1.0  0.78420  0.67092  0.77590  1.0000
  O   O10       1.0  0.21580  0.67092  0.72410  1.0000
  O   O11       1.0  0.28420  0.17092  0.77590  1.0000
  O   O12       1.0  0.71580  0.17092  0.72410  1.0000
  O   O13       1.0  0.21580  0.32908  0.22410  1.0000
  O   O14       1.0  0.78420  0.32908  0.27590  1.0000
  O   O15       1.0  0.71580  0.82908  0.22410  1.0000
  O   O16       1.0  0.28420  0.82908  0.27590  1.0000
  O   O17       1.0  0.82440  0.40123  0.43050  1.0000
  O   O18       1.0  0.17560  0.40123  0.06950  1.0000
  O   O19       1.0  0.32440  0.90123  0.43050  1.0000
  O   O20       1.0  0.67560  0.90123  0.06950  1.0000
  O   O21       1.0  0.17560  0.59877  0.56950  1.0000
  O   O22       1.0  0.82440  0.59877  0.93050  1.0000
  O   O23       1.0  0.67560  0.09877  0.56950  1.0000
  O   O24       1.0  0.32440  0.09877  0.93050  1.0000
  O   O25       1.0  0.94240  0.43331  0.46790  1.0000
  O   O26       1.0  0.05760  0.43331  0.03210  1.0000
  O   O27       1.0  0.44240  0.93331  0.46790  1.0000
  O   O28       1.0  0.55760  0.93331  0.03210  1.0000
  O   O29       1.0  0.05760  0.56669  0.53210  1.0000
  O   O30       1.0  0.94240  0.56669  0.96790  1.0000
  O   O31       1.0  0.55760  0.06669  0.53210  1.0000
  O   O32       1.0  0.44240  0.06669  0.96790  1.0000
  O   O33       1.0  0.53160  0.83511  0.41420  1.0000
  O   O34       1.0  0.46840  0.83511  0.08580  1.0000
  O   O35       1.0  0.03160  0.33511  0.41420  1.0000
  O   O36       1.0  0.96840  0.33511  0.08580  1.0000
  O   O37       1.0  0.46840  0.16489  0.58580  1.0000
  O   O38       1.0  0.53160  0.16489  0.91420  1.0000
  O   O39       1.0  0.96840  0.66489  0.58580  1.0000
  O   O40       1.0  0.03160  0.66489  0.91420  1.0000
  O   O41       1.0  0.86370  0.71020  0.73590  1.0000
  O   O42       1.0  0.13630  0.71020  0.76410  1.0000
  O   O43       1.0  0.36370  0.21020  0.73590  1.0000
  O   O44       1.0  0.63630  0.21020  0.76410  1.0000
  O   O45       1.0  0.13630  0.28980  0.26410  1.0000
  O   O46       1.0  0.86370  0.28980  0.23590  1.0000
  O   O47       1.0  0.63630  0.78980  0.26410  1.0000
  O   O48       1.0  0.36370  0.78980  0.23590  1.0000
  O   O49       1.0  0.62670  0.33175  0.31810  1.0000
  O   O50       1.0  0.37330  0.33175  0.18190  1.0000
  O   O51       1.0  0.12670  0.83175  0.31810  1.0000
  O   O52       1.0  0.87330  0.83175  0.18190  1.0000
  O   O53       1.0  0.37330  0.66825  0.68190  1.0000
  O   O54       1.0  0.62670  0.66825  0.81810  1.0000
  O   O55       1.0  0.87330  0.16825  0.68190  1.0000
  O   O56       1.0  0.12670  0.16825  0.81810  1.0000
  O   O57       1.0  0.46130  0.80777  0.47400  1.0000
  O   O58       1.0  0.53870  0.80777  0.02600  1.0000
  O   O59       1.0  0.96130  0.30777  0.47400  1.0000
  O   O60       1.0  0.03870  0.30777  0.02600  1.0000
  O   O61       1.0  0.53870  0.19223  0.52600  1.0000
  O   O62       1.0  0.46130  0.19223  0.97400  1.0000
  O   O63       1.0  0.03870  0.69223  0.52600  1.0000
  O   O64       1.0  0.96130  0.69223  0.97400  1.0000
  O   O65       1.0  0.54910  0.29600  0.36120  1.0000
  O   O66       1.0  0.45090  0.29600  0.13880  1.0000
  O   O67       1.0  0.04910  0.79600  0.36120  1.0000
  O   O68       1.0  0.95090  0.79600  0.13880  1.0000
  O   O69       1.0  0.45090  0.70400  0.63880  1.0000
  O   O70       1.0  0.54910  0.70400  0.86120  1.0000
  O   O71       1.0  0.95090  0.20400  0.63880  1.0000
  O   O72       1.0  0.04910  0.20400  0.86120  1.0000
  O   O73       1.0  0.80220  0.54800  0.74810  1.0000
  O   O74       1.0  0.19780  0.54800  0.75190  1.0000
  O   O75       1.0  0.30220  0.04800  0.74810  1.0000
  O   O76       1.0  0.69780  0.04800  0.75190  1.0000
  O   O77       1.0  0.19780  0.45200  0.25190  1.0000
  O   O78       1.0  0.80220  0.45200  0.24810  1.0000
  O   O79       1.0  0.69780  0.95200  0.25190  1.0000
  O   O80       1.0  0.30220  0.95200  0.24810  1.0000
  C   C1        1.0  0.85440  0.55780  0.72720  1.0000
  C   C2        1.0  0.14560  0.55780  0.77280  1.0000
  C   C3        1.0  0.35440  0.05780  0.72720  1.0000
  C   C4        1.0  0.64560  0.05780  0.77280  1.0000
  C   C5        1.0  0.14560  0.44220  0.27280  1.0000
  C   C6        1.0  0.85440  0.44220  0.22720  1.0000
  C   C7        1.0  0.64560  0.94220  0.27280  1.0000
  C   C8        1.0  0.35440  0.94220  0.22720  1.0000
  C   C9        1.0  0.79680  0.70190  0.72810  1.0000
  C   C10       1.0  0.20320  0.70190  0.77190  1.0000
  C   C11       1.0  0.29680  0.20190  0.72810  1.0000
  C   C12       1.0  0.70320  0.20190  0.77190  1.0000
  C   C13       1.0  0.20320  0.29810  0.27190  1.0000
  C   C14       1.0  0.79680  0.29810  0.22810  1.0000
  C   C15       1.0  0.70320  0.79810  0.27190  1.0000
  C   C16       1.0  0.29680  0.79810  0.22810  1.0000
  C   C17       1.0  0.88050  0.43140  0.47450  1.0000
  C   C18       1.0  0.11950  0.43140  0.02550  1.0000
  C   C19       1.0  0.38050  0.93140  0.47450  1.0000
  C   C20       1.0  0.61950  0.93140  0.02550  1.0000
  C   C21       1.0  0.11950  0.56860  0.52550  1.0000
  C   C22       1.0  0.88050  0.56860  0.97450  1.0000
  C   C23       1.0  0.61950  0.06860  0.52550  1.0000
  C   C24       1.0  0.38050  0.06860  0.97450  1.0000
  C   C25       1.0  0.82530  0.26150  0.51470  1.0000
  C   C26       1.0  0.17470  0.26150  0.98530  1.0000
  C   C27       1.0  0.32530  0.76150  0.51470  1.0000
  C   C28       1.0  0.67470  0.76150  0.98530  1.0000
  C   C29       1.0  0.17470  0.73850  0.48530  1.0000
  C   C30       1.0  0.82530  0.73850  0.01470  1.0000
  C   C31       1.0  0.67470  0.23850  0.48530  1.0000
  C   C32       1.0  0.32530  0.23850  0.01470  1.0000
  H   H1        1.0  0.87610  0.26940  0.52470  1.0000
  H   H2        1.0  0.12390  0.26940  0.97530  1.0000
  H   H3        1.0  0.37610  0.76940  0.52470  1.0000
  H   H4        1.0  0.62390  0.76940  0.97530  1.0000
  H   H5        1.0  0.12390  0.73060  0.47530  1.0000
  H   H6        1.0  0.87610  0.73060  0.02470  1.0000
  H   H7        1.0  0.62390  0.23060  0.47530  1.0000
  H   H8        1.0  0.37610  0.23060  0.02470  1.0000
  C   C33       1.0  0.68510  0.27460  0.43490  1.0000
  C   C34       1.0  0.31490  0.27460  0.06510  1.0000
  C   C35       1.0  0.18510  0.77460  0.43490  1.0000
  C   C36       1.0  0.81490  0.77460  0.06510  1.0000
  C   C37       1.0  0.31490  0.72540  0.56510  1.0000
  C   C38       1.0  0.68510  0.72540  0.93490  1.0000
  C   C39       1.0  0.81490  0.22540  0.56510  1.0000
  C   C40       1.0  0.18510  0.22540  0.93490  1.0000
  C   C41       1.0  0.58720  0.75030  0.59460  1.0000
  C   C42       1.0  0.41280  0.75030  0.90540  1.0000
  C   C43       1.0  0.08720  0.25030  0.59460  1.0000
  C   C44       1.0  0.91280  0.25030  0.90540  1.0000
  C   C45       1.0  0.41280  0.24970  0.40540  1.0000
  C   C46       1.0  0.58720  0.24970  0.09460  1.0000
  C   C47       1.0  0.91280  0.74970  0.40540  1.0000
  C   C48       1.0  0.08720  0.74970  0.09460  1.0000
  H   H9        1.0  0.53840  0.74740  0.59320  1.0000
  H   H10       1.0  0.46160  0.74740  0.90680  1.0000
  H   H11       1.0  0.03840  0.24740  0.59320  1.0000
  H   H12       1.0  0.96160  0.24740  0.90680  1.0000
  H   H13       1.0  0.46160  0.25260  0.40680  1.0000
  H   H14       1.0  0.53840  0.25260  0.09320  1.0000
  H   H15       1.0  0.96160  0.75260  0.40680  1.0000
  H   H16       1.0  0.03840  0.75260  0.09320  1.0000
  C   C49       1.0  0.91990  0.53340  0.63930  1.0000
  C   C50       1.0  0.08010  0.53340  0.86070  1.0000
  C   C51       1.0  0.41990  0.03340  0.63930  1.0000
  C   C52       1.0  0.58010  0.03340  0.86070  1.0000
  C   C53       1.0  0.08010  0.46660  0.36070  1.0000
  C   C54       1.0  0.91990  0.46660  0.13930  1.0000
  C   C55       1.0  0.58010  0.96660  0.36070  1.0000
  C   C56       1.0  0.41990  0.96660  0.13930  1.0000
  H   H17       1.0  0.95830  0.55810  0.66650  1.0000
  H   H18       1.0  0.04170  0.55810  0.83350  1.0000
  H   H19       1.0  0.45830  0.05810  0.66650  1.0000
  H   H20       1.0  0.54170  0.05810  0.83350  1.0000
  H   H21       1.0  0.04170  0.44190  0.33350  1.0000
  H   H22       1.0  0.95830  0.44190  0.16650  1.0000
  H   H23       1.0  0.54170  0.94190  0.33350  1.0000
  H   H24       1.0  0.45830  0.94190  0.16650  1.0000
  C   C57       1.0  0.59490  0.77980  0.53480  1.0000
  C   C58       1.0  0.40510  0.77980  0.96520  1.0000
  C   C59       1.0  0.09490  0.27980  0.53480  1.0000
  C   C60       1.0  0.90510  0.27980  0.96520  1.0000
  C   C61       1.0  0.40510  0.22020  0.46520  1.0000
  C   C62       1.0  0.59490  0.22020  0.03480  1.0000
  C   C63       1.0  0.90510  0.72020  0.46520  1.0000
  C   C64       1.0  0.09490  0.72020  0.03480  1.0000
  C   C65       1.0  0.65290  0.72470  0.65730  1.0000
  C   C66       1.0  0.34710  0.72470  0.84270  1.0000
  C   C67       1.0  0.15290  0.22470  0.65730  1.0000
  C   C68       1.0  0.84710  0.22470  0.84270  1.0000
  C   C69       1.0  0.34710  0.27530  0.34270  1.0000
  C   C70       1.0  0.65290  0.27530  0.15730  1.0000
  C   C71       1.0  0.84710  0.77530  0.34270  1.0000
  C   C72       1.0  0.15290  0.77530  0.15730  1.0000
  H   H25       1.0  0.64780  0.70540  0.69820  1.0000
  H   H26       1.0  0.35220  0.70540  0.80180  1.0000
  H   H27       1.0  0.14780  0.20540  0.69820  1.0000
  H   H28       1.0  0.85220  0.20540  0.80180  1.0000
  H   H29       1.0  0.35220  0.29460  0.30180  1.0000
  H   H30       1.0  0.64780  0.29460  0.19820  1.0000
  H   H31       1.0  0.85220  0.79460  0.30180  1.0000
  H   H32       1.0  0.14780  0.79460  0.19820  1.0000
  C   C73       1.0  0.86130  0.52920  0.66320  1.0000
  C   C74       1.0  0.13870  0.52920  0.83680  1.0000
  C   C75       1.0  0.36130  0.02920  0.66320  1.0000
  C   C76       1.0  0.63870  0.02920  0.83680  1.0000
  C   C77       1.0  0.13870  0.47080  0.33680  1.0000
  C   C78       1.0  0.86130  0.47080  0.16320  1.0000
  C   C79       1.0  0.63870  0.97080  0.33680  1.0000
  C   C80       1.0  0.36130  0.97080  0.16320  1.0000
  C   C81       1.0  0.66830  0.78290  0.53560  1.0000
  C   C82       1.0  0.33170  0.78290  0.96440  1.0000
  C   C83       1.0  0.16830  0.28290  0.53560  1.0000
  C   C84       1.0  0.83170  0.28290  0.96440  1.0000
  C   C85       1.0  0.33170  0.21710  0.46440  1.0000
  C   C86       1.0  0.66830  0.21710  0.03560  1.0000
  C   C87       1.0  0.83170  0.71710  0.46440  1.0000
  C   C88       1.0  0.16830  0.71710  0.03560  1.0000
  H   H33       1.0  0.67340  0.80220  0.49450  1.0000
  H   H34       1.0  0.32660  0.80220  0.00550  1.0000
  H   H35       1.0  0.17340  0.30220  0.49450  1.0000
  H   H36       1.0  0.82660  0.30220  0.00550  1.0000
  H   H37       1.0  0.32660  0.19780  0.50550  1.0000
  H   H38       1.0  0.67340  0.19780  0.99450  1.0000
  H   H39       1.0  0.82660  0.69780  0.50550  1.0000
  H   H40       1.0  0.17340  0.69780  0.99450  1.0000
  C   C89       1.0  0.92590  0.50370  0.57800  1.0000
  C   C90       1.0  0.07410  0.50370  0.92200  1.0000
  C   C91       1.0  0.42590  0.00370  0.57800  1.0000
  C   C92       1.0  0.57410  0.00370  0.92200  1.0000
  C   C93       1.0  0.07410  0.49630  0.42200  1.0000
  C   C94       1.0  0.92590  0.49630  0.07800  1.0000
  C   C95       1.0  0.57410  0.99630  0.42200  1.0000
  C   C96       1.0  0.42590  0.99630  0.07800  1.0000
  H   H41       1.0  0.96690  0.50910  0.56510  1.0000
  H   H42       1.0  0.03310  0.50910  0.93490  1.0000
  H   H43       1.0  0.46690  0.00910  0.56510  1.0000
  H   H44       1.0  0.53310  0.00910  0.93490  1.0000
  H   H45       1.0  0.03310  0.49090  0.43490  1.0000
  H   H46       1.0  0.96690  0.49090  0.06510  1.0000
  H   H47       1.0  0.53310  0.99090  0.43490  1.0000
  H   H48       1.0  0.46690  0.99090  0.06510  1.0000
  C   C97       1.0  0.73290  0.75720  0.59760  1.0000
  C   C98       1.0  0.26710  0.75720  0.90240  1.0000
  C   C99       1.0  0.23290  0.25720  0.59760  1.0000
  C   C100      1.0  0.76710  0.25720  0.90240  1.0000
  C   C101      1.0  0.26710  0.24280  0.40240  1.0000
  C   C102      1.0  0.73290  0.24280  0.09760  1.0000
  C   C103      1.0  0.76710  0.74280  0.40240  1.0000
  C   C104      1.0  0.23290  0.74280  0.09760  1.0000
  H   H49       1.0  0.78150  0.75950  0.59830  1.0000
  H   H50       1.0  0.21850  0.75950  0.90170  1.0000
  H   H51       1.0  0.28150  0.25950  0.59830  1.0000
  H   H52       1.0  0.71850  0.25950  0.90170  1.0000
  H   H53       1.0  0.21850  0.24050  0.40170  1.0000
  H   H54       1.0  0.78150  0.24050  0.09830  1.0000
  H   H55       1.0  0.71850  0.74050  0.40170  1.0000
  H   H56       1.0  0.28150  0.74050  0.09830  1.0000
  C   C105      1.0  0.72610  0.72790  0.65910  1.0000
  C   C106      1.0  0.27390  0.72790  0.84090  1.0000
  C   C107      1.0  0.22610  0.22790  0.65910  1.0000
  C   C108      1.0  0.77390  0.22790  0.84090  1.0000
  C   C109      1.0  0.27390  0.27210  0.34090  1.0000
  C   C110      1.0  0.72610  0.27210  0.15910  1.0000
  C   C111      1.0  0.77390  0.77210  0.34090  1.0000
  C   C112      1.0  0.22610  0.77210  0.15910  1.0000
  C   C113      1.0  0.87050  0.46600  0.53600  1.0000
  C   C114      1.0  0.12950  0.46600  0.96400  1.0000
  C   C115      1.0  0.37050  0.96600  0.53600  1.0000
  C   C116      1.0  0.62950  0.96600  0.96400  1.0000
  C   C117      1.0  0.12950  0.53400  0.46400  1.0000
  C   C118      1.0  0.87050  0.53400  0.03600  1.0000
  C   C119      1.0  0.62950  0.03400  0.46400  1.0000
  C   C120      1.0  0.37050  0.03400  0.03600  1.0000
  C   C121      1.0  0.80820  0.45960  0.55390  1.0000
  C   C122      1.0  0.19180  0.45960  0.94610  1.0000
  C   C123      1.0  0.30820  0.95960  0.55390  1.0000
  C   C124      1.0  0.69180  0.95960  0.94610  1.0000
  C   C125      1.0  0.19180  0.54040  0.44610  1.0000
  C   C126      1.0  0.80820  0.54040  0.05390  1.0000
  C   C127      1.0  0.69180  0.04040  0.44610  1.0000
  C   C128      1.0  0.30820  0.04040  0.05390  1.0000
  H   H57       1.0  0.77000  0.43510  0.52470  1.0000
  H   H58       1.0  0.23000  0.43510  0.97530  1.0000
  H   H59       1.0  0.27000  0.93510  0.52470  1.0000
  H   H60       1.0  0.73000  0.93510  0.97530  1.0000
  H   H61       1.0  0.23000  0.56490  0.47530  1.0000
  H   H62       1.0  0.77000  0.56490  0.02470  1.0000
  H   H63       1.0  0.73000  0.06490  0.47530  1.0000
  H   H64       1.0  0.27000  0.06490  0.02470  1.0000
  C   C129      1.0  0.52530  0.80940  0.47000  1.0000
  C   C130      1.0  0.47470  0.80940  0.03000  1.0000
  C   C131      1.0  0.02530  0.30940  0.47000  1.0000
  C   C132      1.0  0.97470  0.30940  0.03000  1.0000
  C   C133      1.0  0.47470  0.19060  0.53000  1.0000
  C   C134      1.0  0.52530  0.19060  0.97000  1.0000
  C   C135      1.0  0.97470  0.69060  0.53000  1.0000
  C   C136      1.0  0.02530  0.69060  0.97000  1.0000
  O   O81       1.0  0.45420  0.40890  0.32680  1.0000
  O   O82       1.0  0.54580  0.40890  0.17320  1.0000
  O   O83       1.0  0.95420  0.90890  0.32680  1.0000
  O   O84       1.0  0.04580  0.90890  0.17320  1.0000
  O   O85       1.0  0.54580  0.59110  0.67320  1.0000
  O   O86       1.0  0.45420  0.59110  0.82680  1.0000
  O   O87       1.0  0.04580  0.09110  0.67320  1.0000
  O   O88       1.0  0.95420  0.09110  0.82680  1.0000
  C   C137      1.0  0.61570  0.30220  0.36720  1.0000
  C   C138      1.0  0.38430  0.30220  0.13280  1.0000
  C   C139      1.0  0.11570  0.80220  0.36720  1.0000
  C   C140      1.0  0.88430  0.80220  0.13280  1.0000
  C   C141      1.0  0.38430  0.69780  0.63280  1.0000
  C   C142      1.0  0.61570  0.69780  0.86720  1.0000
  C   C143      1.0  0.88430  0.19780  0.63280  1.0000
  C   C144      1.0  0.11570  0.19780  0.86720  1.0000
  C   C145      1.0  0.76080  0.28590  0.44960  1.0000
  C   C146      1.0  0.23920  0.28590  0.05040  1.0000
  C   C147      1.0  0.26080  0.78590  0.44960  1.0000
  C   C148      1.0  0.73920  0.78590  0.05040  1.0000
  C   C149      1.0  0.23920  0.71410  0.55040  1.0000
  C   C150      1.0  0.76080  0.71410  0.94960  1.0000
  C   C151      1.0  0.73920  0.21410  0.55040  1.0000
  C   C152      1.0  0.26080  0.21410  0.94960  1.0000
  H   H65       1.0  0.76840  0.30980  0.41570  1.0000
  H   H66       1.0  0.23160  0.30980  0.08430  1.0000
  H   H67       1.0  0.26840  0.80980  0.41570  1.0000
  H   H68       1.0  0.73160  0.80980  0.08430  1.0000
  H   H69       1.0  0.23160  0.69020  0.58430  1.0000
  H   H70       1.0  0.76840  0.69020  0.91570  1.0000
  H   H71       1.0  0.73160  0.19020  0.58430  1.0000
  H   H72       1.0  0.26840  0.19020  0.91570  1.0000
  C   C153      1.0  0.80220  0.48940  0.61460  1.0000
  C   C154      1.0  0.19780  0.48940  0.88540  1.0000
  C   C155      1.0  0.30220  0.98940  0.61460  1.0000
  C   C156      1.0  0.69780  0.98940  0.88540  1.0000
  C   C157      1.0  0.19780  0.51060  0.38540  1.0000
  C   C158      1.0  0.80220  0.51060  0.11460  1.0000
  C   C159      1.0  0.69780  0.01060  0.38540  1.0000
  C   C160      1.0  0.30220  0.01060  0.11460  1.0000
  H   H73       1.0  0.75990  0.48430  0.62550  1.0000
  H   H74       1.0  0.24010  0.48430  0.87450  1.0000
  H   H75       1.0  0.25990  0.98430  0.62550  1.0000
  H   H76       1.0  0.74010  0.98430  0.87450  1.0000
  H   H77       1.0  0.24010  0.51570  0.37450  1.0000
  H   H78       1.0  0.75990  0.51570  0.12550  1.0000
  H   H79       1.0  0.74010  0.01570  0.37450  1.0000
  H   H80       1.0  0.25990  0.01570  0.12550  1.0000
  C   C161      1.0  0.56060  0.53090  0.55260  1.0000
  C   C162      1.0  0.43940  0.53090  0.94740  1.0000
  C   C163      1.0  0.06060  0.03090  0.55260  1.0000
  C   C164      1.0  0.93940  0.03090  0.94740  1.0000
  C   C165      1.0  0.43940  0.46910  0.44740  1.0000
  C   C166      1.0  0.56060  0.46910  0.05260  1.0000
  C   C167      1.0  0.93940  0.96910  0.44740  1.0000
  C   C168      1.0  0.06060  0.96910  0.05260  1.0000
  H   H81       1.0  0.60280  0.55160  0.58800  1.0000
  H   H82       1.0  0.39720  0.55160  0.91200  1.0000
  H   H83       1.0  0.10280  0.05160  0.58800  1.0000
  H   H84       1.0  0.89720  0.05160  0.91200  1.0000
  H   H85       1.0  0.39720  0.44840  0.41200  1.0000
  H   H86       1.0  0.60280  0.44840  0.08800  1.0000
  H   H87       1.0  0.89720  0.94840  0.41200  1.0000
  H   H88       1.0  0.10280  0.94840  0.08800  1.0000
  C   C169      1.0  0.50520  0.46880  0.43940  1.0000
  C   C170      1.0  0.49480  0.46880  0.06060  1.0000
  C   C171      1.0  0.00520  0.96880  0.43940  1.0000
  C   C172      1.0  0.99480  0.96880  0.06060  1.0000
  C   C173      1.0  0.49480  0.53120  0.56060  1.0000
  C   C174      1.0  0.50520  0.53120  0.93940  1.0000
  C   C175      1.0  0.99480  0.03120  0.56060  1.0000
  C   C176      1.0  0.00520  0.03120  0.93940  1.0000
  C   C177      1.0  0.51520  0.43460  0.37440  1.0000
  C   C178      1.0  0.48480  0.43460  0.12560  1.0000
  C   C179      1.0  0.01520  0.93460  0.37440  1.0000
  C   C180      1.0  0.98480  0.93460  0.12560  1.0000
  C   C181      1.0  0.48480  0.56540  0.62560  1.0000
  C   C182      1.0  0.51520  0.56540  0.87440  1.0000
  C   C183      1.0  0.98480  0.06540  0.62560  1.0000
  C   C184      1.0  0.01520  0.06540  0.87440  1.0000
  C   C185      1.0  0.56730  0.49990  0.49170  1.0000
  C   C186      1.0  0.43270  0.49990  0.00830  1.0000
  C   C187      1.0  0.06730  0.99990  0.49170  1.0000
  C   C188      1.0  0.93270  0.99990  0.00830  1.0000
  C   C189      1.0  0.43270  0.50010  0.50830  1.0000
  C   C190      1.0  0.56730  0.50010  0.99170  1.0000
  C   C191      1.0  0.93270  0.00010  0.50830  1.0000
  C   C192      1.0  0.06730  0.00010  0.99170  1.0000
  H   H89       1.0  0.61340  0.50040  0.48670  1.0000
  H   H90       1.0  0.38660  0.50040  0.01330  1.0000
  H   H91       1.0  0.11340  0.00040  0.48670  1.0000
  H   H92       1.0  0.88660  0.00040  0.01330  1.0000
  H   H93       1.0  0.38660  0.49960  0.51330  1.0000
  H   H94       1.0  0.61340  0.49960  0.98670  1.0000
  H   H95       1.0  0.88660  0.99960  0.51330  1.0000
  H   H96       1.0  0.11340  0.99960  0.98670  1.0000
  O   O89       1.0  0.57610  0.43140  0.37410  1.0000
  O   O90       1.0  0.42390  0.43140  0.12590  1.0000
  O   O91       1.0  0.07610  0.93140  0.37410  1.0000
  O   O92       1.0  0.92390  0.93140  0.12590  1.0000
  O   O93       1.0  0.42390  0.56860  0.62590  1.0000
  O   O94       1.0  0.57610  0.56860  0.87410  1.0000
  O   O95       1.0  0.92390  0.06860  0.62590  1.0000
  O   O96       1.0  0.07610  0.06860  0.87410  1.0000
