data_image0
_chemical_formula_structural       Nd4S4O12C4H4C4H4C4H4C20H4C4O16C12S4O4
_chemical_formula_sum              "Nd4 S8 O32 C48 H16"
_cell_length_a       11.738
_cell_length_b       16.5818
_cell_length_c       11.5785
_cell_angle_alpha    90
_cell_angle_beta     113.514
_cell_angle_gamma    90

_space_group_name_H-M_alt    "P 1"
_space_group_IT_number       1

loop_
  _space_group_symop_operation_xyz
  'x, y, z'

loop_
  _atom_site_type_symbol
  _atom_site_label
  _atom_site_symmetry_multiplicity
  _atom_site_fract_x
  _atom_site_fract_y
  _atom_site_fract_z
  _atom_site_occupancy
  Nd  Nd1       1.0  0.30994  0.53407  0.42474  1.0000
  Nd  Nd2       1.0  0.69006  0.03407  0.07526  1.0000
  Nd  Nd3       1.0  0.69006  0.46593  0.57526  1.0000
  Nd  Nd4       1.0  0.30994  0.96593  0.92474  1.0000
  S   S1        1.0  0.98050  0.30060  0.21143  1.0000
  S   S2        1.0  0.01950  0.80060  0.28857  1.0000
  S   S3        1.0  0.01950  0.69940  0.78857  1.0000
  S   S4        1.0  0.98050  0.19940  0.71143  1.0000
  O   O1        1.0  0.46060  0.63790  0.44470  1.0000
  O   O2        1.0  0.53940  0.13790  0.05530  1.0000
  O   O3        1.0  0.53940  0.36210  0.55530  1.0000
  O   O4        1.0  0.46060  0.86210  0.94470  1.0000
  O   O5        1.0  0.14770  0.44570  0.26470  1.0000
  O   O6        1.0  0.85230  0.94570  0.23530  1.0000
  O   O7        1.0  0.85230  0.55430  0.73530  1.0000
  O   O8        1.0  0.14770  0.05430  0.76470  1.0000
  O   O9        1.0  0.11040  0.49160  0.42680  1.0000
  O   O10       1.0  0.88960  0.99160  0.07320  1.0000
  O   O11       1.0  0.88960  0.50840  0.57320  1.0000
  O   O12       1.0  0.11040  0.00840  0.92680  1.0000
  C   C1        1.0  0.67780  0.83140  0.32800  1.0000
  C   C2        1.0  0.32220  0.33140  0.17200  1.0000
  C   C3        1.0  0.32220  0.16860  0.67200  1.0000
  C   C4        1.0  0.67780  0.66860  0.82800  1.0000
  H   H1        1.0  0.74200  0.86100  0.32130  1.0000
  H   H2        1.0  0.25800  0.36100  0.17870  1.0000
  H   H3        1.0  0.25800  0.13900  0.67870  1.0000
  H   H4        1.0  0.74200  0.63900  0.82130  1.0000
  C   C5        1.0  0.87740  0.28370  0.36830  1.0000
  C   C6        1.0  0.12260  0.78370  0.13170  1.0000
  C   C7        1.0  0.12260  0.71630  0.63170  1.0000
  C   C8        1.0  0.87740  0.21630  0.86830  1.0000
  H   H5        1.0  0.83230  0.26220  0.41130  1.0000
  H   H6        1.0  0.16770  0.76220  0.08870  1.0000
  H   H7        1.0  0.16770  0.73780  0.58870  1.0000
  H   H8        1.0  0.83230  0.23780  0.91130  1.0000
  C   C9        1.0  0.94340  0.35830  0.40030  1.0000
  C   C10       1.0  0.05660  0.85830  0.09970  1.0000
  C   C11       1.0  0.05660  0.64170  0.59970  1.0000
  C   C12       1.0  0.94340  0.14170  0.90030  1.0000
  H   H9        1.0  0.94370  0.39240  0.46420  1.0000
  H   H10       1.0  0.05630  0.89240  0.03580  1.0000
  H   H11       1.0  0.05630  0.60760  0.53580  1.0000
  H   H12       1.0  0.94370  0.10760  0.96420  1.0000
  C   C13       1.0  0.00670  0.37340  0.32440  1.0000
  C   C14       1.0  0.99330  0.87340  0.17560  1.0000
  C   C15       1.0  0.99330  0.62660  0.67560  1.0000
  C   C16       1.0  0.00670  0.12660  0.82440  1.0000
  C   C17       1.0  0.09290  0.44200  0.33960  1.0000
  C   C18       1.0  0.90710  0.94200  0.16040  1.0000
  C   C19       1.0  0.90710  0.55800  0.66040  1.0000
  C   C20       1.0  0.09290  0.05800  0.83960  1.0000
  C   C21       1.0  0.88850  0.24740  0.26660  1.0000
  C   C22       1.0  0.11150  0.74740  0.23340  1.0000
  C   C23       1.0  0.11150  0.75260  0.73340  1.0000
  C   C24       1.0  0.88850  0.25260  0.76660  1.0000
  C   C25       1.0  0.55310  0.85350  0.27320  1.0000
  C   C26       1.0  0.44690  0.35350  0.22680  1.0000
  C   C27       1.0  0.44690  0.14650  0.72680  1.0000
  C   C28       1.0  0.55310  0.64650  0.77320  1.0000
  C   C29       1.0  0.69420  0.75890  0.39460  1.0000
  C   C30       1.0  0.30580  0.25890  0.10540  1.0000
  C   C31       1.0  0.30580  0.24110  0.60540  1.0000
  C   C32       1.0  0.69420  0.74110  0.89460  1.0000
  H   H13       1.0  0.77170  0.73550  0.43780  1.0000
  H   H14       1.0  0.22830  0.23550  0.06220  1.0000
  H   H15       1.0  0.22830  0.26450  0.56220  1.0000
  H   H16       1.0  0.77170  0.76450  0.93780  1.0000
  C   C33       1.0  0.58690  0.72590  0.39050  1.0000
  C   C34       1.0  0.41310  0.22590  0.10950  1.0000
  C   C35       1.0  0.41310  0.27410  0.60950  1.0000
  C   C36       1.0  0.58690  0.77410  0.89050  1.0000
  O   O13       1.0  0.81350  0.16020  0.09290  1.0000
  O   O14       1.0  0.18650  0.66020  0.40710  1.0000
  O   O15       1.0  0.18650  0.83980  0.90710  1.0000
  O   O16       1.0  0.81350  0.33980  0.59290  1.0000
  O   O17       1.0  0.37810  0.92740  0.14770  1.0000
  O   O18       1.0  0.62190  0.42740  0.35230  1.0000
  O   O19       1.0  0.62190  0.07260  0.85230  1.0000
  O   O20       1.0  0.37810  0.57260  0.64770  1.0000
  O   O21       1.0  0.65580  0.59970  0.48350  1.0000
  O   O22       1.0  0.34420  0.09970  0.01650  1.0000
  O   O23       1.0  0.34420  0.40030  0.51650  1.0000
  O   O24       1.0  0.65580  0.90030  0.98350  1.0000
  O   O25       1.0  0.78760  0.12240  0.26670  1.0000
  O   O26       1.0  0.21240  0.62240  0.23330  1.0000
  O   O27       1.0  0.21240  0.87760  0.73330  1.0000
  O   O28       1.0  0.78760  0.37760  0.76670  1.0000
  C   C37       1.0  0.56520  0.64900  0.44590  1.0000
  C   C38       1.0  0.43480  0.14900  0.05410  1.0000
  C   C39       1.0  0.43480  0.35100  0.55410  1.0000
  C   C40       1.0  0.56520  0.85100  0.94590  1.0000
  C   C41       1.0  0.82580  0.17200  0.20560  1.0000
  C   C42       1.0  0.17420  0.67200  0.29440  1.0000
  C   C43       1.0  0.17420  0.82800  0.79440  1.0000
  C   C44       1.0  0.82580  0.32800  0.70560  1.0000
  C   C45       1.0  0.49430  0.92290  0.19130  1.0000
  C   C46       1.0  0.50570  0.42290  0.30870  1.0000
  C   C47       1.0  0.50570  0.07710  0.80870  1.0000
  C   C48       1.0  0.49430  0.57710  0.69130  1.0000
  S   S5        1.0  0.46058  0.78384  0.30356  1.0000
  S   S6        1.0  0.53942  0.28384  0.19644  1.0000
  S   S7        1.0  0.53942  0.21616  0.69644  1.0000
  S   S8        1.0  0.46058  0.71616  0.80356  1.0000
  O   O29       1.0  0.56320  0.97410  0.16790  1.0000
  O   O30       1.0  0.43680  0.47410  0.33210  1.0000
  O   O31       1.0  0.43680  0.02590  0.83210  1.0000
  O   O32       1.0  0.56320  0.52590  0.66790  1.0000
