data_image0
_chemical_formula_structural       Eu4S4O4C12H4C4H4C4S4O28C16H4C12H4
_chemical_formula_sum              "Eu4 S8 O32 C48 H16"
_cell_length_a       11.7636
_cell_length_b       16.3609
_cell_length_c       11.589
_cell_angle_alpha    90
_cell_angle_beta     113.314
_cell_angle_gamma    90

_space_group_name_H-M_alt    "P 1"
_space_group_IT_number       1

loop_
  _space_group_symop_operation_xyz
  'x, y, z'

loop_
  _atom_site_type_symbol
  _atom_site_label
  _atom_site_symmetry_multiplicity
  _atom_site_fract_x
  _atom_site_fract_y
  _atom_site_fract_z
  _atom_site_occupancy
  Eu  Eu1       1.0  0.19022  0.53446  0.57594  1.0000
  Eu  Eu2       1.0  0.80978  0.03446  0.92406  1.0000
  Eu  Eu3       1.0  0.80978  0.46554  0.42406  1.0000
  Eu  Eu4       1.0  0.19022  0.96554  0.07594  1.0000
  S   S1        1.0  0.03995  0.78435  0.69768  1.0000
  S   S2        1.0  0.96005  0.28435  0.80232  1.0000
  S   S3        1.0  0.96005  0.21565  0.30232  1.0000
  S   S4        1.0  0.03995  0.71565  0.19768  1.0000
  O   O1        1.0  0.04140  0.63797  0.55240  1.0000
  O   O2        1.0  0.95860  0.13797  0.94760  1.0000
  O   O3        1.0  0.95860  0.36203  0.44760  1.0000
  O   O4        1.0  0.04140  0.86203  0.05240  1.0000
  C   C1        1.0  0.67630  0.17260  0.79590  1.0000
  C   C2        1.0  0.32370  0.67260  0.70410  1.0000
  C   C3        1.0  0.32370  0.82740  0.20410  1.0000
  C   C4        1.0  0.67630  0.32740  0.29590  1.0000
  C   C5        1.0  0.94550  0.85420  0.72740  1.0000
  C   C6        1.0  0.05450  0.35420  0.77260  1.0000
  C   C7        1.0  0.05450  0.14580  0.27260  1.0000
  C   C8        1.0  0.94550  0.64580  0.22740  1.0000
  C   C9        1.0  0.82290  0.83150  0.67320  1.0000
  C   C10       1.0  0.17710  0.33150  0.82680  1.0000
  C   C11       1.0  0.17710  0.16850  0.32680  1.0000
  C   C12       1.0  0.82290  0.66850  0.17320  1.0000
  H   H1        1.0  0.75860  0.86110  0.68050  1.0000
  H   H2        1.0  0.24140  0.36110  0.81950  1.0000
  H   H3        1.0  0.24140  0.13890  0.31950  1.0000
  H   H4        1.0  0.75860  0.63890  0.18050  1.0000
  C   C13       1.0  0.80690  0.75790  0.60530  1.0000
  C   C14       1.0  0.19310  0.25790  0.89470  1.0000
  C   C15       1.0  0.19310  0.24210  0.39470  1.0000
  C   C16       1.0  0.80690  0.74210  0.10530  1.0000
  H   H5        1.0  0.73010  0.73370  0.56220  1.0000
  H   H6        1.0  0.26990  0.23370  0.93780  1.0000
  H   H7        1.0  0.26990  0.26630  0.43780  1.0000
  H   H8        1.0  0.73010  0.76630  0.06220  1.0000
  C   C17       1.0  0.91600  0.72560  0.60920  1.0000
  C   C18       1.0  0.08400  0.22560  0.89080  1.0000
  C   C19       1.0  0.08400  0.27440  0.39080  1.0000
  C   C20       1.0  0.91600  0.77440  0.10920  1.0000
  S   S5        1.0  0.52016  0.30129  0.78743  1.0000
  S   S6        1.0  0.47984  0.80129  0.71257  1.0000
  S   S7        1.0  0.47984  0.69871  0.21257  1.0000
  S   S8        1.0  0.52016  0.19871  0.28743  1.0000
  O   O5        1.0  0.93150  0.97599  0.82910  1.0000
  O   O6        1.0  0.06850  0.47599  0.67090  1.0000
  O   O7        1.0  0.06850  0.02401  0.17090  1.0000
  O   O8        1.0  0.93150  0.52401  0.32910  1.0000
  O   O9        1.0  0.11860  0.92921  0.85670  1.0000
  O   O10       1.0  0.88140  0.42921  0.64330  1.0000
  O   O11       1.0  0.88140  0.07079  0.14330  1.0000
  O   O12       1.0  0.11860  0.57079  0.35670  1.0000
  O   O13       1.0  0.35050  0.44720  0.73170  1.0000
  O   O14       1.0  0.64950  0.94720  0.76830  1.0000
  O   O15       1.0  0.64950  0.55280  0.26830  1.0000
  O   O16       1.0  0.35050  0.05280  0.23170  1.0000
  O   O17       1.0  0.84770  0.59870  0.51390  1.0000
  O   O18       1.0  0.15230  0.09870  0.98610  1.0000
  O   O19       1.0  0.15230  0.40130  0.48610  1.0000
  O   O20       1.0  0.84770  0.90130  0.01390  1.0000
  O   O21       1.0  0.68860  0.15920  0.90650  1.0000
  O   O22       1.0  0.31140  0.65920  0.59350  1.0000
  O   O23       1.0  0.31140  0.84080  0.09350  1.0000
  O   O24       1.0  0.68860  0.34080  0.40650  1.0000
  O   O25       1.0  0.71800  0.12291  0.73710  1.0000
  O   O26       1.0  0.28200  0.62291  0.76290  1.0000
  O   O27       1.0  0.28200  0.87709  0.26290  1.0000
  O   O28       1.0  0.71800  0.37709  0.23710  1.0000
  O   O29       1.0  0.38410  0.49080  0.56820  1.0000
  O   O30       1.0  0.61590  0.99080  0.93180  1.0000
  O   O31       1.0  0.61590  0.50920  0.43180  1.0000
  O   O32       1.0  0.38410  0.00920  0.06820  1.0000
  C   C21       1.0  0.00250  0.92460  0.80980  1.0000
  C   C22       1.0  0.99750  0.42460  0.69020  1.0000
  C   C23       1.0  0.99750  0.07540  0.19020  1.0000
  C   C24       1.0  0.00250  0.57540  0.30980  1.0000
  C   C25       1.0  0.93510  0.64820  0.55360  1.0000
  C   C26       1.0  0.06490  0.14820  0.94640  1.0000
  C   C27       1.0  0.06490  0.35180  0.44640  1.0000
  C   C28       1.0  0.93510  0.85180  0.05360  1.0000
  C   C29       1.0  0.61370  0.24740  0.73210  1.0000
  C   C30       1.0  0.38630  0.74740  0.76790  1.0000
  C   C31       1.0  0.38630  0.75260  0.26790  1.0000
  C   C32       1.0  0.61370  0.25260  0.23210  1.0000
  C   C33       1.0  0.62210  0.28490  0.63030  1.0000
  C   C34       1.0  0.37790  0.78490  0.86970  1.0000
  C   C35       1.0  0.37790  0.71510  0.36970  1.0000
  C   C36       1.0  0.62210  0.21510  0.13030  1.0000
  H   H9        1.0  0.66770  0.26420  0.58720  1.0000
  H   H10       1.0  0.33230  0.76420  0.91280  1.0000
  H   H11       1.0  0.33230  0.73580  0.41280  1.0000
  H   H12       1.0  0.66770  0.23580  0.08720  1.0000
  C   C37       1.0  0.40470  0.44140  0.65780  1.0000
  C   C38       1.0  0.59530  0.94140  0.84220  1.0000
  C   C39       1.0  0.59530  0.55860  0.34220  1.0000
  C   C40       1.0  0.40470  0.05860  0.15780  1.0000
  C   C41       1.0  0.49260  0.37400  0.67210  1.0000
  C   C42       1.0  0.50740  0.87400  0.82790  1.0000
  C   C43       1.0  0.50740  0.62600  0.32790  1.0000
  C   C44       1.0  0.49260  0.12600  0.17210  1.0000
  C   C45       1.0  0.55490  0.35800  0.59800  1.0000
  C   C46       1.0  0.44510  0.85800  0.90200  1.0000
  C   C47       1.0  0.44510  0.64200  0.40200  1.0000
  C   C48       1.0  0.55490  0.14200  0.09800  1.0000
  H   H13       1.0  0.55310  0.39180  0.53280  1.0000
  H   H14       1.0  0.44690  0.89180  0.96720  1.0000
  H   H15       1.0  0.44690  0.60820  0.46720  1.0000
  H   H16       1.0  0.55310  0.10820  0.03280  1.0000
