data_image0
_chemical_formula_structural       Zn16O96N8H4N4H4N12H4N4H4N12H4N8H4N8H4N4H4N4C12H4C8H4C4H4C16H4C8H4C8H4C12H4C4H4C12H4C24H4C8H4C8H4C8H4C8H4C8H4C12H4C12H4C4H4C12H12C16H12C4H12C16H12C4H12C16H12C4H12C16H12C4H12C16H12C4H12C16H12C4H12C16H12C4H12C16H12
_chemical_formula_sum              "Zn16 O96 N64 H296 C344"
_cell_length_a       29.903
_cell_length_b       10.3266
_cell_length_c       34.323
_cell_angle_alpha    90
_cell_angle_beta     95.926
_cell_angle_gamma    90

_space_group_name_H-M_alt    "P 1"
_space_group_IT_number       1

loop_
  _space_group_symop_operation_xyz
  'x, y, z'

loop_
  _atom_site_type_symbol
  _atom_site_label
  _atom_site_symmetry_multiplicity
  _atom_site_fract_x
  _atom_site_fract_y
  _atom_site_fract_z
  _atom_site_occupancy
  Zn  Zn1       1.0  0.00519  0.96829  0.29804  1.0000
  Zn  Zn2       1.0  0.99481  0.46829  0.20196  1.0000
  Zn  Zn3       1.0  0.99481  0.03171  0.70196  1.0000
  Zn  Zn4       1.0  0.00519  0.53171  0.79804  1.0000
  Zn  Zn5       1.0  0.23289  0.69857  0.55953  1.0000
  Zn  Zn6       1.0  0.76711  0.19857  0.94047  1.0000
  Zn  Zn7       1.0  0.76711  0.30143  0.44047  1.0000
  Zn  Zn8       1.0  0.23289  0.80143  0.05953  1.0000
  Zn  Zn9       1.0  0.26215  0.29017  0.44808  1.0000
  Zn  Zn10      1.0  0.73785  0.79017  0.05192  1.0000
  Zn  Zn11      1.0  0.73785  0.70983  0.55192  1.0000
  Zn  Zn12      1.0  0.26215  0.20983  0.94808  1.0000
  Zn  Zn13      1.0  0.49874  0.00796  0.69890  1.0000
  Zn  Zn14      1.0  0.50126  0.50796  0.80110  1.0000
  Zn  Zn15      1.0  0.50126  0.99204  0.30110  1.0000
  Zn  Zn16      1.0  0.49874  0.49204  0.19890  1.0000
  O   O1        1.0  0.01408  0.80590  0.32716  1.0000
  O   O2        1.0  0.98592  0.30590  0.17284  1.0000
  O   O3        1.0  0.98592  0.19410  0.67284  1.0000
  O   O4        1.0  0.01408  0.69410  0.82716  1.0000
  O   O5        1.0  0.95480  0.74520  0.28768  1.0000
  O   O6        1.0  0.04520  0.24520  0.21232  1.0000
  O   O7        1.0  0.04520  0.25480  0.71232  1.0000
  O   O8        1.0  0.95480  0.75480  0.78768  1.0000
  O   O9        1.0  0.00640  0.53390  0.25820  1.0000
  O   O10       1.0  0.99360  0.03390  0.24180  1.0000
  O   O11       1.0  0.99360  0.46610  0.74180  1.0000
  O   O12       1.0  0.00640  0.96610  0.75820  1.0000
  O   O13       1.0  0.95520  0.38860  0.25673  1.0000
  O   O14       1.0  0.04480  0.88860  0.24327  1.0000
  O   O15       1.0  0.04480  0.61140  0.74327  1.0000
  O   O16       1.0  0.95520  0.11140  0.75673  1.0000
  O   O17       1.0  0.98140  0.25620  0.40001  1.0000
  O   O18       1.0  0.01860  0.75620  0.09999  1.0000
  O   O19       1.0  0.01860  0.74380  0.59999  1.0000
  O   O20       1.0  0.98140  0.24380  0.90001  1.0000
  O   O21       1.0  0.86370  0.21140  0.48731  1.0000
  O   O22       1.0  0.13630  0.71140  0.01269  1.0000
  O   O23       1.0  0.13630  0.78860  0.51269  1.0000
  O   O24       1.0  0.86370  0.28860  0.98731  1.0000
  O   O25       1.0  0.89600  0.20550  0.54720  1.0000
  O   O26       1.0  0.10400  0.70550  0.95280  1.0000
  O   O27       1.0  0.10400  0.79450  0.45280  1.0000
  O   O28       1.0  0.89600  0.29450  0.04720  1.0000
  O   O29       1.0  0.05792  0.28620  0.53209  1.0000
  O   O30       1.0  0.94208  0.78620  0.96791  1.0000
  O   O31       1.0  0.94208  0.71380  0.46791  1.0000
  O   O32       1.0  0.05792  0.21380  0.03209  1.0000
  O   O33       1.0  0.26357  0.18110  0.49350  1.0000
  O   O34       1.0  0.73643  0.68110  0.00650  1.0000
  O   O35       1.0  0.73643  0.81890  0.50650  1.0000
  O   O36       1.0  0.26357  0.31890  0.99350  1.0000
  O   O37       1.0  0.25148  0.09430  0.54941  1.0000
  O   O38       1.0  0.74852  0.59430  0.95059  1.0000
  O   O39       1.0  0.74852  0.90570  0.45059  1.0000
  O   O40       1.0  0.25148  0.40570  0.04941  1.0000
  O   O41       1.0  0.25366  0.40390  0.54670  1.0000
  O   O42       1.0  0.74634  0.90390  0.95330  1.0000
  O   O43       1.0  0.74634  0.59610  0.45330  1.0000
  O   O44       1.0  0.25366  0.09610  0.04670  1.0000
  O   O45       1.0  0.19849  0.54330  0.54844  1.0000
  O   O46       1.0  0.80151  0.04330  0.95156  1.0000
  O   O47       1.0  0.80151  0.45670  0.45156  1.0000
  O   O48       1.0  0.19849  0.95670  0.04844  1.0000
  O   O49       1.0  0.22625  0.80630  0.51310  1.0000
  O   O50       1.0  0.77375  0.30630  0.98690  1.0000
  O   O51       1.0  0.77375  0.19370  0.48690  1.0000
  O   O52       1.0  0.22625  0.69370  0.01310  1.0000
  O   O53       1.0  0.23943  0.90040  0.45795  1.0000
  O   O54       1.0  0.76057  0.40040  0.04205  1.0000
  O   O55       1.0  0.76057  0.09960  0.54205  1.0000
  O   O56       1.0  0.23943  0.59960  0.95795  1.0000
  O   O57       1.0  0.23644  0.58800  0.46001  1.0000
  O   O58       1.0  0.76356  0.08800  0.03999  1.0000
  O   O59       1.0  0.76356  0.41200  0.53999  1.0000
  O   O60       1.0  0.23644  0.91200  0.96001  1.0000
  O   O61       1.0  0.29325  0.45040  0.45807  1.0000
  O   O62       1.0  0.70675  0.95040  0.04193  1.0000
  O   O63       1.0  0.70675  0.54960  0.54193  1.0000
  O   O64       1.0  0.29325  0.04960  0.95807  1.0000
  O   O65       1.0  0.43260  0.70560  0.47420  1.0000
  O   O66       1.0  0.56740  0.20560  0.02580  1.0000
  O   O67       1.0  0.56740  0.29440  0.52580  1.0000
  O   O68       1.0  0.43260  0.79440  0.97420  1.0000
  O   O69       1.0  0.58830  0.79910  0.45080  1.0000
  O   O70       1.0  0.41170  0.29910  0.04920  1.0000
  O   O71       1.0  0.41170  0.20090  0.54920  1.0000
  O   O72       1.0  0.58830  0.70090  0.95080  1.0000
  O   O73       1.0  0.62650  0.79300  0.50540  1.0000
  O   O74       1.0  0.37350  0.29300  0.99460  1.0000
  O   O75       1.0  0.37350  0.20700  0.49460  1.0000
  O   O76       1.0  0.62650  0.70700  0.00540  1.0000
  O   O77       1.0  0.52030  0.72590  0.60316  1.0000
  O   O78       1.0  0.47970  0.22590  0.89684  1.0000
  O   O79       1.0  0.47970  0.27410  0.39684  1.0000
  O   O80       1.0  0.52030  0.77410  0.10316  1.0000
  O   O81       1.0  0.55240  0.57570  0.74478  1.0000
  O   O82       1.0  0.44760  0.07570  0.75522  1.0000
  O   O83       1.0  0.44760  0.42430  0.25522  1.0000
  O   O84       1.0  0.55240  0.92430  0.24478  1.0000
  O   O85       1.0  0.48944  0.46290  0.74459  1.0000
  O   O86       1.0  0.51056  0.96290  0.75541  1.0000
  O   O87       1.0  0.51056  0.53710  0.25541  1.0000
  O   O88       1.0  0.48944  0.03710  0.24459  1.0000
  O   O89       1.0  0.53543  0.23940  0.71574  1.0000
  O   O90       1.0  0.46457  0.73940  0.78426  1.0000
  O   O91       1.0  0.46457  0.76060  0.28426  1.0000
  O   O92       1.0  0.53543  0.26060  0.21574  1.0000
  O   O93       1.0  0.48434  0.16880  0.67062  1.0000
  O   O94       1.0  0.51566  0.66880  0.82938  1.0000
  O   O95       1.0  0.51566  0.83120  0.32938  1.0000
  O   O96       1.0  0.48434  0.33120  0.17062  1.0000
  N   N1        1.0  0.80467  0.19090  0.40807  1.0000
  N   N2        1.0  0.19533  0.69090  0.09193  1.0000
  N   N3        1.0  0.19533  0.80910  0.59193  1.0000
  N   N4        1.0  0.80467  0.30910  0.90807  1.0000
  N   N5        1.0  0.80304  0.06090  0.40875  1.0000
  N   N6        1.0  0.19696  0.56090  0.09125  1.0000
  N   N7        1.0  0.19696  0.93910  0.59125  1.0000
  N   N8        1.0  0.80304  0.43910  0.90875  1.0000
  H   H1        1.0  0.78700  0.01730  0.42350  1.0000
  H   H2        1.0  0.21300  0.51730  0.07650  1.0000
  H   H3        1.0  0.21300  0.98270  0.57650  1.0000
  H   H4        1.0  0.78700  0.48270  0.92350  1.0000
  N   N9        1.0  0.91980  0.11330  0.28704  1.0000
  N   N10       1.0  0.08020  0.61330  0.21296  1.0000
  N   N11       1.0  0.08020  0.88670  0.71296  1.0000
  N   N12       1.0  0.91980  0.38670  0.78704  1.0000
  H   H5        1.0  0.92670  0.13260  0.26400  1.0000
  H   H6        1.0  0.07330  0.63260  0.23600  1.0000
  H   H7        1.0  0.07330  0.86740  0.73600  1.0000
  H   H8        1.0  0.92670  0.36740  0.76400  1.0000
  N   N13       1.0  0.94657  0.04300  0.31281  1.0000
  N   N14       1.0  0.05343  0.54300  0.18719  1.0000
  N   N15       1.0  0.05343  0.95700  0.68719  1.0000
  N   N16       1.0  0.94657  0.45700  0.81281  1.0000
  N   N17       1.0  0.05195  0.09970  0.31751  1.0000
  N   N18       1.0  0.94805  0.59970  0.18249  1.0000
  N   N19       1.0  0.94805  0.90030  0.68249  1.0000
  N   N20       1.0  0.05195  0.40030  0.81751  1.0000
  N   N21       1.0  0.06210  0.19820  0.29403  1.0000
  N   N22       1.0  0.93790  0.69820  0.20597  1.0000
  N   N23       1.0  0.93790  0.80180  0.70597  1.0000
  N   N24       1.0  0.06210  0.30180  0.79403  1.0000
  H   H9        1.0  0.05030  0.20740  0.27030  1.0000
  H   H10       1.0  0.94970  0.70740  0.22970  1.0000
  H   H11       1.0  0.94970  0.79260  0.72970  1.0000
  H   H12       1.0  0.05030  0.29260  0.77030  1.0000
  N   N25       1.0  0.17597  0.41450  0.42011  1.0000
  N   N26       1.0  0.82403  0.91450  0.07989  1.0000
  N   N27       1.0  0.82403  0.58550  0.57989  1.0000
  N   N28       1.0  0.17597  0.08550  0.92011  1.0000
  H   H13       1.0  0.18370  0.48040  0.43460  1.0000
  H   H14       1.0  0.81630  0.98040  0.06540  1.0000
  H   H15       1.0  0.81630  0.51960  0.56540  1.0000
  H   H16       1.0  0.18370  0.01960  0.93460  1.0000
  N   N29       1.0  0.20176  0.30900  0.41784  1.0000
  N   N30       1.0  0.79824  0.80900  0.08216  1.0000
  N   N31       1.0  0.79824  0.69100  0.58216  1.0000
  N   N32       1.0  0.20176  0.19100  0.91784  1.0000
  N   N33       1.0  0.29480  0.67820  0.58653  1.0000
  N   N34       1.0  0.70520  0.17820  0.91347  1.0000
  N   N35       1.0  0.70520  0.32180  0.41347  1.0000
  N   N36       1.0  0.29480  0.82180  0.08653  1.0000
  N   N37       1.0  0.31847  0.57010  0.58425  1.0000
  N   N38       1.0  0.68153  0.07010  0.91575  1.0000
  N   N39       1.0  0.68153  0.42990  0.41575  1.0000
  N   N40       1.0  0.31847  0.92990  0.08425  1.0000
  H   H17       1.0  0.30920  0.50410  0.57050  1.0000
  H   H18       1.0  0.69080  0.00410  0.92950  1.0000
  H   H19       1.0  0.69080  0.49590  0.42950  1.0000
  H   H20       1.0  0.30920  0.99590  0.07050  1.0000
  N   N41       1.0  0.45059  0.87720  0.68060  1.0000
  N   N42       1.0  0.54941  0.37720  0.81940  1.0000
  N   N43       1.0  0.54941  0.12280  0.31940  1.0000
  N   N44       1.0  0.45059  0.62280  0.18060  1.0000
  N   N45       1.0  0.43946  0.78400  0.70530  1.0000
  N   N46       1.0  0.56054  0.28400  0.79470  1.0000
  N   N47       1.0  0.56054  0.21600  0.29470  1.0000
  N   N48       1.0  0.43946  0.71600  0.20530  1.0000
  H   H21       1.0  0.45210  0.77520  0.72880  1.0000
  H   H22       1.0  0.54790  0.27520  0.77120  1.0000
  H   H23       1.0  0.54790  0.22480  0.27120  1.0000
  H   H24       1.0  0.45210  0.72480  0.22880  1.0000
  N   N49       1.0  0.55972  0.94960  0.68315  1.0000
  N   N50       1.0  0.44028  0.44960  0.81685  1.0000
  N   N51       1.0  0.44028  0.05040  0.31685  1.0000
  N   N52       1.0  0.55972  0.55040  0.18315  1.0000
  N   N53       1.0  0.58969  0.88620  0.70830  1.0000
  N   N54       1.0  0.41031  0.38620  0.79170  1.0000
  N   N55       1.0  0.41031  0.11380  0.29170  1.0000
  N   N56       1.0  0.58969  0.61380  0.20830  1.0000
  H   H25       1.0  0.58480  0.86430  0.73170  1.0000
  H   H26       1.0  0.41520  0.36430  0.76830  1.0000
  H   H27       1.0  0.41520  0.13570  0.26830  1.0000
  H   H28       1.0  0.58480  0.63570  0.23170  1.0000
  N   N57       1.0  0.70044  0.94930  0.58237  1.0000
  N   N58       1.0  0.29956  0.44930  0.91763  1.0000
  N   N59       1.0  0.29956  0.05070  0.41763  1.0000
  N   N60       1.0  0.70044  0.55070  0.08237  1.0000
  H   H29       1.0  0.71630  0.99290  0.56750  1.0000
  H   H30       1.0  0.28370  0.49290  0.93250  1.0000
  H   H31       1.0  0.28370  0.00710  0.43250  1.0000
  H   H32       1.0  0.71630  0.50710  0.06750  1.0000
  N   N61       1.0  0.69840  0.81910  0.58260  1.0000
  N   N62       1.0  0.30160  0.31910  0.91740  1.0000
  N   N63       1.0  0.30160  0.18090  0.41740  1.0000
  N   N64       1.0  0.69840  0.68090  0.08260  1.0000
  C   C1        1.0  0.52050  0.51400  0.72744  1.0000
  C   C2        1.0  0.47950  0.01400  0.77256  1.0000
  C   C3        1.0  0.47950  0.48600  0.27256  1.0000
  C   C4        1.0  0.52050  0.98600  0.22744  1.0000
  C   C5        1.0  0.51770  0.50260  0.68317  1.0000
  C   C6        1.0  0.48230  0.00260  0.81683  1.0000
  C   C7        1.0  0.48230  0.49740  0.31683  1.0000
  C   C8        1.0  0.51770  0.99740  0.18317  1.0000
  C   C9        1.0  0.52110  0.61290  0.66190  1.0000
  C   C10       1.0  0.47890  0.11290  0.83810  1.0000
  C   C11       1.0  0.47890  0.38710  0.33810  1.0000
  C   C12       1.0  0.52110  0.88710  0.16190  1.0000
  H   H33       1.0  0.52580  0.69180  0.67470  1.0000
  H   H34       1.0  0.47420  0.19180  0.82530  1.0000
  H   H35       1.0  0.47420  0.30820  0.32530  1.0000
  H   H36       1.0  0.52580  0.80820  0.17470  1.0000
  C   C13       1.0  0.51740  0.60840  0.62125  1.0000
  C   C14       1.0  0.48260  0.10840  0.87875  1.0000
  C   C15       1.0  0.48260  0.39160  0.37875  1.0000
  C   C16       1.0  0.51740  0.89160  0.12125  1.0000
  C   C17       1.0  0.51110  0.49210  0.60146  1.0000
  C   C18       1.0  0.48890  0.99210  0.89854  1.0000
  C   C19       1.0  0.48890  0.50790  0.39854  1.0000
  C   C20       1.0  0.51110  0.00790  0.10146  1.0000
  H   H37       1.0  0.50960  0.48820  0.57430  1.0000
  H   H38       1.0  0.49040  0.98820  0.92570  1.0000
  H   H39       1.0  0.49040  0.51180  0.42570  1.0000
  H   H40       1.0  0.50960  0.01180  0.07430  1.0000
  C   C21       1.0  0.50690  0.38240  0.62354  1.0000
  C   C22       1.0  0.49310  0.88240  0.87646  1.0000
  C   C23       1.0  0.49310  0.61760  0.37646  1.0000
  C   C24       1.0  0.50690  0.11760  0.12354  1.0000
  H   H41       1.0  0.50180  0.30380  0.61060  1.0000
  H   H42       1.0  0.49820  0.80380  0.88940  1.0000
  H   H43       1.0  0.49820  0.69620  0.38940  1.0000
  H   H44       1.0  0.50180  0.19620  0.11060  1.0000
  C   C25       1.0  0.51010  0.38360  0.66437  1.0000
  C   C26       1.0  0.48990  0.88360  0.83563  1.0000
  C   C27       1.0  0.48990  0.61640  0.33563  1.0000
  C   C28       1.0  0.51010  0.11640  0.16437  1.0000
  C   C29       1.0  0.50980  0.25690  0.68557  1.0000
  C   C30       1.0  0.49020  0.75690  0.81443  1.0000
  C   C31       1.0  0.49020  0.74310  0.31443  1.0000
  C   C32       1.0  0.50980  0.24310  0.18557  1.0000
  C   C33       1.0  0.51440  0.73250  0.56200  1.0000
  C   C34       1.0  0.48560  0.23250  0.93800  1.0000
  C   C35       1.0  0.48560  0.26750  0.43800  1.0000
  C   C36       1.0  0.51440  0.76750  0.06200  1.0000
  C   C37       1.0  0.47270  0.71460  0.54040  1.0000
  C   C38       1.0  0.52730  0.21460  0.95960  1.0000
  C   C39       1.0  0.52730  0.28540  0.45960  1.0000
  C   C40       1.0  0.47270  0.78540  0.04040  1.0000
  H   H45       1.0  0.44740  0.69690  0.55310  1.0000
  H   H46       1.0  0.55260  0.19690  0.94690  1.0000
  H   H47       1.0  0.55260  0.30310  0.44690  1.0000
  H   H48       1.0  0.44740  0.80310  0.05310  1.0000
  C   C41       1.0  0.46950  0.72350  0.49960  1.0000
  C   C42       1.0  0.53050  0.22350  0.00040  1.0000
  C   C43       1.0  0.53050  0.27650  0.50040  1.0000
  C   C44       1.0  0.46950  0.77650  0.99960  1.0000
  C   C45       1.0  0.50780  0.75280  0.48180  1.0000
  C   C46       1.0  0.49220  0.25280  0.01820  1.0000
  C   C47       1.0  0.49220  0.24720  0.51820  1.0000
  C   C48       1.0  0.50780  0.74720  0.98180  1.0000
  H   H49       1.0  0.50590  0.76260  0.45480  1.0000
  H   H50       1.0  0.49410  0.26260  0.04520  1.0000
  H   H51       1.0  0.49410  0.23740  0.54520  1.0000
  H   H52       1.0  0.50590  0.73740  0.95480  1.0000
  C   C49       1.0  0.54700  0.76680  0.50290  1.0000
  C   C50       1.0  0.45300  0.26680  0.99710  1.0000
  C   C51       1.0  0.45300  0.23320  0.49710  1.0000
  C   C52       1.0  0.54700  0.73320  0.00290  1.0000
  C   C53       1.0  0.55120  0.75610  0.54270  1.0000
  C   C54       1.0  0.44880  0.25610  0.95730  1.0000
  C   C55       1.0  0.44880  0.24390  0.45730  1.0000
  C   C56       1.0  0.55120  0.74390  0.04270  1.0000
  H   H53       1.0  0.57940  0.76490  0.55680  1.0000
  H   H54       1.0  0.42060  0.26490  0.94320  1.0000
  H   H55       1.0  0.42060  0.23510  0.44320  1.0000
  H   H56       1.0  0.57940  0.73510  0.05680  1.0000
  C   C57       1.0  0.59120  0.78720  0.48490  1.0000
  C   C58       1.0  0.40880  0.28720  0.01510  1.0000
  C   C59       1.0  0.40880  0.21280  0.51510  1.0000
  C   C60       1.0  0.59120  0.71280  0.98490  1.0000
  C   C61       1.0  0.38870  0.72350  0.48600  1.0000
  C   C62       1.0  0.61130  0.22350  0.01400  1.0000
  C   C63       1.0  0.61130  0.27650  0.51400  1.0000
  C   C64       1.0  0.38870  0.77650  0.98600  1.0000
  C   C65       1.0  0.37820  0.84220  0.49940  1.0000
  C   C66       1.0  0.62180  0.34220  0.00060  1.0000
  C   C67       1.0  0.62180  0.15780  0.50060  1.0000
  C   C68       1.0  0.37820  0.65780  0.99940  1.0000
  H   H57       1.0  0.40070  0.90150  0.50730  1.0000
  H   H58       1.0  0.59930  0.40150  0.99270  1.0000
  H   H59       1.0  0.59930  0.09850  0.49270  1.0000
  H   H60       1.0  0.40070  0.59850  0.00730  1.0000
  C   C69       1.0  0.33280  0.87410  0.50120  1.0000
  C   C70       1.0  0.66720  0.37410  0.99880  1.0000
  C   C71       1.0  0.66720  0.12590  0.49880  1.0000
  C   C72       1.0  0.33280  0.62590  0.00120  1.0000
  H   H61       1.0  0.32510  0.95550  0.50990  1.0000
  H   H62       1.0  0.67490  0.45550  0.99010  1.0000
  H   H63       1.0  0.67490  0.04450  0.49010  1.0000
  H   H64       1.0  0.32510  0.54450  0.00990  1.0000
  C   C73       1.0  0.29940  0.78410  0.48980  1.0000
  C   C74       1.0  0.70060  0.28410  0.01020  1.0000
  C   C75       1.0  0.70060  0.21590  0.51020  1.0000
  C   C76       1.0  0.29940  0.71590  0.98980  1.0000
  C   C77       1.0  0.31110  0.66130  0.47839  1.0000
  C   C78       1.0  0.68890  0.16130  0.02161  1.0000
  C   C79       1.0  0.68890  0.33870  0.52161  1.0000
  C   C80       1.0  0.31110  0.83870  0.97839  1.0000
  C   C81       1.0  0.35620  0.63280  0.47670  1.0000
  C   C82       1.0  0.64380  0.13280  0.02330  1.0000
  C   C83       1.0  0.64380  0.36720  0.52330  1.0000
  C   C84       1.0  0.35620  0.86720  0.97670  1.0000
  H   H65       1.0  0.36440  0.55050  0.46900  1.0000
  H   H66       1.0  0.63560  0.05050  0.03100  1.0000
  H   H67       1.0  0.63560  0.44950  0.53100  1.0000
  H   H68       1.0  0.36440  0.94950  0.96900  1.0000
  C   C85       1.0  0.25160  0.83140  0.48650  1.0000
  C   C86       1.0  0.74840  0.33140  0.01350  1.0000
  C   C87       1.0  0.74840  0.16860  0.51350  1.0000
  C   C88       1.0  0.25160  0.66860  0.98650  1.0000
  C   C89       1.0  0.27620  0.56020  0.46480  1.0000
  C   C90       1.0  0.72380  0.06020  0.03520  1.0000
  C   C91       1.0  0.72380  0.43980  0.53520  1.0000
  C   C92       1.0  0.27620  0.93980  0.96480  1.0000
  C   C93       1.0  0.21420  0.43380  0.54214  1.0000
  C   C94       1.0  0.78580  0.93380  0.95786  1.0000
  C   C95       1.0  0.78580  0.56620  0.45786  1.0000
  C   C96       1.0  0.21420  0.06620  0.04214  1.0000
  C   C97       1.0  0.17940  0.33200  0.52890  1.0000
  C   C98       1.0  0.82060  0.83200  0.97110  1.0000
  C   C99       1.0  0.82060  0.66800  0.47110  1.0000
  C   C100      1.0  0.17940  0.16800  0.02890  1.0000
  C   C101      1.0  0.19100  0.20980  0.51713  1.0000
  C   C102      1.0  0.80900  0.70980  0.98287  1.0000
  C   C103      1.0  0.80900  0.79020  0.48287  1.0000
  C   C104      1.0  0.19100  0.29020  0.01713  1.0000
  C   C105      1.0  0.11260  0.15230  0.50640  1.0000
  C   C106      1.0  0.88740  0.65230  0.99360  1.0000
  C   C107      1.0  0.88740  0.84770  0.49360  1.0000
  C   C108      1.0  0.11260  0.34770  0.00640  1.0000
  H   H69       1.0  0.09030  0.09420  0.49700  1.0000
  H   H70       1.0  0.90970  0.59420  0.00300  1.0000
  H   H71       1.0  0.90970  0.90580  0.50300  1.0000
  H   H72       1.0  0.09030  0.40580  0.99700  1.0000
  C   C109      1.0  0.10140  0.26550  0.52150  1.0000
  C   C110      1.0  0.89860  0.76550  0.97850  1.0000
  C   C111      1.0  0.89860  0.73450  0.47850  1.0000
  C   C112      1.0  0.10140  0.23450  0.02150  1.0000
  C   C113      1.0  0.13340  0.35900  0.53050  1.0000
  C   C114      1.0  0.86660  0.85900  0.96950  1.0000
  C   C115      1.0  0.86660  0.64100  0.46950  1.0000
  C   C116      1.0  0.13340  0.14100  0.03050  1.0000
  H   H73       1.0  0.12470  0.44130  0.53770  1.0000
  H   H74       1.0  0.87530  0.94130  0.96230  1.0000
  H   H75       1.0  0.87530  0.55870  0.46230  1.0000
  H   H76       1.0  0.12470  0.05870  0.03770  1.0000
  C   C117      1.0  0.23910  0.16060  0.52054  1.0000
  C   C118      1.0  0.76090  0.66060  0.97946  1.0000
  C   C119      1.0  0.76090  0.83940  0.47946  1.0000
  C   C120      1.0  0.23910  0.33940  0.02054  1.0000
  C   C121      1.0  0.15710  0.12170  0.50480  1.0000
  C   C122      1.0  0.84290  0.62170  0.99520  1.0000
  C   C123      1.0  0.84290  0.87830  0.49520  1.0000
  C   C124      1.0  0.15710  0.37830  0.00480  1.0000
  H   H77       1.0  0.16480  0.04110  0.49550  1.0000
  H   H78       1.0  0.83520  0.54110  0.00450  1.0000
  H   H79       1.0  0.83520  0.95890  0.50450  1.0000
  H   H80       1.0  0.16480  0.45890  0.99550  1.0000
  C   C125      1.0  0.02080  0.26420  0.50520  1.0000
  C   C126      1.0  0.97920  0.76420  0.99480  1.0000
  C   C127      1.0  0.97920  0.73580  0.49480  1.0000
  C   C128      1.0  0.02080  0.23580  0.00520  1.0000
  C   C129      1.0  0.98100  0.24320  0.52020  1.0000
  C   C130      1.0  0.01900  0.74320  0.97980  1.0000
  C   C131      1.0  0.01900  0.75680  0.47980  1.0000
  C   C132      1.0  0.98100  0.25680  0.02020  1.0000
  H   H81       1.0  0.98040  0.23790  0.54720  1.0000
  H   H82       1.0  0.01960  0.73790  0.95280  1.0000
  H   H83       1.0  0.01960  0.76210  0.45280  1.0000
  H   H84       1.0  0.98040  0.26210  0.04720  1.0000
  C   C133      1.0  0.94280  0.22990  0.49659  1.0000
  C   C134      1.0  0.05720  0.72990  0.00341  1.0000
  C   C135      1.0  0.05720  0.77010  0.50341  1.0000
  C   C136      1.0  0.94280  0.27010  0.99659  1.0000
  C   C137      1.0  0.94320  0.23730  0.45720  1.0000
  C   C138      1.0  0.05680  0.73730  0.04280  1.0000
  C   C139      1.0  0.05680  0.76270  0.54280  1.0000
  C   C140      1.0  0.94320  0.26270  0.95720  1.0000
  H   H85       1.0  0.91600  0.23160  0.44150  1.0000
  H   H86       1.0  0.08400  0.73160  0.05850  1.0000
  H   H87       1.0  0.08400  0.76840  0.55850  1.0000
  H   H88       1.0  0.91600  0.26840  0.94150  1.0000
  C   C141      1.0  0.98180  0.25260  0.43965  1.0000
  C   C142      1.0  0.01820  0.75260  0.06035  1.0000
  C   C143      1.0  0.01820  0.74740  0.56035  1.0000
  C   C144      1.0  0.98180  0.24740  0.93965  1.0000
  C   C145      1.0  0.02250  0.26810  0.46440  1.0000
  C   C146      1.0  0.97750  0.76810  0.03560  1.0000
  C   C147      1.0  0.97750  0.73190  0.53560  1.0000
  C   C148      1.0  0.02250  0.23190  0.96440  1.0000
  H   H89       1.0  0.04960  0.28060  0.45380  1.0000
  H   H90       1.0  0.95040  0.78060  0.04620  1.0000
  H   H91       1.0  0.95040  0.71940  0.54620  1.0000
  H   H92       1.0  0.04960  0.21940  0.95380  1.0000
  C   C149      1.0  0.89810  0.21390  0.51440  1.0000
  C   C150      1.0  0.10190  0.71390  0.98560  1.0000
  C   C151      1.0  0.10190  0.78610  0.48560  1.0000
  C   C152      1.0  0.89810  0.28610  0.01440  1.0000
  C   C153      1.0  0.97970  0.37390  0.38083  1.0000
  C   C154      1.0  0.02030  0.87390  0.11917  1.0000
  C   C155      1.0  0.02030  0.62610  0.61917  1.0000
  C   C156      1.0  0.97970  0.12610  0.88083  1.0000
  C   C157      1.0  0.97900  0.36680  0.34093  1.0000
  C   C158      1.0  0.02100  0.86680  0.15907  1.0000
  C   C159      1.0  0.02100  0.63320  0.65907  1.0000
  C   C160      1.0  0.97900  0.13320  0.84093  1.0000
  H   H93       1.0  0.97760  0.28650  0.32860  1.0000
  H   H94       1.0  0.02240  0.78650  0.17140  1.0000
  H   H95       1.0  0.02240  0.71350  0.67140  1.0000
  H   H96       1.0  0.97760  0.21350  0.82860  1.0000
  C   C161      1.0  0.98040  0.47900  0.31870  1.0000
  C   C162      1.0  0.01960  0.97900  0.18130  1.0000
  C   C163      1.0  0.01960  0.52100  0.68130  1.0000
  C   C164      1.0  0.98040  0.02100  0.81870  1.0000
  C   C165      1.0  0.98400  0.59920  0.33728  1.0000
  C   C166      1.0  0.01600  0.09920  0.16272  1.0000
  C   C167      1.0  0.01600  0.40080  0.66272  1.0000
  C   C168      1.0  0.98400  0.90080  0.83728  1.0000
  C   C169      1.0  0.98470  0.60160  0.37762  1.0000
  C   C170      1.0  0.01530  0.10160  0.12238  1.0000
  C   C171      1.0  0.01530  0.39840  0.62238  1.0000
  C   C172      1.0  0.98470  0.89840  0.87762  1.0000
  H   H97       1.0  0.98740  0.68110  0.39040  1.0000
  H   H98       1.0  0.01260  0.18110  0.10960  1.0000
  H   H99       1.0  0.01260  0.31890  0.60960  1.0000
  H   H100      1.0  0.98740  0.81890  0.89040  1.0000
  C   C173      1.0  0.98150  0.49200  0.39963  1.0000
  C   C174      1.0  0.01850  0.99200  0.10037  1.0000
  C   C175      1.0  0.01850  0.50800  0.60037  1.0000
  C   C176      1.0  0.98150  0.00800  0.89963  1.0000
  H   H101      1.0  0.98060  0.49720  0.42660  1.0000
  H   H102      1.0  0.01940  0.99720  0.07340  1.0000
  H   H103      1.0  0.01940  0.50280  0.57340  1.0000
  H   H104      1.0  0.98060  0.00280  0.92660  1.0000
  C   C177      1.0  0.98400  0.72250  0.31497  1.0000
  C   C178      1.0  0.01600  0.22250  0.18503  1.0000
  C   C179      1.0  0.01600  0.27750  0.68503  1.0000
  C   C180      1.0  0.98400  0.77750  0.81497  1.0000
  C   C181      1.0  0.98130  0.46590  0.27510  1.0000
  C   C182      1.0  0.01870  0.96590  0.22490  1.0000
  C   C183      1.0  0.01870  0.53410  0.72490  1.0000
  C   C184      1.0  0.98130  0.03410  0.77510  1.0000
  C   C185      1.0  0.94330  0.95900  0.37940  1.0000
  C   C186      1.0  0.05670  0.45900  0.12060  1.0000
  C   C187      1.0  0.05670  0.04100  0.62060  1.0000
  C   C188      1.0  0.94330  0.54100  0.87940  1.0000
  H   H105      1.0  0.93380  0.87030  0.37730  1.0000
  H   H106      1.0  0.06620  0.37030  0.12270  1.0000
  H   H107      1.0  0.06620  0.12970  0.62270  1.0000
  H   H108      1.0  0.93380  0.62970  0.87730  1.0000
  H   H109      1.0  0.93300  0.99690  0.40240  1.0000
  H   H110      1.0  0.06700  0.49690  0.09760  1.0000
  H   H111      1.0  0.06700  0.00310  0.59760  1.0000
  H   H112      1.0  0.93300  0.50310  0.90240  1.0000
  H   H113      1.0  0.97550  0.96300  0.38130  1.0000
  H   H114      1.0  0.02450  0.46300  0.11870  1.0000
  H   H115      1.0  0.02450  0.03700  0.61870  1.0000
  H   H116      1.0  0.97550  0.53700  0.88130  1.0000
  C   C189      1.0  0.92410  0.03200  0.34402  1.0000
  C   C190      1.0  0.07590  0.53200  0.15598  1.0000
  C   C191      1.0  0.07590  0.96800  0.65598  1.0000
  C   C192      1.0  0.92410  0.46800  0.84402  1.0000
  C   C193      1.0  0.88310  0.09580  0.33791  1.0000
  C   C194      1.0  0.11690  0.59580  0.16209  1.0000
  C   C195      1.0  0.11690  0.90420  0.66209  1.0000
  C   C196      1.0  0.88310  0.40420  0.83791  1.0000
  C   C197      1.0  0.88200  0.15000  0.30055  1.0000
  C   C198      1.0  0.11800  0.65000  0.19945  1.0000
  C   C199      1.0  0.11800  0.85000  0.69945  1.0000
  C   C200      1.0  0.88200  0.35000  0.80055  1.0000
  C   C201      1.0  0.84770  0.23020  0.27760  1.0000
  C   C202      1.0  0.15230  0.73020  0.22240  1.0000
  C   C203      1.0  0.15230  0.76980  0.72240  1.0000
  C   C204      1.0  0.84770  0.26980  0.77760  1.0000
  H   H117      1.0  0.85920  0.31630  0.27500  1.0000
  H   H118      1.0  0.14080  0.81630  0.22500  1.0000
  H   H119      1.0  0.14080  0.68370  0.72500  1.0000
  H   H120      1.0  0.85920  0.18370  0.77500  1.0000
  H   H121      1.0  0.82100  0.23340  0.29080  1.0000
  H   H122      1.0  0.17900  0.73340  0.20920  1.0000
  H   H123      1.0  0.17900  0.76660  0.70920  1.0000
  H   H124      1.0  0.82100  0.26660  0.79080  1.0000
  H   H125      1.0  0.84080  0.19280  0.25210  1.0000
  H   H126      1.0  0.15920  0.69280  0.24790  1.0000
  H   H127      1.0  0.15920  0.80720  0.74790  1.0000
  H   H128      1.0  0.84080  0.30720  0.75210  1.0000
  C   C205      1.0  0.84420  0.35760  0.37350  1.0000
  C   C206      1.0  0.15580  0.85760  0.12650  1.0000
  C   C207      1.0  0.15580  0.64240  0.62650  1.0000
  C   C208      1.0  0.84420  0.14240  0.87350  1.0000
  H   H129      1.0  0.82420  0.38900  0.35180  1.0000
  H   H130      1.0  0.17580  0.88900  0.14820  1.0000
  H   H131      1.0  0.17580  0.61100  0.64820  1.0000
  H   H132      1.0  0.82420  0.11100  0.85180  1.0000
  H   H133      1.0  0.87460  0.36280  0.36710  1.0000
  H   H134      1.0  0.12540  0.86280  0.13290  1.0000
  H   H135      1.0  0.12540  0.63720  0.63290  1.0000
  H   H136      1.0  0.87460  0.13720  0.86710  1.0000
  H   H137      1.0  0.84090  0.40940  0.39620  1.0000
  H   H138      1.0  0.15910  0.90940  0.10380  1.0000
  H   H139      1.0  0.15910  0.59060  0.60380  1.0000
  H   H140      1.0  0.84090  0.09060  0.89620  1.0000
  C   C209      1.0  0.83310  0.22100  0.38163  1.0000
  C   C210      1.0  0.16690  0.72100  0.11837  1.0000
  C   C211      1.0  0.16690  0.77900  0.61837  1.0000
  C   C212      1.0  0.83310  0.27900  0.88163  1.0000
  C   C213      1.0  0.84950  0.10750  0.36621  1.0000
  C   C214      1.0  0.15050  0.60750  0.13379  1.0000
  C   C215      1.0  0.15050  0.89250  0.63379  1.0000
  C   C216      1.0  0.84950  0.39250  0.86621  1.0000
  C   C217      1.0  0.82900  0.00720  0.38420  1.0000
  C   C218      1.0  0.17100  0.50720  0.11580  1.0000
  C   C219      1.0  0.17100  0.99280  0.61580  1.0000
  C   C220      1.0  0.82900  0.49280  0.88420  1.0000
  C   C221      1.0  0.83180  0.86320  0.37960  1.0000
  C   C222      1.0  0.16820  0.36320  0.12040  1.0000
  C   C223      1.0  0.16820  0.13680  0.62040  1.0000
  C   C224      1.0  0.83180  0.63680  0.87960  1.0000
  H   H141      1.0  0.85410  0.82920  0.39900  1.0000
  H   H142      1.0  0.14590  0.32920  0.10100  1.0000
  H   H143      1.0  0.14590  0.17080  0.60100  1.0000
  H   H144      1.0  0.85410  0.67080  0.89900  1.0000
  H   H145      1.0  0.83980  0.84300  0.35400  1.0000
  H   H146      1.0  0.16020  0.34300  0.14600  1.0000
  H   H147      1.0  0.16020  0.15700  0.64600  1.0000
  H   H148      1.0  0.83980  0.65700  0.85400  1.0000
  H   H149      1.0  0.80310  0.82530  0.38310  1.0000
  H   H150      1.0  0.19690  0.32530  0.11690  1.0000
  H   H151      1.0  0.19690  0.17470  0.61690  1.0000
  H   H152      1.0  0.80310  0.67470  0.88310  1.0000
  C   C225      1.0  0.07590  0.03420  0.38580  1.0000
  C   C226      1.0  0.92410  0.53420  0.11420  1.0000
  C   C227      1.0  0.92410  0.96580  0.61420  1.0000
  C   C228      1.0  0.07590  0.46580  0.88580  1.0000
  H   H153      1.0  0.04910  0.05060  0.39810  1.0000
  H   H154      1.0  0.95090  0.55060  0.10190  1.0000
  H   H155      1.0  0.95090  0.94940  0.60190  1.0000
  H   H156      1.0  0.04910  0.44940  0.89810  1.0000
  H   H157      1.0  0.10170  0.04940  0.40430  1.0000
  H   H158      1.0  0.89830  0.54940  0.09570  1.0000
  H   H159      1.0  0.89830  0.95060  0.59570  1.0000
  H   H160      1.0  0.10170  0.45060  0.90430  1.0000
  H   H161      1.0  0.07600  0.94590  0.37710  1.0000
  H   H162      1.0  0.92400  0.44590  0.12290  1.0000
  H   H163      1.0  0.92400  0.05410  0.62290  1.0000
  H   H164      1.0  0.07600  0.55410  0.87710  1.0000
  C   C229      1.0  0.07740  0.12210  0.35180  1.0000
  C   C230      1.0  0.92260  0.62210  0.14820  1.0000
  C   C231      1.0  0.92260  0.87790  0.64820  1.0000
  C   C232      1.0  0.07740  0.37790  0.85180  1.0000
  C   C233      1.0  0.10300  0.23520  0.34900  1.0000
  C   C234      1.0  0.89700  0.73520  0.15100  1.0000
  C   C235      1.0  0.89700  0.76480  0.65100  1.0000
  C   C236      1.0  0.10300  0.26480  0.84900  1.0000
  C   C237      1.0  0.09240  0.27960  0.31150  1.0000
  C   C238      1.0  0.90760  0.77960  0.18850  1.0000
  C   C239      1.0  0.90760  0.72040  0.68850  1.0000
  C   C240      1.0  0.09240  0.22040  0.81150  1.0000
  C   C241      1.0  0.10950  0.39390  0.29090  1.0000
  C   C242      1.0  0.89050  0.89390  0.20910  1.0000
  C   C243      1.0  0.89050  0.60610  0.70910  1.0000
  C   C244      1.0  0.10950  0.10610  0.79090  1.0000
  H   H165      1.0  0.10380  0.38170  0.26310  1.0000
  H   H166      1.0  0.89620  0.88170  0.23690  1.0000
  H   H167      1.0  0.89620  0.61830  0.73690  1.0000
  H   H168      1.0  0.10380  0.11830  0.76310  1.0000
  H   H169      1.0  0.14120  0.40290  0.29800  1.0000
  H   H170      1.0  0.85880  0.90290  0.20200  1.0000
  H   H171      1.0  0.85880  0.59710  0.70200  1.0000
  H   H172      1.0  0.14120  0.09710  0.79800  1.0000
  H   H173      1.0  0.09430  0.47060  0.29840  1.0000
  H   H174      1.0  0.90570  0.97060  0.20160  1.0000
  H   H175      1.0  0.90570  0.52940  0.70160  1.0000
  H   H176      1.0  0.09430  0.02940  0.79840  1.0000
  C   C245      1.0  0.10320  0.51030  0.39470  1.0000
  C   C246      1.0  0.89680  0.01030  0.10530  1.0000
  C   C247      1.0  0.89680  0.48970  0.60530  1.0000
  C   C248      1.0  0.10320  0.98970  0.89470  1.0000
  H   H177      1.0  0.10280  0.55120  0.41980  1.0000
  H   H178      1.0  0.89720  0.05120  0.08020  1.0000
  H   H179      1.0  0.89720  0.44880  0.58020  1.0000
  H   H180      1.0  0.10280  0.94880  0.91980  1.0000
  H   H181      1.0  0.07410  0.47430  0.38670  1.0000
  H   H182      1.0  0.92590  0.97430  0.11330  1.0000
  H   H183      1.0  0.92590  0.52570  0.61330  1.0000
  H   H184      1.0  0.07410  0.02570  0.88670  1.0000
  H   H185      1.0  0.11050  0.57330  0.37580  1.0000
  H   H186      1.0  0.88950  0.07330  0.12420  1.0000
  H   H187      1.0  0.88950  0.42670  0.62420  1.0000
  H   H188      1.0  0.11050  0.92670  0.87580  1.0000
  C   C249      1.0  0.13720  0.40590  0.39750  1.0000
  C   C250      1.0  0.86280  0.90590  0.10250  1.0000
  C   C251      1.0  0.86280  0.59410  0.60250  1.0000
  C   C252      1.0  0.13720  0.09410  0.89750  1.0000
  C   C253      1.0  0.13740  0.28840  0.37901  1.0000
  C   C254      1.0  0.86260  0.78840  0.12099  1.0000
  C   C255      1.0  0.86260  0.71160  0.62099  1.0000
  C   C256      1.0  0.13740  0.21160  0.87901  1.0000
  C   C257      1.0  0.17820  0.23130  0.39200  1.0000
  C   C258      1.0  0.82180  0.73130  0.10800  1.0000
  C   C259      1.0  0.82180  0.76870  0.60800  1.0000
  C   C260      1.0  0.17820  0.26870  0.89200  1.0000
  C   C261      1.0  0.19550  0.10220  0.38010  1.0000
  C   C262      1.0  0.80450  0.60220  0.11990  1.0000
  C   C263      1.0  0.80450  0.89780  0.61990  1.0000
  C   C264      1.0  0.19550  0.39780  0.88010  1.0000
  H   H189      1.0  0.22330  0.11410  0.36890  1.0000
  H   H190      1.0  0.77670  0.61410  0.13110  1.0000
  H   H191      1.0  0.77670  0.88590  0.63110  1.0000
  H   H192      1.0  0.22330  0.38590  0.86890  1.0000
  H   H193      1.0  0.17390  0.06290  0.36110  1.0000
  H   H194      1.0  0.82610  0.56290  0.13890  1.0000
  H   H195      1.0  0.82610  0.93710  0.63890  1.0000
  H   H196      1.0  0.17390  0.43710  0.86110  1.0000
  H   H197      1.0  0.20040  0.04730  0.40270  1.0000
  H   H198      1.0  0.79960  0.54730  0.09730  1.0000
  H   H199      1.0  0.79960  0.95270  0.59730  1.0000
  H   H200      1.0  0.20040  0.45270  0.90270  1.0000
  C   C265      1.0  0.39080  0.46970  0.60800  1.0000
  C   C266      1.0  0.60920  0.96970  0.89200  1.0000
  C   C267      1.0  0.60920  0.53030  0.39200  1.0000
  C   C268      1.0  0.39080  0.03030  0.10800  1.0000
  H   H201      1.0  0.38150  0.40320  0.62500  1.0000
  H   H202      1.0  0.61850  0.90320  0.87500  1.0000
  H   H203      1.0  0.61850  0.59680  0.37500  1.0000
  H   H204      1.0  0.38150  0.09680  0.12500  1.0000
  H   H205      1.0  0.41980  0.50180  0.61820  1.0000
  H   H206      1.0  0.58020  0.00180  0.88180  1.0000
  H   H207      1.0  0.58020  0.49820  0.38180  1.0000
  H   H208      1.0  0.41980  0.99820  0.11820  1.0000
  H   H209      1.0  0.39260  0.43450  0.58230  1.0000
  H   H210      1.0  0.60740  0.93450  0.91770  1.0000
  H   H211      1.0  0.60740  0.56550  0.41770  1.0000
  H   H212      1.0  0.39260  0.06550  0.08230  1.0000
  C   C269      1.0  0.35830  0.57530  0.60580  1.0000
  C   C270      1.0  0.64170  0.07530  0.89420  1.0000
  C   C271      1.0  0.64170  0.42470  0.39420  1.0000
  C   C272      1.0  0.35830  0.92470  0.10580  1.0000
  C   C273      1.0  0.36060  0.69680  0.62285  1.0000
  C   C274      1.0  0.63940  0.19680  0.87715  1.0000
  C   C275      1.0  0.63940  0.30320  0.37715  1.0000
  C   C276      1.0  0.36060  0.80320  0.12285  1.0000
  C   C277      1.0  0.32010  0.75730  0.61030  1.0000
  C   C278      1.0  0.67990  0.25730  0.88970  1.0000
  C   C279      1.0  0.67990  0.24270  0.38970  1.0000
  C   C280      1.0  0.32010  0.74270  0.11030  1.0000
  C   C281      1.0  0.30460  0.88810  0.62150  1.0000
  C   C282      1.0  0.69540  0.38810  0.87850  1.0000
  C   C283      1.0  0.69540  0.11190  0.37850  1.0000
  C   C284      1.0  0.30460  0.61190  0.12150  1.0000
  H   H213      1.0  0.30100  0.94250  0.59870  1.0000
  H   H214      1.0  0.69900  0.44250  0.90130  1.0000
  H   H215      1.0  0.69900  0.05750  0.40130  1.0000
  H   H216      1.0  0.30100  0.55750  0.09870  1.0000
  H   H217      1.0  0.32640  0.92560  0.64070  1.0000
  H   H218      1.0  0.67360  0.42560  0.85930  1.0000
  H   H219      1.0  0.67360  0.07440  0.35930  1.0000
  H   H220      1.0  0.32640  0.57440  0.14070  1.0000
  H   H221      1.0  0.27630  0.88030  0.63230  1.0000
  H   H222      1.0  0.72370  0.38030  0.86770  1.0000
  H   H223      1.0  0.72370  0.11970  0.36770  1.0000
  H   H224      1.0  0.27630  0.61970  0.13230  1.0000
  C   C285      1.0  0.42610  0.94180  0.61230  1.0000
  C   C286      1.0  0.57390  0.44180  0.88770  1.0000
  C   C287      1.0  0.57390  0.05820  0.38770  1.0000
  C   C288      1.0  0.42610  0.55820  0.11230  1.0000
  H   H225      1.0  0.43010  0.03020  0.62060  1.0000
  H   H226      1.0  0.56990  0.53020  0.87940  1.0000
  H   H227      1.0  0.56990  0.96980  0.37940  1.0000
  H   H228      1.0  0.43010  0.46980  0.12060  1.0000
  H   H229      1.0  0.39850  0.93390  0.59540  1.0000
  H   H230      1.0  0.60150  0.43390  0.90460  1.0000
  H   H231      1.0  0.60150  0.06610  0.40460  1.0000
  H   H232      1.0  0.39850  0.56610  0.09540  1.0000
  H   H233      1.0  0.45080  0.91580  0.59840  1.0000
  H   H234      1.0  0.54920  0.41580  0.90160  1.0000
  H   H235      1.0  0.54920  0.08420  0.40160  1.0000
  H   H236      1.0  0.45080  0.58420  0.09840  1.0000
  C   C289      1.0  0.42410  0.85680  0.64735  1.0000
  C   C290      1.0  0.57590  0.35680  0.85265  1.0000
  C   C291      1.0  0.57590  0.14320  0.35265  1.0000
  C   C292      1.0  0.42410  0.64320  0.14735  1.0000
  C   C293      1.0  0.39660  0.74980  0.65146  1.0000
  C   C294      1.0  0.60340  0.24980  0.84854  1.0000
  C   C295      1.0  0.60340  0.25020  0.34854  1.0000
  C   C296      1.0  0.39660  0.75020  0.15146  1.0000
  C   C297      1.0  0.40700  0.70780  0.68943  1.0000
  C   C298      1.0  0.59300  0.20780  0.81057  1.0000
  C   C299      1.0  0.59300  0.29220  0.31057  1.0000
  C   C300      1.0  0.40700  0.79220  0.18943  1.0000
  C   C301      1.0  0.38780  0.60100  0.71140  1.0000
  C   C302      1.0  0.61220  0.10100  0.78860  1.0000
  C   C303      1.0  0.61220  0.39900  0.28860  1.0000
  C   C304      1.0  0.38780  0.89900  0.21140  1.0000
  H   H237      1.0  0.40420  0.52260  0.70790  1.0000
  H   H238      1.0  0.59580  0.02260  0.79210  1.0000
  H   H239      1.0  0.59580  0.47740  0.29210  1.0000
  H   H240      1.0  0.40420  0.97740  0.20790  1.0000
  H   H241      1.0  0.35680  0.58870  0.70180  1.0000
  H   H242      1.0  0.64320  0.08870  0.79820  1.0000
  H   H243      1.0  0.64320  0.41130  0.29820  1.0000
  H   H244      1.0  0.35680  0.91130  0.20180  1.0000
  H   H245      1.0  0.39000  0.62250  0.73870  1.0000
  H   H246      1.0  0.61000  0.12250  0.76130  1.0000
  H   H247      1.0  0.61000  0.37750  0.26130  1.0000
  H   H248      1.0  0.39000  0.87750  0.23870  1.0000
  C   C305      1.0  0.66640  0.79390  0.71450  1.0000
  C   C306      1.0  0.33360  0.29390  0.78550  1.0000
  C   C307      1.0  0.33360  0.20610  0.28550  1.0000
  C   C308      1.0  0.66640  0.70610  0.21450  1.0000
  H   H249      1.0  0.67530  0.83940  0.73840  1.0000
  H   H250      1.0  0.32470  0.33940  0.76160  1.0000
  H   H251      1.0  0.32470  0.16060  0.26160  1.0000
  H   H252      1.0  0.67530  0.66060  0.23840  1.0000
  H   H253      1.0  0.69110  0.79150  0.69870  1.0000
  H   H254      1.0  0.30890  0.29150  0.80130  1.0000
  H   H255      1.0  0.30890  0.20850  0.30130  1.0000
  H   H256      1.0  0.69110  0.70850  0.19870  1.0000
  H   H257      1.0  0.65780  0.70700  0.72040  1.0000
  H   H258      1.0  0.34220  0.20700  0.77960  1.0000
  H   H259      1.0  0.34220  0.29300  0.27960  1.0000
  H   H260      1.0  0.65780  0.79300  0.22040  1.0000
  C   C309      1.0  0.62780  0.86140  0.69280  1.0000
  C   C310      1.0  0.37220  0.36140  0.80720  1.0000
  C   C311      1.0  0.37220  0.13860  0.30720  1.0000
  C   C312      1.0  0.62780  0.63860  0.19280  1.0000
  C   C313      1.0  0.62220  0.91230  0.65469  1.0000
  C   C314      1.0  0.37780  0.41230  0.84531  1.0000
  C   C315      1.0  0.37780  0.08770  0.34531  1.0000
  C   C316      1.0  0.62220  0.58770  0.15469  1.0000
  C   C317      1.0  0.57980  0.96650  0.65041  1.0000
  C   C318      1.0  0.42020  0.46650  0.84959  1.0000
  C   C319      1.0  0.42020  0.03350  0.34959  1.0000
  C   C320      1.0  0.57980  0.53350  0.15041  1.0000
  C   C321      1.0  0.55660  0.03540  0.61560  1.0000
  C   C322      1.0  0.44340  0.53540  0.88440  1.0000
  C   C323      1.0  0.44340  0.96460  0.38440  1.0000
  C   C324      1.0  0.55660  0.46460  0.11560  1.0000
  H   H261      1.0  0.52460  0.02640  0.61560  1.0000
  H   H262      1.0  0.47540  0.52640  0.88440  1.0000
  H   H263      1.0  0.47540  0.97360  0.38440  1.0000
  H   H264      1.0  0.52460  0.47360  0.11560  1.0000
  H   H265      1.0  0.56580  0.99850  0.59210  1.0000
  H   H266      1.0  0.43420  0.49850  0.90790  1.0000
  H   H267      1.0  0.43420  0.00150  0.40790  1.0000
  H   H268      1.0  0.56580  0.50150  0.09210  1.0000
  H   H269      1.0  0.56440  0.12560  0.61690  1.0000
  H   H270      1.0  0.43560  0.62560  0.88310  1.0000
  H   H271      1.0  0.43560  0.87440  0.38310  1.0000
  H   H272      1.0  0.56440  0.37440  0.11690  1.0000
  C   C325      1.0  0.65700  0.65310  0.61690  1.0000
  C   C326      1.0  0.34300  0.15310  0.88310  1.0000
  C   C327      1.0  0.34300  0.34690  0.38310  1.0000
  C   C328      1.0  0.65700  0.84690  0.11690  1.0000
  H   H273      1.0  0.66110  0.60070  0.59440  1.0000
  H   H274      1.0  0.33890  0.10070  0.90560  1.0000
  H   H275      1.0  0.33890  0.39930  0.40560  1.0000
  H   H276      1.0  0.66110  0.89930  0.09440  1.0000
  H   H277      1.0  0.62610  0.64980  0.62200  1.0000
  H   H278      1.0  0.37390  0.14980  0.87800  1.0000
  H   H279      1.0  0.37390  0.35020  0.37800  1.0000
  H   H280      1.0  0.62610  0.85020  0.12200  1.0000
  H   H281      1.0  0.67570  0.62080  0.63920  1.0000
  H   H282      1.0  0.32430  0.12080  0.86080  1.0000
  H   H283      1.0  0.32430  0.37920  0.36080  1.0000
  H   H284      1.0  0.67570  0.87920  0.13920  1.0000
  C   C329      1.0  0.66960  0.78870  0.60920  1.0000
  C   C330      1.0  0.33040  0.28870  0.89080  1.0000
  C   C331      1.0  0.33040  0.21130  0.39080  1.0000
  C   C332      1.0  0.66960  0.71130  0.10920  1.0000
  C   C333      1.0  0.65510  0.90360  0.62564  1.0000
  C   C334      1.0  0.34490  0.40360  0.87436  1.0000
  C   C335      1.0  0.34490  0.09640  0.37436  1.0000
  C   C336      1.0  0.65510  0.59640  0.12564  1.0000
  C   C337      1.0  0.67540  0.00290  0.60750  1.0000
  C   C338      1.0  0.32460  0.50290  0.89250  1.0000
  C   C339      1.0  0.32460  0.99710  0.39250  1.0000
  C   C340      1.0  0.67540  0.49710  0.10750  1.0000
  C   C341      1.0  0.67420  0.14670  0.61360  1.0000
  C   C342      1.0  0.32580  0.64670  0.88640  1.0000
  C   C343      1.0  0.32580  0.85330  0.38640  1.0000
  C   C344      1.0  0.67420  0.35330  0.11360  1.0000
  H   H285      1.0  0.69650  0.18720  0.59950  1.0000
  H   H286      1.0  0.30350  0.68720  0.90050  1.0000
  H   H287      1.0  0.30350  0.81280  0.40050  1.0000
  H   H288      1.0  0.69650  0.31280  0.09950  1.0000
  H   H289      1.0  0.68050  0.16560  0.64100  1.0000
  H   H290      1.0  0.31950  0.66560  0.85900  1.0000
  H   H291      1.0  0.31950  0.83440  0.35900  1.0000
  H   H292      1.0  0.68050  0.33440  0.14100  1.0000
  H   H293      1.0  0.64500  0.17920  0.60430  1.0000
  H   H294      1.0  0.35500  0.67920  0.89570  1.0000
  H   H295      1.0  0.35500  0.82080  0.39570  1.0000
  H   H296      1.0  0.64500  0.32080  0.10430  1.0000
