data_image0
_chemical_formula_structural       Fe4O24C4H4C4H4C4H4
_chemical_formula_sum              "Fe4 O24 C12 H12"
_cell_length_a       8.811
_cell_length_b       7.782
_cell_length_c       11.657
_cell_angle_alpha    90
_cell_angle_beta     90
_cell_angle_gamma    90

_space_group_name_H-M_alt    "P 1"
_space_group_IT_number       1

loop_
  _space_group_symop_operation_xyz
  'x, y, z'

loop_
  _atom_site_type_symbol
  _atom_site_label
  _atom_site_symmetry_multiplicity
  _atom_site_fract_x
  _atom_site_fract_y
  _atom_site_fract_z
  _atom_site_occupancy
  Fe  Fe1       1.0  0.47383  0.50026  0.88889  1.0000
  Fe  Fe2       1.0  0.52617  0.49974  0.38889  1.0000
  Fe  Fe3       1.0  0.02617  0.00026  0.38889  1.0000
  Fe  Fe4       1.0  0.97383  0.99974  0.88889  1.0000
  O   O1        1.0  0.68880  0.58120  0.82260  1.0000
  O   O2        1.0  0.31120  0.41880  0.32260  1.0000
  O   O3        1.0  0.81120  0.08120  0.32260  1.0000
  O   O4        1.0  0.18880  0.91880  0.82260  1.0000
  O   O5        1.0  0.87560  0.77080  0.82150  1.0000
  O   O6        1.0  0.12440  0.22920  0.32150  1.0000
  O   O7        1.0  0.62440  0.27080  0.32150  1.0000
  O   O8        1.0  0.37560  0.72920  0.82150  1.0000
  O   O9        1.0  0.57390  0.27360  0.95772  1.0000
  O   O10       1.0  0.42610  0.72640  0.45772  1.0000
  O   O11       1.0  0.92610  0.77360  0.45772  1.0000
  O   O12       1.0  0.07390  0.22640  0.95772  1.0000
  O   O13       1.0  0.76160  0.08410  0.95950  1.0000
  O   O14       1.0  0.23840  0.91590  0.45950  1.0000
  O   O15       1.0  0.73840  0.58410  0.45950  1.0000
  O   O16       1.0  0.26160  0.41590  0.95950  1.0000
  O   O17       1.0  0.44530  0.35980  0.73203  1.0000
  O   O18       1.0  0.55470  0.64020  0.23203  1.0000
  O   O19       1.0  0.05470  0.85980  0.23203  1.0000
  O   O20       1.0  0.94530  0.14020  0.73203  1.0000
  O   O21       1.0  0.48450  0.36400  0.54450  1.0000
  O   O22       1.0  0.51550  0.63600  0.04450  1.0000
  O   O23       1.0  0.01550  0.86400  0.04450  1.0000
  O   O24       1.0  0.98450  0.13600  0.54450  1.0000
  C   C1        1.0  0.74570  0.72140  0.84900  1.0000
  C   C2        1.0  0.25430  0.27860  0.34900  1.0000
  C   C3        1.0  0.75430  0.22140  0.34900  1.0000
  C   C4        1.0  0.24570  0.77860  0.84900  1.0000
  H   H1        1.0  0.68700  0.79580  0.89280  1.0000
  H   H2        1.0  0.31300  0.20420  0.39280  1.0000
  H   H3        1.0  0.81300  0.29580  0.39280  1.0000
  H   H4        1.0  0.18700  0.70420  0.89280  1.0000
  C   C5        1.0  0.69200  0.21000  0.91920  1.0000
  C   C6        1.0  0.30800  0.79000  0.41920  1.0000
  C   C7        1.0  0.80800  0.71000  0.41920  1.0000
  C   C8        1.0  0.19200  0.29000  0.91920  1.0000
  H   H5        1.0  0.73280  0.26080  0.85390  1.0000
  H   H6        1.0  0.26720  0.73920  0.35390  1.0000
  H   H7        1.0  0.76720  0.76080  0.35390  1.0000
  H   H8        1.0  0.23280  0.23920  0.85390  1.0000
  C   C9        1.0  0.46850  0.43550  0.63830  1.0000
  C   C10       1.0  0.53150  0.56450  0.13830  1.0000
  C   C11       1.0  0.03150  0.93550  0.13830  1.0000
  C   C12       1.0  0.96850  0.06450  0.63830  1.0000
  H   H9        1.0  0.47400  0.55480  0.63970  1.0000
  H   H10       1.0  0.52600  0.44520  0.13970  1.0000
  H   H11       1.0  0.02600  0.05480  0.13970  1.0000
  H   H12       1.0  0.97400  0.94520  0.63970  1.0000
