data_image0
_chemical_formula_structural       Fe4O24C4H4C8H8
_chemical_formula_sum              "Fe4 O24 C12 H12"
_cell_length_a       8.736
_cell_length_b       11.763
_cell_length_c       7.871
_cell_angle_alpha    90
_cell_angle_beta     90
_cell_angle_gamma    90

_space_group_name_H-M_alt    "P 1"
_space_group_IT_number       1

loop_
  _space_group_symop_operation_xyz
  'x, y, z'

loop_
  _atom_site_type_symbol
  _atom_site_label
  _atom_site_symmetry_multiplicity
  _atom_site_fract_x
  _atom_site_fract_y
  _atom_site_fract_z
  _atom_site_occupancy
  Fe  Fe1       1.0  0.50000  0.00000  0.50000  1.0000
  Fe  Fe2       1.0  0.00000  0.00000  0.00000  1.0000
  Fe  Fe3       1.0  0.00000  0.50000  0.00000  1.0000
  Fe  Fe4       1.0  0.50000  0.50000  0.50000  1.0000
  O   O1        1.0  0.46464  0.15617  0.36613  1.0000
  O   O2        1.0  0.03536  0.84383  0.86613  1.0000
  O   O3        1.0  0.96464  0.34383  0.13387  1.0000
  O   O4        1.0  0.53536  0.65617  0.63387  1.0000
  O   O5        1.0  0.53536  0.84383  0.63387  1.0000
  O   O6        1.0  0.96464  0.15617  0.13387  1.0000
  O   O7        1.0  0.03536  0.65617  0.86613  1.0000
  O   O8        1.0  0.46464  0.34383  0.36613  1.0000
  O   O9        1.0  0.40243  0.06791  0.72685  1.0000
  O   O10       1.0  0.09757  0.93209  0.22685  1.0000
  O   O11       1.0  0.90243  0.43209  0.77315  1.0000
  O   O12       1.0  0.59757  0.56791  0.27315  1.0000
  O   O13       1.0  0.59757  0.93209  0.27315  1.0000
  O   O14       1.0  0.90243  0.06791  0.77315  1.0000
  O   O15       1.0  0.09757  0.56791  0.22685  1.0000
  O   O16       1.0  0.40243  0.43209  0.72685  1.0000
  O   O17       1.0  0.21747  0.06654  0.91839  1.0000
  O   O18       1.0  0.28253  0.93346  0.41839  1.0000
  O   O19       1.0  0.71747  0.43346  0.58161  1.0000
  O   O20       1.0  0.78253  0.56654  0.08161  1.0000
  O   O21       1.0  0.78253  0.93346  0.08161  1.0000
  O   O22       1.0  0.71747  0.06654  0.58161  1.0000
  O   O23       1.0  0.28253  0.56654  0.41839  1.0000
  O   O24       1.0  0.21747  0.43346  0.91839  1.0000
  C   C1        1.0  0.47240  0.25000  0.43780  1.0000
  C   C2        1.0  0.02760  0.75000  0.93780  1.0000
  C   C3        1.0  0.97240  0.25000  0.06220  1.0000
  C   C4        1.0  0.52760  0.75000  0.56220  1.0000
  H   H1        1.0  0.48510  0.25000  0.55510  1.0000
  H   H2        1.0  0.01490  0.75000  0.05510  1.0000
  H   H3        1.0  0.98510  0.25000  0.94490  1.0000
  H   H4        1.0  0.51490  0.75000  0.44490  1.0000
  C   C5        1.0  0.28040  0.03240  0.78580  1.0000
  C   C6        1.0  0.21960  0.96760  0.28580  1.0000
  C   C7        1.0  0.78040  0.46760  0.71420  1.0000
  C   C8        1.0  0.71960  0.53240  0.21420  1.0000
  C   C9        1.0  0.71960  0.96760  0.21420  1.0000
  C   C10       1.0  0.78040  0.03240  0.71420  1.0000
  C   C11       1.0  0.21960  0.53240  0.28580  1.0000
  C   C12       1.0  0.28040  0.46760  0.78580  1.0000
  H   H5        1.0  0.23110  0.97490  0.72580  1.0000
  H   H6        1.0  0.26890  0.02510  0.22580  1.0000
  H   H7        1.0  0.73110  0.52510  0.77420  1.0000
  H   H8        1.0  0.76890  0.47490  0.27420  1.0000
  H   H9        1.0  0.76890  0.02510  0.27420  1.0000
  H   H10       1.0  0.73110  0.97490  0.77420  1.0000
  H   H11       1.0  0.26890  0.47490  0.22580  1.0000
  H   H12       1.0  0.23110  0.52510  0.72580  1.0000
