data_image0
_chemical_formula_structural       Fe2O12C6H6
_chemical_formula_sum              "Fe2 O12 C6 H6"
_cell_length_a       7.946
_cell_length_b       7.946
_cell_length_c       7.618
_cell_angle_alpha    90
_cell_angle_beta     90
_cell_angle_gamma    120

_space_group_name_H-M_alt    "P 1"
_space_group_IT_number       1

loop_
  _space_group_symop_operation_xyz
  'x, y, z'

loop_
  _atom_site_type_symbol
  _atom_site_label
  _atom_site_symmetry_multiplicity
  _atom_site_fract_x
  _atom_site_fract_y
  _atom_site_fract_z
  _atom_site_occupancy
  Fe  Fe1       1.0  0.66670  0.33330  0.73180  1.0000
  Fe  Fe2       1.0  0.33340  0.66670  0.23180  1.0000
  O   O1        1.0  0.68460  0.56430  0.57760  1.0000
  O   O2        1.0  0.12030  0.68460  0.07760  1.0000
  O   O3        1.0  0.43570  0.12030  0.57760  1.0000
  O   O4        1.0  0.31540  0.43570  0.07760  1.0000
  O   O5        1.0  0.87970  0.31540  0.57760  1.0000
  O   O6        1.0  0.56430  0.87970  0.07760  1.0000
  O   O7        1.0  0.56440  0.68420  0.38550  1.0000
  O   O8        1.0  0.88020  0.56440  0.88550  1.0000
  O   O9        1.0  0.31580  0.88020  0.38550  1.0000
  O   O10       1.0  0.43560  0.31580  0.88550  1.0000
  O   O11       1.0  0.11980  0.43560  0.38550  1.0000
  O   O12       1.0  0.68420  0.11980  0.88550  1.0000
  C   C1        1.0  0.55570  0.55610  0.48180  1.0000
  C   C2        1.0  0.99960  0.55570  0.98180  1.0000
  C   C3        1.0  0.44390  0.99960  0.48180  1.0000
  C   C4        1.0  0.44430  0.44390  0.98180  1.0000
  C   C5        1.0  0.00040  0.44430  0.48180  1.0000
  C   C6        1.0  0.55610  0.00040  0.98180  1.0000
  H   H1        1.0  0.43830  0.43950  0.48260  1.0000
  H   H2        1.0  0.99880  0.43830  0.98260  1.0000
  H   H3        1.0  0.56050  0.99880  0.48260  1.0000
  H   H4        1.0  0.56170  0.56050  0.98260  1.0000
  H   H5        1.0  0.00120  0.56170  0.48260  1.0000
  H   H6        1.0  0.43950  0.00120  0.98260  1.0000
