data_image0
_chemical_formula_structural       Cd4O40C40H8C8H8
_chemical_formula_sum              "Cd4 O40 C48 H16"
_cell_length_a       13.5456
_cell_length_b       14.1399
_cell_length_c       11.8745
_cell_angle_alpha    90
_cell_angle_beta     90
_cell_angle_gamma    90

_space_group_name_H-M_alt    "P 1"
_space_group_IT_number       1

loop_
  _space_group_symop_operation_xyz
  'x, y, z'

loop_
  _atom_site_type_symbol
  _atom_site_label
  _atom_site_symmetry_multiplicity
  _atom_site_fract_x
  _atom_site_fract_y
  _atom_site_fract_z
  _atom_site_occupancy
  Cd  Cd1       1.0  0.00000  0.27384  0.25000  1.0000
  Cd  Cd2       1.0  0.50000  0.22616  0.75000  1.0000
  Cd  Cd3       1.0  0.00000  0.72616  0.75000  1.0000
  Cd  Cd4       1.0  0.50000  0.77384  0.25000  1.0000
  O   O1        1.0  0.27989  0.36637  0.46210  1.0000
  O   O2        1.0  0.22011  0.13363  0.96210  1.0000
  O   O3        1.0  0.72011  0.36637  0.03790  1.0000
  O   O4        1.0  0.77989  0.13363  0.53790  1.0000
  O   O5        1.0  0.72011  0.63363  0.53790  1.0000
  O   O6        1.0  0.77989  0.86637  0.03790  1.0000
  O   O7        1.0  0.27989  0.63363  0.96210  1.0000
  O   O8        1.0  0.22011  0.86637  0.46210  1.0000
  O   O9        1.0  0.10176  0.34650  0.36690  1.0000
  O   O10       1.0  0.39824  0.15350  0.86690  1.0000
  O   O11       1.0  0.89824  0.34650  0.13310  1.0000
  O   O12       1.0  0.60176  0.15350  0.63310  1.0000
  O   O13       1.0  0.89824  0.65350  0.63310  1.0000
  O   O14       1.0  0.60176  0.84650  0.13310  1.0000
  O   O15       1.0  0.10176  0.65350  0.86690  1.0000
  O   O16       1.0  0.39824  0.84650  0.36690  1.0000
  O   O17       1.0  0.36652  0.28164  0.64230  1.0000
  O   O18       1.0  0.13348  0.21836  0.14230  1.0000
  O   O19       1.0  0.63348  0.28164  0.85770  1.0000
  O   O20       1.0  0.86652  0.21836  0.35770  1.0000
  O   O21       1.0  0.63348  0.71836  0.35770  1.0000
  O   O22       1.0  0.86652  0.78164  0.85770  1.0000
  O   O23       1.0  0.36652  0.71836  0.14230  1.0000
  O   O24       1.0  0.13348  0.78164  0.64230  1.0000
  O   O25       1.0  0.14190  0.44180  0.22470  1.0000
  O   O26       1.0  0.35810  0.05820  0.72470  1.0000
  O   O27       1.0  0.85810  0.44180  0.27530  1.0000
  O   O28       1.0  0.64190  0.05820  0.77530  1.0000
  O   O29       1.0  0.85810  0.55820  0.77530  1.0000
  O   O30       1.0  0.64190  0.94180  0.27530  1.0000
  O   O31       1.0  0.14190  0.55820  0.72470  1.0000
  O   O32       1.0  0.35810  0.94180  0.22470  1.0000
  O   O33       1.0  0.50850  0.35020  0.60580  1.0000
  O   O34       1.0  0.99150  0.14980  0.10580  1.0000
  O   O35       1.0  0.49150  0.35020  0.89420  1.0000
  O   O36       1.0  0.00850  0.14980  0.39420  1.0000
  O   O37       1.0  0.49150  0.64980  0.39420  1.0000
  O   O38       1.0  0.00850  0.85020  0.89420  1.0000
  O   O39       1.0  0.50850  0.64980  0.10580  1.0000
  O   O40       1.0  0.99150  0.85020  0.60580  1.0000
  C   C1        1.0  0.41900  0.33550  0.58640  1.0000
  C   C2        1.0  0.08100  0.16450  0.08640  1.0000
  C   C3        1.0  0.58100  0.33550  0.91360  1.0000
  C   C4        1.0  0.91900  0.16450  0.41360  1.0000
  C   C5        1.0  0.58100  0.66450  0.41360  1.0000
  C   C6        1.0  0.91900  0.83550  0.91360  1.0000
  C   C7        1.0  0.41900  0.66450  0.08640  1.0000
  C   C8        1.0  0.08100  0.83550  0.58640  1.0000
  C   C9        1.0  0.15810  0.40040  0.31610  1.0000
  C   C10       1.0  0.34190  0.09960  0.81610  1.0000
  C   C11       1.0  0.84190  0.40040  0.18390  1.0000
  C   C12       1.0  0.65810  0.09960  0.68390  1.0000
  C   C13       1.0  0.84190  0.59960  0.68390  1.0000
  C   C14       1.0  0.65810  0.90040  0.18390  1.0000
  C   C15       1.0  0.15810  0.59960  0.81610  1.0000
  C   C16       1.0  0.34190  0.90040  0.31610  1.0000
  C   C17       1.0  0.37760  0.38070  0.48350  1.0000
  C   C18       1.0  0.12240  0.11930  0.98350  1.0000
  C   C19       1.0  0.62240  0.38070  0.01650  1.0000
  C   C20       1.0  0.87760  0.11930  0.51650  1.0000
  C   C21       1.0  0.62240  0.61930  0.51650  1.0000
  C   C22       1.0  0.87760  0.88070  0.01650  1.0000
  C   C23       1.0  0.37760  0.61930  0.98350  1.0000
  C   C24       1.0  0.12240  0.88070  0.48350  1.0000
  C   C25       1.0  0.25980  0.41150  0.36220  1.0000
  C   C26       1.0  0.24020  0.08850  0.86220  1.0000
  C   C27       1.0  0.74020  0.41150  0.13780  1.0000
  C   C28       1.0  0.75980  0.08850  0.63780  1.0000
  C   C29       1.0  0.74020  0.58850  0.63780  1.0000
  C   C30       1.0  0.75980  0.91150  0.13780  1.0000
  C   C31       1.0  0.25980  0.58850  0.86220  1.0000
  C   C32       1.0  0.24020  0.91150  0.36220  1.0000
  C   C33       1.0  0.41860  0.43290  0.40050  1.0000
  C   C34       1.0  0.08140  0.06710  0.90050  1.0000
  C   C35       1.0  0.58140  0.43290  0.09950  1.0000
  C   C36       1.0  0.91860  0.06710  0.59950  1.0000
  C   C37       1.0  0.58140  0.56710  0.59950  1.0000
  C   C38       1.0  0.91860  0.93290  0.09950  1.0000
  C   C39       1.0  0.41860  0.56710  0.90050  1.0000
  C   C40       1.0  0.08140  0.93290  0.40050  1.0000
  H   H1        1.0  0.48420  0.45190  0.39540  1.0000
  H   H2        1.0  0.01580  0.04810  0.89540  1.0000
  H   H3        1.0  0.51580  0.45190  0.10460  1.0000
  H   H4        1.0  0.98420  0.04810  0.60460  1.0000
  H   H5        1.0  0.51580  0.54810  0.60460  1.0000
  H   H6        1.0  0.98420  0.95190  0.10460  1.0000
  H   H7        1.0  0.48420  0.54810  0.89540  1.0000
  H   H8        1.0  0.01580  0.95190  0.39540  1.0000
  C   C41       1.0  0.34230  0.45320  0.32290  1.0000
  C   C42       1.0  0.15770  0.04680  0.82290  1.0000
  C   C43       1.0  0.65770  0.45320  0.17710  1.0000
  C   C44       1.0  0.84230  0.04680  0.67710  1.0000
  C   C45       1.0  0.65770  0.54680  0.67710  1.0000
  C   C46       1.0  0.84230  0.95320  0.17710  1.0000
  C   C47       1.0  0.34230  0.54680  0.82290  1.0000
  C   C48       1.0  0.15770  0.95320  0.32290  1.0000
  H   H9        1.0  0.34800  0.48850  0.25720  1.0000
  H   H10       1.0  0.15200  0.01150  0.75720  1.0000
  H   H11       1.0  0.65200  0.48850  0.24280  1.0000
  H   H12       1.0  0.84800  0.01150  0.74280  1.0000
  H   H13       1.0  0.65200  0.51150  0.74280  1.0000
  H   H14       1.0  0.84800  0.98850  0.24280  1.0000
  H   H15       1.0  0.34800  0.51150  0.75720  1.0000
  H   H16       1.0  0.15200  0.98850  0.25720  1.0000
