data_image0
_chemical_formula_structural       Cd4O40C40H8C8H8
_chemical_formula_sum              "Cd4 O40 C48 H16"
_cell_length_a       13.5194
_cell_length_b       14.1352
_cell_length_c       11.8515
_cell_angle_alpha    90
_cell_angle_beta     90
_cell_angle_gamma    90

_space_group_name_H-M_alt    "P 1"
_space_group_IT_number       1

loop_
  _space_group_symop_operation_xyz
  'x, y, z'

loop_
  _atom_site_type_symbol
  _atom_site_label
  _atom_site_symmetry_multiplicity
  _atom_site_fract_x
  _atom_site_fract_y
  _atom_site_fract_z
  _atom_site_occupancy
  Cd  Cd1       1.0  0.00000  0.72617  0.75000  1.0000
  Cd  Cd2       1.0  0.50000  0.77383  0.25000  1.0000
  Cd  Cd3       1.0  0.00000  0.27383  0.25000  1.0000
  Cd  Cd4       1.0  0.50000  0.22617  0.75000  1.0000
  O   O1        1.0  0.72034  0.63356  0.53797  1.0000
  O   O2        1.0  0.77966  0.86644  0.03797  1.0000
  O   O3        1.0  0.27966  0.63356  0.96203  1.0000
  O   O4        1.0  0.22034  0.86644  0.46203  1.0000
  O   O5        1.0  0.27966  0.36644  0.46203  1.0000
  O   O6        1.0  0.22034  0.13356  0.96203  1.0000
  O   O7        1.0  0.72034  0.36644  0.03797  1.0000
  O   O8        1.0  0.77966  0.13356  0.53797  1.0000
  O   O9        1.0  0.63330  0.71847  0.35740  1.0000
  O   O10       1.0  0.86670  0.78153  0.85740  1.0000
  O   O11       1.0  0.36670  0.71847  0.14260  1.0000
  O   O12       1.0  0.13330  0.78153  0.64260  1.0000
  O   O13       1.0  0.36670  0.28153  0.64260  1.0000
  O   O14       1.0  0.13330  0.21847  0.14260  1.0000
  O   O15       1.0  0.63330  0.28153  0.85740  1.0000
  O   O16       1.0  0.86670  0.21847  0.35740  1.0000
  O   O17       1.0  0.89817  0.65356  0.63300  1.0000
  O   O18       1.0  0.60183  0.84644  0.13300  1.0000
  O   O19       1.0  0.10183  0.65356  0.86700  1.0000
  O   O20       1.0  0.39817  0.84644  0.36700  1.0000
  O   O21       1.0  0.10183  0.34644  0.36700  1.0000
  O   O22       1.0  0.39817  0.15356  0.86700  1.0000
  O   O23       1.0  0.89817  0.34644  0.13300  1.0000
  O   O24       1.0  0.60183  0.15356  0.63300  1.0000
  O   O25       1.0  0.85819  0.55828  0.77530  1.0000
  O   O26       1.0  0.64181  0.94172  0.27530  1.0000
  O   O27       1.0  0.14181  0.55828  0.72470  1.0000
  O   O28       1.0  0.35819  0.94172  0.22470  1.0000
  O   O29       1.0  0.14181  0.44172  0.22470  1.0000
  O   O30       1.0  0.35819  0.05828  0.72470  1.0000
  O   O31       1.0  0.85819  0.44172  0.27530  1.0000
  O   O32       1.0  0.64181  0.05828  0.77530  1.0000
  O   O33       1.0  0.49144  0.64990  0.39380  1.0000
  O   O34       1.0  0.00856  0.85010  0.89380  1.0000
  O   O35       1.0  0.50856  0.64990  0.10620  1.0000
  O   O36       1.0  0.99144  0.85010  0.60620  1.0000
  O   O37       1.0  0.50856  0.35010  0.60620  1.0000
  O   O38       1.0  0.99144  0.14990  0.10620  1.0000
  O   O39       1.0  0.49144  0.35010  0.89380  1.0000
  O   O40       1.0  0.00856  0.14990  0.39380  1.0000
  C   C1        1.0  0.58110  0.66440  0.41370  1.0000
  C   C2        1.0  0.91890  0.83560  0.91370  1.0000
  C   C3        1.0  0.41890  0.66440  0.08630  1.0000
  C   C4        1.0  0.08110  0.83560  0.58630  1.0000
  C   C5        1.0  0.41890  0.33560  0.58630  1.0000
  C   C6        1.0  0.08110  0.16440  0.08630  1.0000
  C   C7        1.0  0.58110  0.33560  0.91370  1.0000
  C   C8        1.0  0.91890  0.16440  0.41370  1.0000
  C   C9        1.0  0.84170  0.59980  0.68440  1.0000
  C   C10       1.0  0.65830  0.90020  0.18440  1.0000
  C   C11       1.0  0.15830  0.59980  0.81560  1.0000
  C   C12       1.0  0.34170  0.90020  0.31560  1.0000
  C   C13       1.0  0.15830  0.40020  0.31560  1.0000
  C   C14       1.0  0.34170  0.09980  0.81560  1.0000
  C   C15       1.0  0.84170  0.40020  0.18440  1.0000
  C   C16       1.0  0.65830  0.09980  0.68440  1.0000
  C   C17       1.0  0.62220  0.61920  0.51640  1.0000
  C   C18       1.0  0.87780  0.88080  0.01640  1.0000
  C   C19       1.0  0.37780  0.61920  0.98360  1.0000
  C   C20       1.0  0.12220  0.88080  0.48360  1.0000
  C   C21       1.0  0.37780  0.38080  0.48360  1.0000
  C   C22       1.0  0.12220  0.11920  0.98360  1.0000
  C   C23       1.0  0.62220  0.38080  0.01640  1.0000
  C   C24       1.0  0.87780  0.11920  0.51640  1.0000
  C   C25       1.0  0.74070  0.58860  0.63730  1.0000
  C   C26       1.0  0.75930  0.91140  0.13730  1.0000
  C   C27       1.0  0.25930  0.58860  0.86270  1.0000
  C   C28       1.0  0.24070  0.91140  0.36270  1.0000
  C   C29       1.0  0.25930  0.41140  0.36270  1.0000
  C   C30       1.0  0.24070  0.08860  0.86270  1.0000
  C   C31       1.0  0.74070  0.41140  0.13730  1.0000
  C   C32       1.0  0.75930  0.08860  0.63730  1.0000
  C   C33       1.0  0.58160  0.56700  0.59910  1.0000
  C   C34       1.0  0.91840  0.93300  0.09910  1.0000
  C   C35       1.0  0.41840  0.56700  0.90090  1.0000
  C   C36       1.0  0.08160  0.93300  0.40090  1.0000
  C   C37       1.0  0.41840  0.43300  0.40090  1.0000
  C   C38       1.0  0.08160  0.06700  0.90090  1.0000
  C   C39       1.0  0.58160  0.43300  0.09910  1.0000
  C   C40       1.0  0.91840  0.06700  0.59910  1.0000
  H   H1        1.0  0.51590  0.54790  0.60390  1.0000
  H   H2        1.0  0.98410  0.95210  0.10390  1.0000
  H   H3        1.0  0.48410  0.54790  0.89610  1.0000
  H   H4        1.0  0.01590  0.95210  0.39610  1.0000
  H   H5        1.0  0.48410  0.45210  0.39610  1.0000
  H   H6        1.0  0.01590  0.04790  0.89610  1.0000
  H   H7        1.0  0.51590  0.45210  0.10390  1.0000
  H   H8        1.0  0.98410  0.04790  0.60390  1.0000
  C   C41       1.0  0.65730  0.54670  0.67710  1.0000
  C   C42       1.0  0.84270  0.95330  0.17710  1.0000
  C   C43       1.0  0.34270  0.54670  0.82290  1.0000
  C   C44       1.0  0.15730  0.95330  0.32290  1.0000
  C   C45       1.0  0.34270  0.45330  0.32290  1.0000
  C   C46       1.0  0.15730  0.04670  0.82290  1.0000
  C   C47       1.0  0.65730  0.45330  0.17710  1.0000
  C   C48       1.0  0.84270  0.04670  0.67710  1.0000
  H   H9        1.0  0.65130  0.51140  0.74300  1.0000
  H   H10       1.0  0.84870  0.98860  0.24300  1.0000
  H   H11       1.0  0.34870  0.51140  0.75700  1.0000
  H   H12       1.0  0.15130  0.98860  0.25700  1.0000
  H   H13       1.0  0.34870  0.48860  0.25700  1.0000
  H   H14       1.0  0.15130  0.01140  0.75700  1.0000
  H   H15       1.0  0.65130  0.48860  0.24300  1.0000
  H   H16       1.0  0.84870  0.01140  0.74300  1.0000
