data_image0
_chemical_formula_structural       U10O68C24H8C16H8C8H8C24
_chemical_formula_sum              "U10 O68 C72 H24"
_cell_length_a       21.4579
_cell_length_b       15.3818
_cell_length_c       11.6804
_cell_angle_alpha    90
_cell_angle_beta     118.501
_cell_angle_gamma    90

_space_group_name_H-M_alt    "P 1"
_space_group_IT_number       1

loop_
  _space_group_symop_operation_xyz
  'x, y, z'

loop_
  _atom_site_type_symbol
  _atom_site_label
  _atom_site_symmetry_multiplicity
  _atom_site_fract_x
  _atom_site_fract_y
  _atom_site_fract_z
  _atom_site_occupancy
  U   U1        1.0  0.50000  0.50000  0.00000  1.0000
  U   U2        1.0  0.00000  0.00000  0.00000  1.0000
  U   U3        1.0  0.47286  0.76319  0.69864  1.0000
  U   U4        1.0  0.52714  0.76319  0.30136  1.0000
  U   U5        1.0  0.97286  0.26319  0.69864  1.0000
  U   U6        1.0  0.02714  0.26319  0.30136  1.0000
  U   U7        1.0  0.52714  0.23681  0.30136  1.0000
  U   U8        1.0  0.47286  0.23681  0.69864  1.0000
  U   U9        1.0  0.02714  0.73681  0.30136  1.0000
  U   U10       1.0  0.97286  0.73681  0.69864  1.0000
  O   O1        1.0  0.42990  0.50000  0.83800  1.0000
  O   O2        1.0  0.57010  0.50000  0.16200  1.0000
  O   O3        1.0  0.92990  0.00000  0.83800  1.0000
  O   O4        1.0  0.07010  0.00000  0.16200  1.0000
  O   O5        1.0  0.48240  0.65910  0.64600  1.0000
  O   O6        1.0  0.51760  0.65910  0.35400  1.0000
  O   O7        1.0  0.98240  0.15910  0.64600  1.0000
  O   O8        1.0  0.01760  0.15910  0.35400  1.0000
  O   O9        1.0  0.51760  0.34090  0.35400  1.0000
  O   O10       1.0  0.48240  0.34090  0.64600  1.0000
  O   O11       1.0  0.01760  0.84090  0.35400  1.0000
  O   O12       1.0  0.98240  0.84090  0.64600  1.0000
  O   O13       1.0  0.46320  0.86820  0.74910  1.0000
  O   O14       1.0  0.53680  0.86820  0.25090  1.0000
  O   O15       1.0  0.96320  0.36820  0.74910  1.0000
  O   O16       1.0  0.03680  0.36820  0.25090  1.0000
  O   O17       1.0  0.53680  0.13180  0.25090  1.0000
  O   O18       1.0  0.46320  0.13180  0.74910  1.0000
  O   O19       1.0  0.03680  0.63180  0.25090  1.0000
  O   O20       1.0  0.96320  0.63180  0.74910  1.0000
  O   O21       1.0  0.43860  0.59870  0.05910  1.0000
  O   O22       1.0  0.56140  0.59870  0.94090  1.0000
  O   O23       1.0  0.93860  0.09870  0.05910  1.0000
  O   O24       1.0  0.06140  0.09870  0.94090  1.0000
  O   O25       1.0  0.56140  0.40130  0.94090  1.0000
  O   O26       1.0  0.43860  0.40130  0.05910  1.0000
  O   O27       1.0  0.06140  0.90130  0.94090  1.0000
  O   O28       1.0  0.93860  0.90130  0.05910  1.0000
  O   O29       1.0  0.42380  0.73680  0.09850  1.0000
  O   O30       1.0  0.57620  0.73680  0.90150  1.0000
  O   O31       1.0  0.92380  0.23680  0.09850  1.0000
  O   O32       1.0  0.07620  0.23680  0.90150  1.0000
  O   O33       1.0  0.57620  0.26320  0.90150  1.0000
  O   O34       1.0  0.42380  0.26320  0.09850  1.0000
  O   O35       1.0  0.07620  0.76320  0.90150  1.0000
  O   O36       1.0  0.92380  0.76320  0.09850  1.0000
  O   O37       1.0  0.43090  0.70740  0.84520  1.0000
  O   O38       1.0  0.56910  0.70740  0.15480  1.0000
  O   O39       1.0  0.93090  0.20740  0.84520  1.0000
  O   O40       1.0  0.06910  0.20740  0.15480  1.0000
  O   O41       1.0  0.56910  0.29260  0.15480  1.0000
  O   O42       1.0  0.43090  0.29260  0.84520  1.0000
  O   O43       1.0  0.06910  0.79260  0.15480  1.0000
  O   O44       1.0  0.93090  0.79260  0.84520  1.0000
  O   O45       1.0  0.35010  0.72740  0.64230  1.0000
  O   O46       1.0  0.64990  0.72740  0.35770  1.0000
  O   O47       1.0  0.85010  0.22740  0.64230  1.0000
  O   O48       1.0  0.14990  0.22740  0.35770  1.0000
  O   O49       1.0  0.64990  0.27260  0.35770  1.0000
  O   O50       1.0  0.35010  0.27260  0.64230  1.0000
  O   O51       1.0  0.14990  0.77260  0.35770  1.0000
  O   O52       1.0  0.85010  0.77260  0.64230  1.0000
  O   O53       1.0  0.09670  0.69380  0.51690  1.0000
  O   O54       1.0  0.90330  0.69380  0.48310  1.0000
  O   O55       1.0  0.59670  0.19380  0.51690  1.0000
  O   O56       1.0  0.40330  0.19380  0.48310  1.0000
  O   O57       1.0  0.90330  0.30620  0.48310  1.0000
  O   O58       1.0  0.09670  0.30620  0.51690  1.0000
  O   O59       1.0  0.40330  0.80620  0.48310  1.0000
  O   O60       1.0  0.59670  0.80620  0.51690  1.0000
  O   O61       1.0  0.06370  0.68200  0.66590  1.0000
  O   O62       1.0  0.93630  0.68200  0.33410  1.0000
  O   O63       1.0  0.56370  0.18200  0.66590  1.0000
  O   O64       1.0  0.43630  0.18200  0.33410  1.0000
  O   O65       1.0  0.93630  0.31800  0.33410  1.0000
  O   O66       1.0  0.06370  0.31800  0.66590  1.0000
  O   O67       1.0  0.43630  0.81800  0.33410  1.0000
  O   O68       1.0  0.56370  0.81800  0.66590  1.0000
  C   C1        1.0  0.32810  0.66800  0.92310  1.0000
  C   C2        1.0  0.67190  0.66800  0.07690  1.0000
  C   C3        1.0  0.82810  0.16800  0.92310  1.0000
  C   C4        1.0  0.17190  0.16800  0.07690  1.0000
  C   C5        1.0  0.67190  0.33200  0.07690  1.0000
  C   C6        1.0  0.32810  0.33200  0.92310  1.0000
  C   C7        1.0  0.17190  0.83200  0.07690  1.0000
  C   C8        1.0  0.82810  0.83200  0.92310  1.0000
  C   C9        1.0  0.31030  0.68910  0.79450  1.0000
  C   C10       1.0  0.68970  0.68910  0.20550  1.0000
  C   C11       1.0  0.81030  0.18910  0.79450  1.0000
  C   C12       1.0  0.18970  0.18910  0.20550  1.0000
  C   C13       1.0  0.68970  0.31090  0.20550  1.0000
  C   C14       1.0  0.31030  0.31090  0.79450  1.0000
  C   C15       1.0  0.18970  0.81090  0.20550  1.0000
  C   C16       1.0  0.81030  0.81090  0.79450  1.0000
  C   C17       1.0  0.23970  0.69260  0.70070  1.0000
  C   C18       1.0  0.76030  0.69260  0.29930  1.0000
  C   C19       1.0  0.73970  0.19260  0.70070  1.0000
  C   C20       1.0  0.26030  0.19260  0.29930  1.0000
  C   C21       1.0  0.76030  0.30740  0.29930  1.0000
  C   C22       1.0  0.23970  0.30740  0.70070  1.0000
  C   C23       1.0  0.26030  0.80740  0.29930  1.0000
  C   C24       1.0  0.73970  0.80740  0.70070  1.0000
  H   H1        1.0  0.22767  0.70547  0.61301  1.0000
  H   H2        1.0  0.77233  0.70547  0.38699  1.0000
  H   H3        1.0  0.72767  0.20547  0.61301  1.0000
  H   H4        1.0  0.27233  0.20547  0.38699  1.0000
  H   H5        1.0  0.77233  0.29453  0.38699  1.0000
  H   H6        1.0  0.22767  0.29453  0.61301  1.0000
  H   H7        1.0  0.27233  0.79453  0.38699  1.0000
  H   H8        1.0  0.72767  0.79453  0.61301  1.0000
  C   C25       1.0  0.18620  0.67750  0.73290  1.0000
  C   C26       1.0  0.81380  0.67750  0.26710  1.0000
  C   C27       1.0  0.68620  0.17750  0.73290  1.0000
  C   C28       1.0  0.31380  0.17750  0.26710  1.0000
  C   C29       1.0  0.81380  0.32250  0.26710  1.0000
  C   C30       1.0  0.18620  0.32250  0.73290  1.0000
  C   C31       1.0  0.31380  0.82250  0.26710  1.0000
  C   C32       1.0  0.68620  0.82250  0.73290  1.0000
  C   C33       1.0  0.20400  0.65550  0.86040  1.0000
  C   C34       1.0  0.79600  0.65550  0.13960  1.0000
  C   C35       1.0  0.70400  0.15550  0.86040  1.0000
  C   C36       1.0  0.29600  0.15550  0.13960  1.0000
  C   C37       1.0  0.79600  0.34450  0.13960  1.0000
  C   C38       1.0  0.20400  0.34450  0.86040  1.0000
  C   C39       1.0  0.29600  0.84450  0.13960  1.0000
  C   C40       1.0  0.70400  0.84450  0.86040  1.0000
  H   H9        1.0  0.16772  0.64399  0.88298  1.0000
  H   H10       1.0  0.83228  0.64399  0.11702  1.0000
  H   H11       1.0  0.66772  0.14399  0.88298  1.0000
  H   H12       1.0  0.33228  0.14399  0.11702  1.0000
  H   H13       1.0  0.83228  0.35601  0.11702  1.0000
  H   H14       1.0  0.16772  0.35601  0.88298  1.0000
  H   H15       1.0  0.33228  0.85601  0.11702  1.0000
  H   H16       1.0  0.66772  0.85601  0.88298  1.0000
  C   C41       1.0  0.27450  0.65050  0.95430  1.0000
  C   C42       1.0  0.72550  0.65050  0.04570  1.0000
  C   C43       1.0  0.77450  0.15050  0.95430  1.0000
  C   C44       1.0  0.22550  0.15050  0.04570  1.0000
  C   C45       1.0  0.72550  0.34950  0.04570  1.0000
  C   C46       1.0  0.27450  0.34950  0.95430  1.0000
  C   C47       1.0  0.22550  0.84950  0.04570  1.0000
  C   C48       1.0  0.77450  0.84950  0.95430  1.0000
  H   H17       1.0  0.28631  0.63492  0.04106  1.0000
  H   H18       1.0  0.71369  0.63492  0.95894  1.0000
  H   H19       1.0  0.78631  0.13492  0.04106  1.0000
  H   H20       1.0  0.21369  0.13492  0.95894  1.0000
  H   H21       1.0  0.71369  0.36508  0.95894  1.0000
  H   H22       1.0  0.28631  0.36508  0.04106  1.0000
  H   H23       1.0  0.21369  0.86508  0.95894  1.0000
  H   H24       1.0  0.78631  0.86508  0.04106  1.0000
  C   C49       1.0  0.40320  0.66790  0.03210  1.0000
  C   C50       1.0  0.59680  0.66790  0.96790  1.0000
  C   C51       1.0  0.90320  0.16790  0.03210  1.0000
  C   C52       1.0  0.09680  0.16790  0.96790  1.0000
  C   C53       1.0  0.59680  0.33210  0.96790  1.0000
  C   C54       1.0  0.40320  0.33210  0.03210  1.0000
  C   C55       1.0  0.09680  0.83210  0.96790  1.0000
  C   C56       1.0  0.90320  0.83210  0.03210  1.0000
  C   C57       1.0  0.36660  0.70850  0.75820  1.0000
  C   C58       1.0  0.63340  0.70850  0.24180  1.0000
  C   C59       1.0  0.86660  0.20850  0.75820  1.0000
  C   C60       1.0  0.13340  0.20850  0.24180  1.0000
  C   C61       1.0  0.63340  0.29150  0.24180  1.0000
  C   C62       1.0  0.36660  0.29150  0.75820  1.0000
  C   C63       1.0  0.13340  0.79150  0.24180  1.0000
  C   C64       1.0  0.86660  0.79150  0.75820  1.0000
  C   C65       1.0  0.11040  0.68600  0.63130  1.0000
  C   C66       1.0  0.88960  0.68600  0.36870  1.0000
  C   C67       1.0  0.61040  0.18600  0.63130  1.0000
  C   C68       1.0  0.38960  0.18600  0.36870  1.0000
  C   C69       1.0  0.88960  0.31400  0.36870  1.0000
  C   C70       1.0  0.11040  0.31400  0.63130  1.0000
  C   C71       1.0  0.38960  0.81400  0.36870  1.0000
  C   C72       1.0  0.61040  0.81400  0.63130  1.0000
