data_image0
_chemical_formula_structural       U16O84C8S4C4O8C4H4C4H4C8H4C4H4C12H4C8H4C12H4C8H4C4H4C4H4S8O12C12H4C4H4O8C8H4C4H4C4H4C4H4C8H4C8H4C4H4C4H4C4H4C4H4C4H4C4H4C12U16O76S8O8C4S4O16C8H4C4H4C8H4C8H4C8H4C4H4C4H4C8H4C4H4C8H4C4H4C12H4C4H4C4H4C4H4C4H4C24H4C4H4C8H4C4H4O4C4O4C4H4C8H4C4H4C8H4O4
_chemical_formula_sum              "U32 O224 C336 S24 H192"
_cell_length_a       23.831
_cell_length_b       20.716
_cell_length_c       29.555
_cell_angle_alpha    90
_cell_angle_beta     90.75
_cell_angle_gamma    90

_space_group_name_H-M_alt    "P 1"
_space_group_IT_number       1

loop_
  _space_group_symop_operation_xyz
  'x, y, z'

loop_
  _atom_site_type_symbol
  _atom_site_label
  _atom_site_symmetry_multiplicity
  _atom_site_fract_x
  _atom_site_fract_y
  _atom_site_fract_z
  _atom_site_occupancy
  U   U1        1.0  0.44851  0.23622  0.37673  1.0000
  U   U2        1.0  0.05149  0.73622  0.12327  1.0000
  U   U3        1.0  0.55149  0.76378  0.62327  1.0000
  U   U4        1.0  0.94851  0.26378  0.87673  1.0000
  U   U5        1.0  0.54001  0.29877  0.60523  1.0000
  U   U6        1.0  0.95999  0.79877  0.89477  1.0000
  U   U7        1.0  0.45999  0.70123  0.39477  1.0000
  U   U8        1.0  0.04001  0.20123  0.10523  1.0000
  U   U9        1.0  0.42208  0.25365  0.50529  1.0000
  U   U10       1.0  0.07792  0.75365  0.99471  1.0000
  U   U11       1.0  0.57792  0.74635  0.49471  1.0000
  U   U12       1.0  0.92208  0.24635  0.00529  1.0000
  U   U13       1.0  0.56810  0.27947  0.47622  1.0000
  U   U14       1.0  0.93190  0.77947  0.02378  1.0000
  U   U15       1.0  0.43190  0.72053  0.52378  1.0000
  U   U16       1.0  0.06810  0.22053  0.97622  1.0000
  O   O1        1.0  0.58600  0.19790  0.48830  1.0000
  O   O2        1.0  0.91400  0.69790  0.01170  1.0000
  O   O3        1.0  0.41400  0.80210  0.51170  1.0000
  O   O4        1.0  0.08600  0.30210  0.98830  1.0000
  O   O5        1.0  0.51010  0.37600  0.60510  1.0000
  O   O6        1.0  0.98990  0.87600  0.89490  1.0000
  O   O7        1.0  0.48990  0.62400  0.39490  1.0000
  O   O8        1.0  0.01010  0.12400  0.10510  1.0000
  O   O9        1.0  0.43640  0.17010  0.51970  1.0000
  O   O10       1.0  0.06360  0.67010  0.98030  1.0000
  O   O11       1.0  0.56360  0.82990  0.48030  1.0000
  O   O12       1.0  0.93640  0.32990  0.01970  1.0000
  O   O13       1.0  0.88770  0.23110  0.08050  1.0000
  O   O14       1.0  0.61230  0.73110  0.41950  1.0000
  O   O15       1.0  0.11230  0.76890  0.91950  1.0000
  O   O16       1.0  0.38770  0.26890  0.58050  1.0000
  O   O17       1.0  0.40040  0.33180  0.49370  1.0000
  O   O18       1.0  0.09960  0.83180  0.00630  1.0000
  O   O19       1.0  0.59960  0.66820  0.50630  1.0000
  O   O20       1.0  0.90040  0.16820  0.99370  1.0000
  O   O21       1.0  0.48280  0.25560  0.44570  1.0000
  O   O22       1.0  0.01720  0.75560  0.05430  1.0000
  O   O23       1.0  0.51720  0.74440  0.55430  1.0000
  O   O24       1.0  0.98280  0.24440  0.94570  1.0000
  O   O25       1.0  0.48040  0.15950  0.37830  1.0000
  O   O26       1.0  0.01960  0.65950  0.12170  1.0000
  O   O27       1.0  0.51960  0.84050  0.62170  1.0000
  O   O28       1.0  0.98040  0.34050  0.87830  1.0000
  O   O29       1.0  0.67010  0.30470  0.49370  1.0000
  O   O30       1.0  0.82990  0.80470  0.00630  1.0000
  O   O31       1.0  0.32990  0.69530  0.50630  1.0000
  O   O32       1.0  0.17010  0.19530  0.99370  1.0000
  O   O33       1.0  0.87760  0.29640  0.93140  1.0000
  O   O34       1.0  0.62240  0.79640  0.56860  1.0000
  O   O35       1.0  0.12240  0.70360  0.06860  1.0000
  O   O36       1.0  0.37760  0.20360  0.43140  1.0000
  O   O37       1.0  0.82260  0.28190  0.98920  1.0000
  O   O38       1.0  0.67740  0.78190  0.51080  1.0000
  O   O39       1.0  0.17740  0.71810  0.01080  1.0000
  O   O40       1.0  0.32260  0.21810  0.48920  1.0000
  O   O41       1.0  0.53430  0.28250  0.35100  1.0000
  O   O42       1.0  0.96570  0.78250  0.14900  1.0000
  O   O43       1.0  0.46570  0.71750  0.64900  1.0000
  O   O44       1.0  0.03430  0.21750  0.85100  1.0000
  O   O45       1.0  0.54020  0.30460  0.69060  1.0000
  O   O46       1.0  0.95980  0.80460  0.80940  1.0000
  O   O47       1.0  0.45980  0.69540  0.30940  1.0000
  O   O48       1.0  0.04020  0.19540  0.19060  1.0000
  O   O49       1.0  0.94700  0.27260  0.79210  1.0000
  O   O50       1.0  0.55300  0.77260  0.70790  1.0000
  O   O51       1.0  0.05300  0.72740  0.20790  1.0000
  O   O52       1.0  0.44700  0.22740  0.29210  1.0000
  O   O53       1.0  0.95490  0.24960  0.13190  1.0000
  O   O54       1.0  0.54510  0.74960  0.36810  1.0000
  O   O55       1.0  0.04510  0.75040  0.86810  1.0000
  O   O56       1.0  0.45490  0.25040  0.63190  1.0000
  O   O57       1.0  0.50580  0.28110  0.53540  1.0000
  O   O58       1.0  0.99420  0.78110  0.96460  1.0000
  O   O59       1.0  0.49420  0.71890  0.46460  1.0000
  O   O60       1.0  0.00580  0.21890  0.03540  1.0000
  O   O61       1.0  0.61370  0.32330  0.55080  1.0000
  O   O62       1.0  0.88630  0.82330  0.94920  1.0000
  O   O63       1.0  0.38630  0.67670  0.44920  1.0000
  O   O64       1.0  0.11370  0.17670  0.05080  1.0000
  O   O65       1.0  0.55960  0.36050  0.46380  1.0000
  O   O66       1.0  0.94040  0.86050  0.03620  1.0000
  O   O67       1.0  0.44040  0.63950  0.53620  1.0000
  O   O68       1.0  0.05960  0.13950  0.96380  1.0000
  O   O69       1.0  0.41450  0.31000  0.37260  1.0000
  O   O70       1.0  0.08550  0.81000  0.12740  1.0000
  O   O71       1.0  0.58550  0.69000  0.62740  1.0000
  O   O72       1.0  0.91450  0.19000  0.87260  1.0000
  O   O73       1.0  0.57120  0.22150  0.60860  1.0000
  O   O74       1.0  0.92880  0.72150  0.89140  1.0000
  O   O75       1.0  0.42880  0.77850  0.39140  1.0000
  O   O76       1.0  0.07120  0.27850  0.10860  1.0000
  O   O77       1.0  0.87480  0.31420  0.82930  1.0000
  O   O78       1.0  0.62520  0.81420  0.67070  1.0000
  O   O79       1.0  0.12520  0.68580  0.17070  1.0000
  O   O80       1.0  0.37480  0.18580  0.32930  1.0000
  O   O81       1.0  0.61320  0.34600  0.65500  1.0000
  O   O82       1.0  0.88680  0.84600  0.84500  1.0000
  O   O83       1.0  0.38680  0.65400  0.34500  1.0000
  O   O84       1.0  0.11320  0.15400  0.15500  1.0000
  C   C1        1.0  0.70990  0.35720  0.55880  1.0000
  C   C2        1.0  0.79010  0.85720  0.94120  1.0000
  C   C3        1.0  0.29010  0.64280  0.44120  1.0000
  C   C4        1.0  0.20990  0.14280  0.05880  1.0000
  C   C5        1.0  0.66300  0.32430  0.53390  1.0000
  C   C6        1.0  0.83700  0.82430  0.96610  1.0000
  C   C7        1.0  0.33700  0.67570  0.46610  1.0000
  C   C8        1.0  0.16300  0.17570  0.03390  1.0000
  S   S1        1.0  0.65177  0.47282  0.86539  1.0000
  S   S2        1.0  0.84823  0.97282  0.63461  1.0000
  S   S3        1.0  0.34823  0.52718  0.13461  1.0000
  S   S4        1.0  0.15177  0.02718  0.36539  1.0000
  C   C9        1.0  0.90400  0.25130  0.11820  1.0000
  C   C10       1.0  0.59600  0.75130  0.38180  1.0000
  C   C11       1.0  0.09600  0.74870  0.88180  1.0000
  C   C12       1.0  0.40400  0.24870  0.61820  1.0000
  O   O85       1.0  0.60380  0.47120  0.89590  1.0000
  O   O86       1.0  0.89620  0.97120  0.60410  1.0000
  O   O87       1.0  0.39620  0.52880  0.10410  1.0000
  O   O88       1.0  0.10380  0.02880  0.39590  1.0000
  O   O89       1.0  0.67770  0.53400  0.85290  1.0000
  O   O90       1.0  0.82230  0.03400  0.64710  1.0000
  O   O91       1.0  0.32230  0.46600  0.14710  1.0000
  O   O92       1.0  0.17770  0.96600  0.35290  1.0000
  C   C13       1.0  0.74070  0.43780  0.61290  1.0000
  C   C14       1.0  0.75930  0.93780  0.88710  1.0000
  C   C15       1.0  0.25930  0.56220  0.38710  1.0000
  C   C16       1.0  0.24070  0.06220  0.11290  1.0000
  H   H1        1.0  0.73340  0.46820  0.63520  1.0000
  H   H2        1.0  0.76660  0.96820  0.86480  1.0000
  H   H3        1.0  0.26660  0.53180  0.36480  1.0000
  H   H4        1.0  0.23340  0.03180  0.13520  1.0000
  C   C17       1.0  0.69730  0.40330  0.59210  1.0000
  C   C18       1.0  0.80270  0.90330  0.90790  1.0000
  C   C19       1.0  0.30270  0.59670  0.40790  1.0000
  C   C20       1.0  0.19730  0.09670  0.09210  1.0000
  H   H5        1.0  0.66020  0.41070  0.60030  1.0000
  H   H6        1.0  0.83980  0.91070  0.89970  1.0000
  H   H7        1.0  0.33980  0.58930  0.39970  1.0000
  H   H8        1.0  0.16020  0.08930  0.10030  1.0000
  C   C21       1.0  0.82990  0.30530  0.95100  1.0000
  C   C22       1.0  0.67010  0.80530  0.54900  1.0000
  C   C23       1.0  0.17010  0.69470  0.04900  1.0000
  C   C24       1.0  0.32990  0.19470  0.45100  1.0000
  C   C25       1.0  0.80730  0.38180  0.56730  1.0000
  C   C26       1.0  0.69270  0.88180  0.93270  1.0000
  C   C27       1.0  0.19270  0.61820  0.43270  1.0000
  C   C28       1.0  0.30730  0.11820  0.06730  1.0000
  H   H9        1.0  0.84460  0.37520  0.55950  1.0000
  H   H10       1.0  0.65540  0.87520  0.94050  1.0000
  H   H11       1.0  0.15540  0.62480  0.44050  1.0000
  H   H12       1.0  0.34460  0.12480  0.05950  1.0000
  C   C29       1.0  0.58590  0.39200  0.81410  1.0000
  C   C30       1.0  0.91410  0.89200  0.68590  1.0000
  C   C31       1.0  0.41410  0.60800  0.18590  1.0000
  C   C32       1.0  0.08590  0.10800  0.31410  1.0000
  H   H13       1.0  0.56610  0.38520  0.84050  1.0000
  H   H14       1.0  0.93390  0.88520  0.65950  1.0000
  H   H15       1.0  0.43390  0.61480  0.15950  1.0000
  H   H16       1.0  0.06610  0.11480  0.34050  1.0000
  C   C33       1.0  0.62560  0.30110  0.32770  1.0000
  C   C34       1.0  0.87440  0.80110  0.17230  1.0000
  C   C35       1.0  0.37440  0.69890  0.67230  1.0000
  C   C36       1.0  0.12560  0.19890  0.82770  1.0000
  C   C37       1.0  0.90370  0.31080  0.79290  1.0000
  C   C38       1.0  0.59630  0.81080  0.70710  1.0000
  C   C39       1.0  0.09630  0.68920  0.20710  1.0000
  C   C40       1.0  0.40370  0.18920  0.29290  1.0000
  C   C41       1.0  0.76540  0.34750  0.54620  1.0000
  C   C42       1.0  0.73460  0.84750  0.95380  1.0000
  C   C43       1.0  0.23460  0.65250  0.45380  1.0000
  C   C44       1.0  0.26540  0.15250  0.04620  1.0000
  H   H17       1.0  0.77390  0.31780  0.52370  1.0000
  H   H18       1.0  0.72610  0.81780  0.97630  1.0000
  H   H19       1.0  0.22610  0.68220  0.47630  1.0000
  H   H20       1.0  0.27390  0.18220  0.02370  1.0000
  C   C45       1.0  0.60100  0.37070  0.73560  1.0000
  C   C46       1.0  0.89900  0.87070  0.76440  1.0000
  C   C47       1.0  0.39900  0.62930  0.26440  1.0000
  C   C48       1.0  0.10100  0.12930  0.23560  1.0000
  C   C49       1.0  0.57020  0.36190  0.77480  1.0000
  C   C50       1.0  0.92980  0.86190  0.72520  1.0000
  C   C51       1.0  0.42980  0.63810  0.22520  1.0000
  C   C52       1.0  0.07020  0.13810  0.27480  1.0000
  H   H21       1.0  0.53880  0.33530  0.77430  1.0000
  H   H22       1.0  0.96120  0.83530  0.72570  1.0000
  H   H23       1.0  0.46120  0.66470  0.22570  1.0000
  H   H24       1.0  0.03880  0.16470  0.27430  1.0000
  C   C53       1.0  0.63170  0.43260  0.81380  1.0000
  C   C54       1.0  0.86830  0.93260  0.68620  1.0000
  C   C55       1.0  0.36830  0.56740  0.18620  1.0000
  C   C56       1.0  0.13170  0.06740  0.31380  1.0000
  C   C57       1.0  0.58410  0.33690  0.69150  1.0000
  C   C58       1.0  0.91590  0.83690  0.80850  1.0000
  C   C59       1.0  0.41590  0.66310  0.30850  1.0000
  C   C60       1.0  0.08410  0.16310  0.19150  1.0000
  C   C61       1.0  0.66290  0.44190  0.77460  1.0000
  C   C62       1.0  0.83710  0.94190  0.72540  1.0000
  C   C63       1.0  0.33710  0.55810  0.22540  1.0000
  C   C64       1.0  0.16290  0.05810  0.27460  1.0000
  H   H25       1.0  0.69360  0.46950  0.77510  1.0000
  H   H26       1.0  0.80640  0.96950  0.72490  1.0000
  H   H27       1.0  0.30640  0.53050  0.22490  1.0000
  H   H28       1.0  0.19360  0.03050  0.27510  1.0000
  C   C65       1.0  0.79400  0.42540  0.59950  1.0000
  C   C66       1.0  0.70600  0.92540  0.90050  1.0000
  C   C67       1.0  0.20600  0.57460  0.40050  1.0000
  C   C68       1.0  0.29400  0.07460  0.09950  1.0000
  C   C69       1.0  0.61080  0.31960  0.28540  1.0000
  C   C70       1.0  0.88920  0.81960  0.21460  1.0000
  C   C71       1.0  0.38920  0.68040  0.71460  1.0000
  C   C72       1.0  0.11080  0.18040  0.78540  1.0000
  H   H29       1.0  0.57340  0.31500  0.27660  1.0000
  H   H30       1.0  0.92660  0.81500  0.22340  1.0000
  H   H31       1.0  0.42660  0.68500  0.72340  1.0000
  H   H32       1.0  0.07340  0.18500  0.77660  1.0000
  C   C73       1.0  0.64840  0.41060  0.73590  1.0000
  C   C74       1.0  0.85160  0.91060  0.76410  1.0000
  C   C75       1.0  0.35160  0.58940  0.26410  1.0000
  C   C76       1.0  0.14840  0.08940  0.23590  1.0000
  H   H33       1.0  0.66960  0.41560  0.71000  1.0000
  H   H34       1.0  0.83040  0.91560  0.79000  1.0000
  H   H35       1.0  0.33040  0.58440  0.29000  1.0000
  H   H36       1.0  0.16960  0.08440  0.21000  1.0000
  C   C77       1.0  0.68270  0.30990  0.34040  1.0000
  C   C78       1.0  0.81730  0.80990  0.15960  1.0000
  C   C79       1.0  0.31730  0.69010  0.65960  1.0000
  C   C80       1.0  0.18270  0.19010  0.84040  1.0000
  H   H37       1.0  0.69570  0.29840  0.36910  1.0000
  H   H38       1.0  0.80430  0.79840  0.13090  1.0000
  H   H39       1.0  0.30430  0.70160  0.63090  1.0000
  H   H40       1.0  0.19570  0.20160  0.86910  1.0000
  S   S5        1.0  0.84920  0.47093  0.62711  1.0000
  S   S6        1.0  0.65080  0.97093  0.87289  1.0000
  S   S7        1.0  0.15080  0.52907  0.37289  1.0000
  S   S8        1.0  0.34920  0.02907  0.12711  1.0000
  S   S9        1.0  0.74660  0.40350  0.23380  1.0000
  S   S10       1.0  0.75340  0.90350  0.26620  1.0000
  S   S11       1.0  0.25340  0.59650  0.76620  1.0000
  S   S12       1.0  0.24660  0.09650  0.73380  1.0000
  O   O93       1.0  0.89750  0.47030  0.59830  1.0000
  O   O94       1.0  0.60250  0.97030  0.90170  1.0000
  O   O95       1.0  0.10250  0.52970  0.40170  1.0000
  O   O96       1.0  0.39750  0.02970  0.09830  1.0000
  O   O97       1.0  0.82610  0.53170  0.64250  1.0000
  O   O98       1.0  0.67390  0.03170  0.85750  1.0000
  O   O99       1.0  0.17390  0.46830  0.35750  1.0000
  O   O100      1.0  0.32610  0.96830  0.14250  1.0000
  O   O101      1.0  0.60240  0.26130  0.40000  1.0000
  O   O102      1.0  0.89760  0.76130  0.10000  1.0000
  O   O103      1.0  0.39760  0.73870  0.60000  1.0000
  O   O104      1.0  0.10240  0.23870  0.90000  1.0000
  C   C81       1.0  0.58640  0.27910  0.36330  1.0000
  C   C82       1.0  0.91360  0.77910  0.13670  1.0000
  C   C83       1.0  0.41360  0.72090  0.63670  1.0000
  C   C84       1.0  0.08640  0.22090  0.86330  1.0000
  C   C85       1.0  0.70350  0.35910  0.26840  1.0000
  C   C86       1.0  0.79650  0.85910  0.23160  1.0000
  C   C87       1.0  0.29650  0.64090  0.73160  1.0000
  C   C88       1.0  0.20350  0.14090  0.76840  1.0000
  C   C89       1.0  0.64850  0.34550  0.25370  1.0000
  C   C90       1.0  0.85150  0.84550  0.24630  1.0000
  C   C91       1.0  0.35150  0.65450  0.74630  1.0000
  C   C92       1.0  0.14850  0.15450  0.75370  1.0000
  H   H41       1.0  0.63720  0.35320  0.22390  1.0000
  H   H42       1.0  0.86280  0.85320  0.27610  1.0000
  H   H43       1.0  0.36280  0.64680  0.77610  1.0000
  H   H44       1.0  0.13720  0.14680  0.72390  1.0000
  C   C93       1.0  0.71890  0.33660  0.30820  1.0000
  C   C94       1.0  0.78110  0.83660  0.19180  1.0000
  C   C95       1.0  0.28110  0.66340  0.69180  1.0000
  C   C96       1.0  0.21890  0.16340  0.80820  1.0000
  H   H45       1.0  0.75690  0.33840  0.31570  1.0000
  H   H46       1.0  0.74310  0.83840  0.18430  1.0000
  H   H47       1.0  0.24310  0.66160  0.68430  1.0000
  H   H48       1.0  0.25690  0.16160  0.81570  1.0000
  O   O105      1.0  0.78330  0.44140  0.26360  1.0000
  O   O106      1.0  0.71670  0.94140  0.23640  1.0000
  O   O107      1.0  0.21670  0.55860  0.73640  1.0000
  O   O108      1.0  0.28330  0.05860  0.76360  1.0000
  O   O109      1.0  0.70980  0.43340  0.19820  1.0000
  O   O110      1.0  0.79020  0.93340  0.30180  1.0000
  O   O111      1.0  0.29020  0.56660  0.80180  1.0000
  O   O112      1.0  0.20980  0.06660  0.69820  1.0000
  C   C97       1.0  0.78780  0.34920  0.20310  1.0000
  C   C98       1.0  0.71220  0.84920  0.29690  1.0000
  C   C99       1.0  0.21220  0.65080  0.79690  1.0000
  C   C100      1.0  0.28780  0.15080  0.70310  1.0000
  C   C101      1.0  0.77200  0.32780  0.15890  1.0000
  C   C102      1.0  0.72800  0.82780  0.34110  1.0000
  C   C103      1.0  0.22800  0.67220  0.84110  1.0000
  C   C104      1.0  0.27200  0.17220  0.65890  1.0000
  H   H49       1.0  0.73670  0.33760  0.14710  1.0000
  H   H50       1.0  0.76330  0.83760  0.35290  1.0000
  H   H51       1.0  0.26330  0.66240  0.85290  1.0000
  H   H52       1.0  0.23670  0.16240  0.64710  1.0000
  C   C105      1.0  0.84190  0.33450  0.21870  1.0000
  C   C106      1.0  0.65810  0.83450  0.28130  1.0000
  C   C107      1.0  0.15810  0.66550  0.78130  1.0000
  C   C108      1.0  0.34190  0.16550  0.71870  1.0000
  H   H53       1.0  0.85310  0.34830  0.24740  1.0000
  H   H54       1.0  0.64690  0.84830  0.25260  1.0000
  H   H55       1.0  0.14690  0.65170  0.75260  1.0000
  H   H56       1.0  0.35310  0.15170  0.74740  1.0000
  C   C109      1.0  0.68930  0.37650  0.92210  1.0000
  C   C110      1.0  0.81070  0.87650  0.57790  1.0000
  C   C111      1.0  0.31070  0.62350  0.07790  1.0000
  C   C112      1.0  0.18930  0.12350  0.42210  1.0000
  H   H57       1.0  0.65190  0.37140  0.93000  1.0000
  H   H58       1.0  0.84810  0.87140  0.57000  1.0000
  H   H59       1.0  0.34810  0.62860  0.07000  1.0000
  H   H60       1.0  0.15190  0.12860  0.43000  1.0000
  C   C113      1.0  0.91100  0.38280  0.67500  1.0000
  C   C114      1.0  0.58900  0.88280  0.82500  1.0000
  C   C115      1.0  0.08900  0.61720  0.32500  1.0000
  C   C116      1.0  0.41100  0.11720  0.17500  1.0000
  H   H61       1.0  0.93230  0.37820  0.64900  1.0000
  H   H62       1.0  0.56770  0.87820  0.85100  1.0000
  H   H63       1.0  0.06770  0.62180  0.35100  1.0000
  H   H64       1.0  0.43230  0.12180  0.14900  1.0000
  C   C117      1.0  0.70430  0.42280  0.89000  1.0000
  C   C118      1.0  0.79570  0.92280  0.61000  1.0000
  C   C119      1.0  0.29570  0.57720  0.11000  1.0000
  C   C120      1.0  0.20430  0.07720  0.39000  1.0000
  C   C121      1.0  0.75970  0.42970  0.87600  1.0000
  C   C122      1.0  0.74030  0.92970  0.62400  1.0000
  C   C123      1.0  0.24030  0.57030  0.12400  1.0000
  C   C124      1.0  0.25970  0.07030  0.37600  1.0000
  H   H65       1.0  0.76910  0.46040  0.85450  1.0000
  H   H66       1.0  0.73090  0.96040  0.64550  1.0000
  H   H67       1.0  0.23090  0.53960  0.14550  1.0000
  H   H68       1.0  0.26910  0.03960  0.35450  1.0000
  C   C125      1.0  0.86530  0.42500  0.67650  1.0000
  C   C126      1.0  0.63470  0.92500  0.82350  1.0000
  C   C127      1.0  0.13470  0.57500  0.32350  1.0000
  C   C128      1.0  0.36530  0.07500  0.17650  1.0000
  C   C129      1.0  0.83200  0.43000  0.71580  1.0000
  C   C130      1.0  0.66800  0.93000  0.78420  1.0000
  C   C131      1.0  0.16800  0.57000  0.28420  1.0000
  C   C132      1.0  0.33200  0.07000  0.21580  1.0000
  H   H69       1.0  0.80310  0.46010  0.71700  1.0000
  H   H70       1.0  0.69690  0.96010  0.78300  1.0000
  H   H71       1.0  0.19690  0.53990  0.28300  1.0000
  H   H72       1.0  0.30310  0.03990  0.21700  1.0000
  C   C133      1.0  0.92300  0.34830  0.71390  1.0000
  C   C134      1.0  0.57700  0.84830  0.78610  1.0000
  C   C135      1.0  0.07700  0.65170  0.28610  1.0000
  C   C136      1.0  0.42300  0.15170  0.21390  1.0000
  H   H73       1.0  0.95510  0.32270  0.71440  1.0000
  H   H74       1.0  0.54490  0.82270  0.78560  1.0000
  H   H75       1.0  0.04490  0.67730  0.28560  1.0000
  H   H76       1.0  0.45510  0.17730  0.21440  1.0000
  C   C137      1.0  0.73030  0.33840  0.94230  1.0000
  C   C138      1.0  0.76970  0.83840  0.55770  1.0000
  C   C139      1.0  0.26970  0.66160  0.05770  1.0000
  C   C140      1.0  0.23030  0.16160  0.44230  1.0000
  H   H77       1.0  0.72120  0.30970  0.96520  1.0000
  H   H78       1.0  0.77880  0.80970  0.53480  1.0000
  H   H79       1.0  0.27880  0.69030  0.03480  1.0000
  H   H80       1.0  0.22120  0.19030  0.46520  1.0000
  C   C141      1.0  0.80010  0.39000  0.89500  1.0000
  C   C142      1.0  0.69990  0.89000  0.60500  1.0000
  C   C143      1.0  0.19990  0.61000  0.10500  1.0000
  C   C144      1.0  0.30010  0.11000  0.39500  1.0000
  H   H81       1.0  0.83730  0.39400  0.88630  1.0000
  H   H82       1.0  0.66270  0.89400  0.61370  1.0000
  H   H83       1.0  0.16270  0.60600  0.11370  1.0000
  H   H84       1.0  0.33730  0.10600  0.38630  1.0000
  C   C145      1.0  0.84260  0.39050  0.75170  1.0000
  C   C146      1.0  0.65740  0.89050  0.74830  1.0000
  C   C147      1.0  0.15740  0.60950  0.24830  1.0000
  C   C148      1.0  0.34260  0.10950  0.25170  1.0000
  H   H85       1.0  0.81860  0.39020  0.77630  1.0000
  H   H86       1.0  0.68140  0.89020  0.72370  1.0000
  H   H87       1.0  0.18140  0.60980  0.22370  1.0000
  H   H88       1.0  0.31860  0.10980  0.27630  1.0000
  C   C149      1.0  0.87890  0.30020  0.19300  1.0000
  C   C150      1.0  0.62110  0.80020  0.30700  1.0000
  C   C151      1.0  0.12110  0.69980  0.80700  1.0000
  C   C152      1.0  0.37890  0.19980  0.69300  1.0000
  H   H89       1.0  0.91420  0.28940  0.20440  1.0000
  H   H90       1.0  0.58580  0.78940  0.29560  1.0000
  H   H91       1.0  0.08580  0.71060  0.79560  1.0000
  H   H92       1.0  0.41420  0.21060  0.70440  1.0000
  C   C153      1.0  0.80940  0.29250  0.13370  1.0000
  C   C154      1.0  0.69060  0.79250  0.36630  1.0000
  C   C155      1.0  0.19060  0.70750  0.86630  1.0000
  C   C156      1.0  0.30940  0.20750  0.63370  1.0000
  H   H93       1.0  0.79820  0.27590  0.10580  1.0000
  H   H94       1.0  0.70180  0.77590  0.39420  1.0000
  H   H95       1.0  0.20180  0.72410  0.89420  1.0000
  H   H96       1.0  0.29820  0.22410  0.60580  1.0000
  C   C157      1.0  0.78530  0.34370  0.92760  1.0000
  C   C158      1.0  0.71470  0.84370  0.57240  1.0000
  C   C159      1.0  0.21470  0.65630  0.07240  1.0000
  C   C160      1.0  0.28530  0.15630  0.42760  1.0000
  C   C161      1.0  0.89070  0.34940  0.75150  1.0000
  C   C162      1.0  0.60930  0.84940  0.74850  1.0000
  C   C163      1.0  0.10930  0.65060  0.24850  1.0000
  C   C164      1.0  0.39070  0.15060  0.25150  1.0000
  C   C165      1.0  0.86280  0.28160  0.14930  1.0000
  C   C166      1.0  0.63720  0.78160  0.35070  1.0000
  C   C167      1.0  0.13720  0.71840  0.85070  1.0000
  C   C168      1.0  0.36280  0.21840  0.64930  1.0000
  U   U17       1.0  0.94502  0.20907  0.38105  1.0000
  U   U18       1.0  0.55498  0.70907  0.11895  1.0000
  U   U19       1.0  0.05498  0.79093  0.61895  1.0000
  U   U20       1.0  0.44502  0.29093  0.88105  1.0000
  U   U21       1.0  0.91965  0.22913  0.50988  1.0000
  U   U22       1.0  0.58035  0.72913  0.99012  1.0000
  U   U23       1.0  0.08035  0.77087  0.49012  1.0000
  U   U24       1.0  0.41965  0.27087  0.00988  1.0000
  U   U25       1.0  0.04095  0.26545  0.60881  1.0000
  U   U26       1.0  0.45905  0.76545  0.89119  1.0000
  U   U27       1.0  0.95905  0.73455  0.39119  1.0000
  U   U28       1.0  0.54095  0.23455  0.10881  1.0000
  U   U29       1.0  0.06529  0.25419  0.47960  1.0000
  U   U30       1.0  0.43471  0.75419  0.02040  1.0000
  U   U31       1.0  0.93471  0.74581  0.52040  1.0000
  U   U32       1.0  0.56529  0.24581  0.97960  1.0000
  O   O113      1.0  0.61230  0.20620  0.05440  1.0000
  O   O114      1.0  0.88770  0.70620  0.44560  1.0000
  O   O115      1.0  0.38770  0.79380  0.94560  1.0000
  O   O116      1.0  0.11230  0.29380  0.55440  1.0000
  O   O117      1.0  0.98140  0.22550  0.45040  1.0000
  O   O118      1.0  0.51860  0.72550  0.04960  1.0000
  O   O119      1.0  0.01860  0.77450  0.54960  1.0000
  O   O120      1.0  0.48140  0.27450  0.95040  1.0000
  O   O121      1.0  0.53100  0.24640  0.85380  1.0000
  O   O122      1.0  0.96900  0.74640  0.64620  1.0000
  O   O123      1.0  0.46900  0.75360  0.14620  1.0000
  O   O124      1.0  0.03100  0.25360  0.35380  1.0000
  O   O125      1.0  0.94260  0.20240  0.29670  1.0000
  O   O126      1.0  0.55740  0.70240  0.20330  1.0000
  O   O127      1.0  0.05740  0.79760  0.70330  1.0000
  O   O128      1.0  0.44260  0.29760  0.79670  1.0000
  O   O129      1.0  0.54430  0.23310  0.19270  1.0000
  O   O130      1.0  0.95570  0.73310  0.30730  1.0000
  O   O131      1.0  0.45570  0.76690  0.80730  1.0000
  O   O132      1.0  0.04430  0.26690  0.69270  1.0000
  O   O133      1.0  0.01770  0.34660  0.61040  1.0000
  O   O134      1.0  0.48230  0.84660  0.88960  1.0000
  O   O135      1.0  0.98230  0.65340  0.38960  1.0000
  O   O136      1.0  0.51770  0.15340  0.11040  1.0000
  O   O137      1.0  0.81780  0.19960  0.49300  1.0000
  O   O138      1.0  0.68220  0.69960  0.00700  1.0000
  O   O139      1.0  0.18220  0.80040  0.50700  1.0000
  O   O140      1.0  0.31780  0.30040  0.99300  1.0000
  O   O141      1.0  0.86990  0.16360  0.33250  1.0000
  O   O142      1.0  0.63010  0.66360  0.16750  1.0000
  O   O143      1.0  0.13010  0.83640  0.66750  1.0000
  O   O144      1.0  0.36990  0.33640  0.83250  1.0000
  O   O145      1.0  0.90010  0.31140  0.49530  1.0000
  O   O146      1.0  0.59990  0.81140  0.00470  1.0000
  O   O147      1.0  0.09990  0.68860  0.50470  1.0000
  O   O148      1.0  0.40010  0.18860  0.99530  1.0000
  O   O149      1.0  0.08350  0.17480  0.49050  1.0000
  O   O150      1.0  0.41650  0.67480  0.00950  1.0000
  O   O151      1.0  0.91650  0.82520  0.50950  1.0000
  O   O152      1.0  0.58350  0.32520  0.99050  1.0000
  O   O153      1.0  0.87480  0.18100  0.43730  1.0000
  O   O154      1.0  0.62520  0.68100  0.06270  1.0000
  O   O155      1.0  0.12520  0.81900  0.56270  1.0000
  O   O156      1.0  0.37480  0.31900  0.93730  1.0000
  O   O157      1.0  0.00380  0.25510  0.53940  1.0000
  O   O158      1.0  0.49620  0.75510  0.96060  1.0000
  O   O159      1.0  0.99620  0.74490  0.46060  1.0000
  O   O160      1.0  0.50380  0.24490  0.03940  1.0000
  O   O161      1.0  0.62040  0.19850  0.15820  1.0000
  O   O162      1.0  0.87960  0.69850  0.34180  1.0000
  O   O163      1.0  0.37960  0.80150  0.84180  1.0000
  O   O164      1.0  0.12040  0.30150  0.65820  1.0000
  O   O165      1.0  0.05270  0.33740  0.46610  1.0000
  O   O166      1.0  0.44730  0.83740  0.03390  1.0000
  O   O167      1.0  0.94730  0.66260  0.53390  1.0000
  O   O168      1.0  0.55270  0.16260  0.96610  1.0000
  O   O169      1.0  0.97350  0.13110  0.38090  1.0000
  O   O170      1.0  0.52650  0.63110  0.11910  1.0000
  O   O171      1.0  0.02650  0.86890  0.61910  1.0000
  O   O172      1.0  0.47350  0.36890  0.88090  1.0000
  O   O173      1.0  0.66700  0.21210  0.99460  1.0000
  O   O174      1.0  0.83300  0.71210  0.50540  1.0000
  O   O175      1.0  0.33300  0.78790  0.00540  1.0000
  O   O176      1.0  0.16700  0.28790  0.49460  1.0000
  O   O177      1.0  0.95070  0.22910  0.63470  1.0000
  O   O178      1.0  0.54930  0.72910  0.86530  1.0000
  O   O179      1.0  0.04930  0.77090  0.36530  1.0000
  O   O180      1.0  0.45070  0.27090  0.13470  1.0000
  O   O181      1.0  0.88430  0.24920  0.58440  1.0000
  O   O182      1.0  0.61570  0.74920  0.91560  1.0000
  O   O183      1.0  0.11570  0.75080  0.41560  1.0000
  O   O184      1.0  0.38430  0.25080  0.08440  1.0000
  O   O185      1.0  0.93080  0.14880  0.52580  1.0000
  O   O186      1.0  0.56920  0.64880  0.97420  1.0000
  O   O187      1.0  0.06920  0.85120  0.47420  1.0000
  O   O188      1.0  0.43080  0.35120  0.02580  1.0000
  S   S13       1.0  0.64081  0.03481  0.35748  1.0000
  S   S14       1.0  0.85919  0.53481  0.14252  1.0000
  S   S15       1.0  0.35919  0.96519  0.64252  1.0000
  S   S16       1.0  0.14081  0.46519  0.85748  1.0000
  S   S17       1.0  0.83017  0.02424  0.12658  1.0000
  S   S18       1.0  0.66983  0.52424  0.37342  1.0000
  S   S19       1.0  0.16983  0.97576  0.87342  1.0000
  S   S20       1.0  0.33017  0.47576  0.62658  1.0000
  O   O189      1.0  0.06610  0.18490  0.60890  1.0000
  O   O190      1.0  0.43390  0.68490  0.89110  1.0000
  O   O191      1.0  0.93390  0.81510  0.39110  1.0000
  O   O192      1.0  0.56610  0.31510  0.10890  1.0000
  O   O193      1.0  0.91480  0.28630  0.37820  1.0000
  O   O194      1.0  0.58520  0.78630  0.12180  1.0000
  O   O195      1.0  0.08520  0.71370  0.62180  1.0000
  O   O196      1.0  0.41480  0.21370  0.87820  1.0000
  C   C169      1.0  0.78000  0.14340  0.43020  1.0000
  C   C170      1.0  0.72000  0.64340  0.06980  1.0000
  C   C171      1.0  0.22000  0.85660  0.56980  1.0000
  C   C172      1.0  0.28000  0.35660  0.93020  1.0000
  S   S21       1.0  0.75920  0.09980  0.76580  1.0000
  S   S22       1.0  0.74080  0.59980  0.73420  1.0000
  S   S23       1.0  0.24080  0.90020  0.23420  1.0000
  S   S24       1.0  0.25920  0.40020  0.26580  1.0000
  O   O197      1.0  0.66300  0.97320  0.34310  1.0000
  O   O198      1.0  0.83700  0.47320  0.15690  1.0000
  O   O199      1.0  0.33700  0.02680  0.65690  1.0000
  O   O200      1.0  0.16300  0.52680  0.84310  1.0000
  O   O201      1.0  0.59170  0.03690  0.38490  1.0000
  O   O202      1.0  0.90830  0.53690  0.11510  1.0000
  O   O203      1.0  0.40830  0.96310  0.61510  1.0000
  O   O204      1.0  0.09170  0.46310  0.88490  1.0000
  O   O205      1.0  0.87850  0.02100  0.09770  1.0000
  O   O206      1.0  0.62150  0.52100  0.40230  1.0000
  O   O207      1.0  0.12150  0.97900  0.90230  1.0000
  O   O208      1.0  0.37850  0.47900  0.59770  1.0000
  O   O209      1.0  0.80230  0.96610  0.14040  1.0000
  O   O210      1.0  0.69770  0.46610  0.35960  1.0000
  O   O211      1.0  0.19770  0.03390  0.85960  1.0000
  O   O212      1.0  0.30230  0.53390  0.64040  1.0000
  C   C173      1.0  0.70210  0.15320  0.05930  1.0000
  C   C174      1.0  0.79790  0.65320  0.44070  1.0000
  C   C175      1.0  0.29790  0.84680  0.94070  1.0000
  C   C176      1.0  0.20210  0.34680  0.55930  1.0000
  C   C177      1.0  0.58120  0.12460  0.30970  1.0000
  C   C178      1.0  0.91880  0.62460  0.19030  1.0000
  C   C179      1.0  0.41880  0.87540  0.69030  1.0000
  C   C180      1.0  0.08120  0.37540  0.80970  1.0000
  H   H97       1.0  0.55860  0.12670  0.33510  1.0000
  H   H98       1.0  0.94140  0.62670  0.16490  1.0000
  H   H99       1.0  0.44140  0.87330  0.66490  1.0000
  H   H100      1.0  0.05860  0.37330  0.83510  1.0000
  C   C181      1.0  0.68610  0.11120  0.09220  1.0000
  C   C182      1.0  0.81390  0.61120  0.40780  1.0000
  C   C183      1.0  0.31390  0.88880  0.90780  1.0000
  C   C184      1.0  0.18610  0.38880  0.59220  1.0000
  H   H101      1.0  0.64860  0.10920  0.10040  1.0000
  H   H102      1.0  0.85140  0.60920  0.39960  1.0000
  H   H103      1.0  0.35140  0.89080  0.89960  1.0000
  H   H104      1.0  0.14860  0.39080  0.60040  1.0000
  C   C185      1.0  0.60490  0.16070  0.23450  1.0000
  C   C186      1.0  0.89510  0.66070  0.26550  1.0000
  C   C187      1.0  0.39510  0.83930  0.76550  1.0000
  C   C188      1.0  0.10490  0.33930  0.73450  1.0000
  C   C189      1.0  0.91160  0.14060  0.21430  1.0000
  C   C190      1.0  0.58840  0.64060  0.28570  1.0000
  C   C191      1.0  0.08840  0.85940  0.78570  1.0000
  C   C192      1.0  0.41160  0.35940  0.71430  1.0000
  H   H105      1.0  0.94360  0.16630  0.21470  1.0000
  H   H106      1.0  0.55640  0.66630  0.28530  1.0000
  H   H107      1.0  0.05640  0.83370  0.78530  1.0000
  H   H108      1.0  0.44360  0.33370  0.71470  1.0000
  C   C193      1.0  0.62700  0.08450  0.30850  1.0000
  C   C194      1.0  0.87300  0.58450  0.19150  1.0000
  C   C195      1.0  0.37300  0.91550  0.69150  1.0000
  C   C196      1.0  0.12700  0.41550  0.80850  1.0000
  C   C197      1.0  0.79720  0.11820  0.06590  1.0000
  C   C198      1.0  0.70280  0.61820  0.43410  1.0000
  C   C199      1.0  0.20280  0.88180  0.93410  1.0000
  C   C200      1.0  0.29720  0.38180  0.56590  1.0000
  H   H109      1.0  0.83450  0.11980  0.05720  1.0000
  H   H110      1.0  0.66550  0.61980  0.44280  1.0000
  H   H111      1.0  0.16550  0.88020  0.94280  1.0000
  H   H112      1.0  0.33450  0.38020  0.55720  1.0000
  C   C201      1.0  0.87920  0.13600  0.25320  1.0000
  C   C202      1.0  0.62080  0.63600  0.24680  1.0000
  C   C203      1.0  0.12080  0.86400  0.74680  1.0000
  C   C204      1.0  0.37920  0.36400  0.75320  1.0000
  C   C205      1.0  0.68120  0.12630  0.41660  1.0000
  C   C206      1.0  0.81880  0.62630  0.08340  1.0000
  C   C207      1.0  0.31880  0.87370  0.58340  1.0000
  C   C208      1.0  0.18120  0.37370  0.91660  1.0000
  H   H113      1.0  0.64390  0.13670  0.42210  1.0000
  H   H114      1.0  0.85610  0.63670  0.07790  1.0000
  H   H115      1.0  0.35610  0.86330  0.57790  1.0000
  H   H116      1.0  0.14390  0.36330  0.92210  1.0000
  C   C209      1.0  0.72440  0.15940  0.43920  1.0000
  C   C210      1.0  0.77560  0.65940  0.06080  1.0000
  C   C211      1.0  0.27560  0.84060  0.56080  1.0000
  C   C212      1.0  0.22440  0.34060  0.93920  1.0000
  H   H117      1.0  0.71620  0.19170  0.45990  1.0000
  H   H118      1.0  0.78380  0.69170  0.04010  1.0000
  H   H119      1.0  0.28380  0.80830  0.54010  1.0000
  H   H120      1.0  0.21620  0.30830  0.95990  1.0000
  C   C213      1.0  0.79250  0.09500  0.39900  1.0000
  C   C214      1.0  0.70750  0.59500  0.10100  1.0000
  C   C215      1.0  0.20750  0.90500  0.60100  1.0000
  C   C216      1.0  0.29250  0.40500  0.89900  1.0000
  H   H121      1.0  0.82980  0.08510  0.39310  1.0000
  H   H122      1.0  0.67020  0.58510  0.10690  1.0000
  H   H123      1.0  0.17020  0.91490  0.60690  1.0000
  H   H124      1.0  0.32980  0.41490  0.89310  1.0000
  C   C217      1.0  0.78050  0.07600  0.09980  1.0000
  C   C218      1.0  0.71950  0.57600  0.40020  1.0000
  C   C219      1.0  0.21950  0.92400  0.90020  1.0000
  C   C220      1.0  0.28050  0.42400  0.59980  1.0000
  C   C221      1.0  0.57000  0.16230  0.27130  1.0000
  C   C222      1.0  0.93000  0.66230  0.22870  1.0000
  C   C223      1.0  0.43000  0.83770  0.72870  1.0000
  C   C224      1.0  0.07000  0.33770  0.77130  1.0000
  H   H125      1.0  0.53850  0.18880  0.27060  1.0000
  H   H126      1.0  0.96150  0.68880  0.22940  1.0000
  H   H127      1.0  0.46150  0.81120  0.72940  1.0000
  H   H128      1.0  0.03850  0.31120  0.77060  1.0000
  C   C225      1.0  0.89730  0.10790  0.17540  1.0000
  C   C226      1.0  0.60270  0.60790  0.32460  1.0000
  C   C227      1.0  0.10270  0.89210  0.82460  1.0000
  C   C228      1.0  0.39730  0.39210  0.67540  1.0000
  H   H129      1.0  0.91800  0.11230  0.14910  1.0000
  H   H130      1.0  0.58200  0.61230  0.35090  1.0000
  H   H131      1.0  0.08200  0.88770  0.85090  1.0000
  H   H132      1.0  0.41800  0.38770  0.64910  1.0000
  C   C229      1.0  0.84950  0.06730  0.17700  1.0000
  C   C230      1.0  0.65050  0.56730  0.32300  1.0000
  C   C231      1.0  0.15050  0.93270  0.82300  1.0000
  C   C232      1.0  0.34950  0.43270  0.67700  1.0000
  C   C233      1.0  0.75750  0.15790  0.04540  1.0000
  C   C234      1.0  0.74250  0.65790  0.45460  1.0000
  C   C235      1.0  0.24250  0.84210  0.95460  1.0000
  C   C236      1.0  0.25750  0.34210  0.54540  1.0000
  H   H133      1.0  0.76770  0.18680  0.02290  1.0000
  H   H134      1.0  0.73230  0.68680  0.47710  1.0000
  H   H135      1.0  0.23230  0.81320  0.97710  1.0000
  H   H136      1.0  0.26770  0.31320  0.52290  1.0000
  C   C237      1.0  0.83300  0.09530  0.25400  1.0000
  C   C238      1.0  0.66700  0.59530  0.24600  1.0000
  C   C239      1.0  0.16700  0.90470  0.74600  1.0000
  C   C240      1.0  0.33300  0.40470  0.75400  1.0000
  H   H137      1.0  0.81210  0.09120  0.28020  1.0000
  H   H138      1.0  0.68790  0.59120  0.21980  1.0000
  H   H139      1.0  0.18790  0.90880  0.71980  1.0000
  H   H140      1.0  0.31210  0.40880  0.78020  1.0000
  C   C241      1.0  0.69420  0.07780  0.38590  1.0000
  C   C242      1.0  0.80580  0.57780  0.11410  1.0000
  C   C243      1.0  0.30580  0.92220  0.61410  1.0000
  C   C244      1.0  0.19420  0.42220  0.88590  1.0000
  C   C245      1.0  0.89830  0.17050  0.29690  1.0000
  C   C246      1.0  0.60170  0.67050  0.20310  1.0000
  C   C247      1.0  0.10170  0.82950  0.70310  1.0000
  C   C248      1.0  0.39830  0.32950  0.79690  1.0000
  C   C249      1.0  0.75100  0.06190  0.37690  1.0000
  C   C250      1.0  0.74900  0.56190  0.12310  1.0000
  C   C251      1.0  0.24900  0.93810  0.62310  1.0000
  C   C252      1.0  0.25100  0.43810  0.87690  1.0000
  H   H141      1.0  0.75970  0.02960  0.35630  1.0000
  H   H142      1.0  0.74030  0.52960  0.14370  1.0000
  H   H143      1.0  0.24030  0.97040  0.64370  1.0000
  H   H144      1.0  0.25970  0.47040  0.85630  1.0000
  C   C253      1.0  0.72430  0.07190  0.11330  1.0000
  C   C254      1.0  0.77570  0.57190  0.38670  1.0000
  C   C255      1.0  0.27570  0.92810  0.88670  1.0000
  C   C256      1.0  0.22430  0.42810  0.61330  1.0000
  H   H145      1.0  0.71340  0.04330  0.13590  1.0000
  H   H146      1.0  0.78660  0.54330  0.36410  1.0000
  H   H147      1.0  0.28660  0.95670  0.86410  1.0000
  H   H148      1.0  0.21340  0.45670  0.63590  1.0000
  C   C257      1.0  0.65170  0.12200  0.23470  1.0000
  C   C258      1.0  0.84830  0.62200  0.26530  1.0000
  C   C259      1.0  0.34830  0.87800  0.76530  1.0000
  C   C260      1.0  0.15170  0.37800  0.73470  1.0000
  H   H149      1.0  0.67570  0.12230  0.21010  1.0000
  H   H150      1.0  0.82430  0.62230  0.28990  1.0000
  H   H151      1.0  0.32430  0.87770  0.78990  1.0000
  H   H152      1.0  0.17570  0.37770  0.71010  1.0000
  C   C261      1.0  0.66320  0.08210  0.27200  1.0000
  C   C262      1.0  0.83680  0.58210  0.22800  1.0000
  C   C263      1.0  0.33680  0.91790  0.72800  1.0000
  C   C264      1.0  0.16320  0.41790  0.77200  1.0000
  H   H153      1.0  0.69420  0.05480  0.27240  1.0000
  H   H154      1.0  0.80580  0.55480  0.22760  1.0000
  H   H155      1.0  0.30580  0.94520  0.72760  1.0000
  H   H156      1.0  0.19420  0.44520  0.77240  1.0000
  C   C265      1.0  0.81830  0.06090  0.21560  1.0000
  C   C266      1.0  0.68170  0.56090  0.28440  1.0000
  C   C267      1.0  0.18170  0.93910  0.78440  1.0000
  C   C268      1.0  0.31830  0.43910  0.71560  1.0000
  H   H157      1.0  0.78740  0.03350  0.21590  1.0000
  H   H158      1.0  0.71260  0.53350  0.28410  1.0000
  H   H159      1.0  0.21260  0.96650  0.78410  1.0000
  H   H160      1.0  0.28740  0.46650  0.71590  1.0000
  C   C269      1.0  0.82590  0.17910  0.45550  1.0000
  C   C270      1.0  0.67410  0.67910  0.04450  1.0000
  C   C271      1.0  0.17410  0.82090  0.54450  1.0000
  C   C272      1.0  0.32590  0.32090  0.95550  1.0000
  C   C273      1.0  0.65910  0.19420  0.03510  1.0000
  C   C274      1.0  0.84090  0.69420  0.46490  1.0000
  C   C275      1.0  0.34090  0.80580  0.96490  1.0000
  C   C276      1.0  0.15910  0.30580  0.53510  1.0000
  C   C277      1.0  0.58990  0.20000  0.19340  1.0000
  C   C278      1.0  0.91010  0.70000  0.30660  1.0000
  C   C279      1.0  0.41010  0.80000  0.80660  1.0000
  C   C280      1.0  0.08990  0.30000  0.69340  1.0000
  C   C281      1.0  0.90070  0.23250  0.62170  1.0000
  C   C282      1.0  0.59930  0.73250  0.87830  1.0000
  C   C283      1.0  0.09930  0.76750  0.37830  1.0000
  C   C284      1.0  0.40070  0.26750  0.12170  1.0000
  C   C285      1.0  0.85990  0.20790  0.65800  1.0000
  C   C286      1.0  0.64010  0.70790  0.84200  1.0000
  C   C287      1.0  0.14010  0.79210  0.34200  1.0000
  C   C288      1.0  0.35990  0.29210  0.15800  1.0000
  C   C289      1.0  0.80440  0.19120  0.64890  1.0000
  C   C290      1.0  0.69560  0.69120  0.85110  1.0000
  C   C291      1.0  0.19560  0.80880  0.35110  1.0000
  C   C292      1.0  0.30440  0.30880  0.14890  1.0000
  H   H161      1.0  0.78880  0.19900  0.62050  1.0000
  H   H162      1.0  0.71120  0.69900  0.87950  1.0000
  H   H163      1.0  0.21120  0.80100  0.37950  1.0000
  H   H164      1.0  0.28880  0.30100  0.12050  1.0000
  C   C293      1.0  0.77230  0.16270  0.68240  1.0000
  C   C294      1.0  0.72770  0.66270  0.81760  1.0000
  C   C295      1.0  0.22770  0.83730  0.31760  1.0000
  C   C296      1.0  0.27230  0.33730  0.18240  1.0000
  H   H165      1.0  0.73520  0.15150  0.67640  1.0000
  H   H166      1.0  0.76480  0.65150  0.82360  1.0000
  H   H167      1.0  0.26480  0.84850  0.32360  1.0000
  H   H168      1.0  0.23520  0.34850  0.17640  1.0000
  C   C297      1.0  0.79580  0.15100  0.72500  1.0000
  C   C298      1.0  0.70420  0.65100  0.77500  1.0000
  C   C299      1.0  0.20420  0.84900  0.27500  1.0000
  C   C300      1.0  0.29580  0.34900  0.22500  1.0000
  C   C301      1.0  0.85130  0.16780  0.73400  1.0000
  C   C302      1.0  0.64870  0.66780  0.76600  1.0000
  C   C303      1.0  0.14870  0.83220  0.26600  1.0000
  C   C304      1.0  0.35130  0.33220  0.23400  1.0000
  H   H169      1.0  0.86690  0.16000  0.76250  1.0000
  H   H170      1.0  0.63310  0.66000  0.73750  1.0000
  H   H171      1.0  0.13310  0.84000  0.23750  1.0000
  H   H172      1.0  0.36690  0.34000  0.26250  1.0000
  C   C305      1.0  0.88330  0.19630  0.70050  1.0000
  C   C306      1.0  0.61670  0.69630  0.79950  1.0000
  C   C307      1.0  0.11670  0.80370  0.29950  1.0000
  C   C308      1.0  0.38330  0.30370  0.20050  1.0000
  H   H173      1.0  0.92050  0.20750  0.70660  1.0000
  H   H174      1.0  0.57950  0.70750  0.79340  1.0000
  H   H175      1.0  0.07950  0.79250  0.29340  1.0000
  H   H176      1.0  0.42050  0.29250  0.20660  1.0000
  O   O213      1.0  0.59710  0.26160  0.90420  1.0000
  O   O214      1.0  0.90290  0.76160  0.59580  1.0000
  O   O215      1.0  0.40290  0.73840  0.09580  1.0000
  O   O216      1.0  0.09710  0.23840  0.40420  1.0000
  C   C309      1.0  0.58180  0.24280  0.86720  1.0000
  C   C310      1.0  0.91820  0.74280  0.63280  1.0000
  C   C311      1.0  0.41820  0.75720  0.13280  1.0000
  C   C312      1.0  0.08180  0.25720  0.36720  1.0000
  O   O217      1.0  0.80040  0.07450  0.80400  1.0000
  O   O218      1.0  0.69960  0.57450  0.69600  1.0000
  O   O219      1.0  0.19960  0.92550  0.19600  1.0000
  O   O220      1.0  0.30040  0.42550  0.30400  1.0000
  C   C313      1.0  0.72170  0.17960  0.83340  1.0000
  C   C314      1.0  0.77830  0.67960  0.66660  1.0000
  C   C315      1.0  0.27830  0.82040  0.16660  1.0000
  C   C316      1.0  0.22170  0.32040  0.33340  1.0000
  H   H177      1.0  0.75750  0.17590  0.84610  1.0000
  H   H178      1.0  0.74250  0.67590  0.65390  1.0000
  H   H179      1.0  0.24250  0.82410  0.15390  1.0000
  H   H180      1.0  0.25750  0.32410  0.34610  1.0000
  C   C317      1.0  0.70990  0.15250  0.79130  1.0000
  C   C318      1.0  0.79010  0.65250  0.70870  1.0000
  C   C319      1.0  0.29010  0.84750  0.20870  1.0000
  C   C320      1.0  0.20990  0.34750  0.29130  1.0000
  C   C321      1.0  0.65640  0.15810  0.77240  1.0000
  C   C322      1.0  0.84360  0.65810  0.72760  1.0000
  C   C323      1.0  0.34360  0.84190  0.22760  1.0000
  C   C324      1.0  0.15640  0.34190  0.27240  1.0000
  H   H181      1.0  0.64860  0.14000  0.74420  1.0000
  H   H182      1.0  0.85140  0.64000  0.75580  1.0000
  H   H183      1.0  0.35140  0.86000  0.25580  1.0000
  H   H184      1.0  0.14860  0.36000  0.24420  1.0000
  C   C325      1.0  0.61470  0.19070  0.79560  1.0000
  C   C326      1.0  0.88530  0.69070  0.70440  1.0000
  C   C327      1.0  0.38530  0.80930  0.20440  1.0000
  C   C328      1.0  0.11470  0.30930  0.29560  1.0000
  H   H185      1.0  0.57890  0.19440  0.78290  1.0000
  H   H186      1.0  0.92110  0.69440  0.71710  1.0000
  H   H187      1.0  0.42110  0.80560  0.21710  1.0000
  H   H188      1.0  0.07890  0.30560  0.28290  1.0000
  C   C329      1.0  0.62650  0.21770  0.83770  1.0000
  C   C330      1.0  0.87350  0.71770  0.66230  1.0000
  C   C331      1.0  0.37350  0.78230  0.16230  1.0000
  C   C332      1.0  0.12650  0.28230  0.33770  1.0000
  C   C333      1.0  0.67990  0.21220  0.85660  1.0000
  C   C334      1.0  0.82010  0.71220  0.64340  1.0000
  C   C335      1.0  0.32010  0.78780  0.14340  1.0000
  C   C336      1.0  0.17990  0.28780  0.35660  1.0000
  H   H189      1.0  0.68780  0.23030  0.88480  1.0000
  H   H190      1.0  0.81220  0.73030  0.61520  1.0000
  H   H191      1.0  0.31220  0.76970  0.11520  1.0000
  H   H192      1.0  0.18780  0.26970  0.38480  1.0000
  O   O221      1.0  0.72880  0.05470  0.73720  1.0000
  O   O222      1.0  0.77120  0.55470  0.76280  1.0000
  O   O223      1.0  0.27120  0.94530  0.26280  1.0000
  O   O224      1.0  0.22880  0.44530  0.23720  1.0000
