data_image0
_chemical_formula_structural       U8O18S4O22C2O2C8H2C2H2C4H2C2H2C2H2C2H2C4H2C2O2C2H2C6H2C6H2C2H2C2H2C2H2C4H2C4H2C4H2O8C4H2C2H2C4H2C2H2C4H2C2H2C2H2C2H2C2S2O4
_chemical_formula_sum              "U8 O56 S6 C84 H48"
_cell_length_a       10.523
_cell_length_b       11.866
_cell_length_c       29.288
_cell_angle_alpha    90.81
_cell_angle_beta     92.91
_cell_angle_gamma    92.71

_space_group_name_H-M_alt    "P 1"
_space_group_IT_number       1

loop_
  _space_group_symop_operation_xyz
  'x, y, z'

loop_
  _atom_site_type_symbol
  _atom_site_label
  _atom_site_symmetry_multiplicity
  _atom_site_fract_x
  _atom_site_fract_y
  _atom_site_fract_z
  _atom_site_occupancy
  U   U1        1.0  0.02965  0.35519  0.51590  1.0000
  U   U2        1.0  0.97035  0.64481  0.48410  1.0000
  U   U3        1.0  0.02856  0.64768  0.98578  1.0000
  U   U4        1.0  0.97144  0.35232  0.01422  1.0000
  U   U5        1.0  0.05506  0.40533  0.38674  1.0000
  U   U6        1.0  0.94494  0.59467  0.61326  1.0000
  U   U7        1.0  0.05890  0.59619  0.11507  1.0000
  U   U8        1.0  0.94110  0.40381  0.88492  1.0000
  O   O1        1.0  0.86880  0.30950  0.50210  1.0000
  O   O2        1.0  0.13120  0.69050  0.49790  1.0000
  O   O3        1.0  0.20970  0.46820  0.38950  1.0000
  O   O4        1.0  0.79030  0.53180  0.61050  1.0000
  O   O5        1.0  0.19060  0.38830  0.53140  1.0000
  O   O6        1.0  0.80940  0.61170  0.46860  1.0000
  O   O7        1.0  0.11380  0.26540  0.44310  1.0000
  O   O8        1.0  0.88620  0.73460  0.55690  1.0000
  O   O9        1.0  0.02340  0.47670  0.45610  1.0000
  O   O10       1.0  0.97660  0.52330  0.54390  1.0000
  O   O11       1.0  0.00200  0.28670  0.59060  1.0000
  O   O12       1.0  0.99800  0.71330  0.40940  1.0000
  O   O13       1.0  0.19160  0.62830  0.97420  1.0000
  O   O14       1.0  0.80840  0.37170  0.02580  1.0000
  O   O15       1.0  0.87030  0.68190  0.99590  1.0000
  O   O16       1.0  0.12970  0.31810  0.00410  1.0000
  O   O17       1.0  0.90170  0.33880  0.38130  1.0000
  O   O18       1.0  0.09830  0.66120  0.61870  1.0000
  S   S1        1.0  0.44410  0.21410  0.14154  1.0000
  S   S2        1.0  0.55590  0.78590  0.85846  1.0000
  S   S3        1.0  0.44140  0.82280  0.37526  1.0000
  S   S4        1.0  0.55860  0.17720  0.62474  1.0000
  O   O19       1.0  0.56390  0.17020  0.15770  1.0000
  O   O20       1.0  0.43610  0.82980  0.84230  1.0000
  O   O21       1.0  0.06650  0.40130  0.30250  1.0000
  O   O22       1.0  0.93350  0.59870  0.69750  1.0000
  O   O23       1.0  0.02880  0.42520  0.64190  1.0000
  O   O24       1.0  0.97120  0.57480  0.35810  1.0000
  O   O25       1.0  0.14590  0.25820  0.33940  1.0000
  O   O26       1.0  0.85410  0.74180  0.66060  1.0000
  O   O27       1.0  0.12450  0.73990  0.06140  1.0000
  O   O28       1.0  0.87550  0.26010  0.93860  1.0000
  O   O29       1.0  0.44350  0.72410  0.40340  1.0000
  O   O30       1.0  0.55650  0.27590  0.59660  1.0000
  O   O31       1.0  0.07220  0.60290  0.19950  1.0000
  O   O32       1.0  0.92780  0.39710  0.80050  1.0000
  O   O33       1.0  0.44400  0.31220  0.11250  1.0000
  O   O34       1.0  0.55600  0.68780  0.88750  1.0000
  O   O35       1.0  0.03160  0.57930  0.86000  1.0000
  O   O36       1.0  0.96840  0.42070  0.14000  1.0000
  O   O37       1.0  0.97550  0.47520  0.95550  1.0000
  O   O38       1.0  0.02450  0.52480  0.04450  1.0000
  O   O39       1.0  0.56060  0.87840  0.36230  1.0000
  O   O40       1.0  0.43940  0.12160  0.63770  1.0000
  C   C1        1.0  0.19860  0.08200  0.43820  1.0000
  C   C2        1.0  0.80140  0.91800  0.56180  1.0000
  O   O41       1.0  0.21330  0.53870  0.11790  1.0000
  O   O42       1.0  0.78670  0.46130  0.88210  1.0000
  C   C3        1.0  0.35330  0.10470  0.11300  1.0000
  C   C4        1.0  0.64670  0.89530  0.88700  1.0000
  C   C5        1.0  0.34710  0.92480  0.40050  1.0000
  C   C6        1.0  0.65290  0.07520  0.59950  1.0000
  C   C7        1.0  0.35130  0.78480  0.32370  1.0000
  C   C8        1.0  0.64870  0.21520  0.67630  1.0000
  C   C9        1.0  0.36470  0.03730  0.38830  1.0000
  C   C10       1.0  0.63530  0.96270  0.61170  1.0000
  H   H1        1.0  0.42520  0.05860  0.36760  1.0000
  H   H2        1.0  0.57480  0.94140  0.63240  1.0000
  C   C11       1.0  0.29110  0.11580  0.40730  1.0000
  C   C12       1.0  0.70890  0.88420  0.59270  1.0000
  H   H3        1.0  0.30220  0.19150  0.39990  1.0000
  H   H4        1.0  0.69780  0.80850  0.60010  1.0000
  C   C13       1.0  0.20800  0.93100  0.06870  1.0000
  C   C14       1.0  0.79200  0.06900  0.93130  1.0000
  C   C15       1.0  0.30380  0.90650  0.10150  1.0000
  C   C16       1.0  0.69620  0.09350  0.89850  1.0000
  H   H5        1.0  0.31800  0.83190  0.10860  1.0000
  H   H6        1.0  0.68200  0.16810  0.89140  1.0000
  C   C17       1.0  0.27230  0.33180  0.18780  1.0000
  C   C18       1.0  0.72770  0.66820  0.81220  1.0000
  H   H7        1.0  0.26520  0.37570  0.16180  1.0000
  H   H8        1.0  0.73480  0.62430  0.83820  1.0000
  C   C19       1.0  0.18850  0.04320  0.05750  1.0000
  C   C20       1.0  0.81150  0.95680  0.94250  1.0000
  H   H9        1.0  0.12910  0.05930  0.03430  1.0000
  H   H10       1.0  0.87090  0.94070  0.96570  1.0000
  C   C21       1.0  0.18460  0.96930  0.45050  1.0000
  C   C22       1.0  0.81540  0.03070  0.54950  1.0000
  H   H11       1.0  0.12690  0.94820  0.47230  1.0000
  H   H12       1.0  0.87310  0.05180  0.52770  1.0000
  C   C23       1.0  0.13150  0.16980  0.46210  1.0000
  C   C24       1.0  0.86850  0.83020  0.53790  1.0000
  C   C25       1.0  0.25660  0.13010  0.08070  1.0000
  C   C26       1.0  0.74340  0.86990  0.91930  1.0000
  H   H13       1.0  0.23850  0.20470  0.07500  1.0000
  H   H14       1.0  0.76150  0.79530  0.92500  1.0000
  C   C27       1.0  0.13850  0.83900  0.04360  1.0000
  C   C28       1.0  0.86150  0.16100  0.95640  1.0000
  O   O43       1.0  0.15540  0.74740  0.16520  1.0000
  O   O44       1.0  0.84460  0.25260  0.83480  1.0000
  C   C29       1.0  0.25720  0.88730  0.43040  1.0000
  C   C30       1.0  0.74280  0.11270  0.56960  1.0000
  H   H15       1.0  0.24530  0.81120  0.43680  1.0000
  H   H16       1.0  0.75470  0.18880  0.56320  1.0000
  C   C31       1.0  0.20930  0.28860  0.26270  1.0000
  C   C32       1.0  0.79070  0.71140  0.73730  1.0000
  C   C33       1.0  0.35470  0.24410  0.18960  1.0000
  C   C34       1.0  0.64530  0.75590  0.81040  1.0000
  C   C35       1.0  0.26990  0.68960  0.32260  1.0000
  C   C36       1.0  0.73010  0.31040  0.67740  1.0000
  H   H17       1.0  0.26220  0.64600  0.34850  1.0000
  H   H18       1.0  0.73780  0.35400  0.65150  1.0000
  C   C37       1.0  0.13650  0.31600  0.30310  1.0000
  C   C38       1.0  0.86350  0.68400  0.69690  1.0000
  C   C39       1.0  0.21210  0.72500  0.24430  1.0000
  C   C40       1.0  0.78790  0.27500  0.75570  1.0000
  C   C41       1.0  0.37720  0.99210  0.12320  1.0000
  C   C42       1.0  0.62280  0.00790  0.87680  1.0000
  H   H19       1.0  0.44190  0.97560  0.14450  1.0000
  H   H20       1.0  0.55810  0.02440  0.85550  1.0000
  C   C43       1.0  0.20200  0.66060  0.28370  1.0000
  C   C44       1.0  0.79800  0.33940  0.71630  1.0000
  H   H21       1.0  0.14740  0.59650  0.28300  1.0000
  H   H22       1.0  0.85260  0.40350  0.71700  1.0000
  C   C45       1.0  0.20170  0.35330  0.22440  1.0000
  C   C46       1.0  0.79830  0.64670  0.77560  1.0000
  H   H23       1.0  0.14740  0.41290  0.22340  1.0000
  H   H24       1.0  0.85260  0.58710  0.77660  1.0000
  C   C47       1.0  0.29530  0.82220  0.24630  1.0000
  C   C48       1.0  0.70470  0.17780  0.75370  1.0000
  H   H25       1.0  0.30240  0.86620  0.22040  1.0000
  H   H26       1.0  0.69760  0.13380  0.77960  1.0000
  C   C49       1.0  0.03140  0.68010  0.87380  1.0000
  C   C50       1.0  0.96860  0.31990  0.12620  1.0000
  C   C51       1.0  0.36310  0.17670  0.22860  1.0000
  C   C52       1.0  0.63690  0.82330  0.77140  1.0000
  H   H27       1.0  0.41630  0.11630  0.22970  1.0000
  H   H28       1.0  0.58370  0.88370  0.77030  1.0000
  C   C53       1.0  0.03470  0.32530  0.62910  1.0000
  C   C54       1.0  0.96530  0.67470  0.37090  1.0000
  C   C55       1.0  0.36440  0.85260  0.28480  1.0000
  C   C56       1.0  0.63560  0.14740  0.71520  1.0000
  H   H29       1.0  0.41920  0.91650  0.28580  1.0000
  H   H30       1.0  0.58080  0.08350  0.71420  1.0000
  C   C57       1.0  0.14300  0.69140  0.20050  1.0000
  C   C58       1.0  0.85700  0.30860  0.79950  1.0000
  C   C59       1.0  0.29270  0.20100  0.26450  1.0000
  C   C60       1.0  0.70730  0.79900  0.73550  1.0000
  H   H31       1.0  0.30020  0.15850  0.29090  1.0000
  H   H32       1.0  0.69980  0.84150  0.70910  1.0000
  O   O45       1.0  0.91200  0.65630  0.11420  1.0000
  O   O46       1.0  0.08800  0.34370  0.88580  1.0000
  O   O47       1.0  0.99050  0.71150  0.91100  1.0000
  O   O48       1.0  0.00950  0.28850  0.08900  1.0000
  O   O49       1.0  0.09060  0.85270  0.00310  1.0000
  O   O50       1.0  0.90940  0.14730  0.99690  1.0000
  O   O51       1.0  0.08920  0.15330  0.50120  1.0000
  O   O52       1.0  0.91080  0.84670  0.49880  1.0000
  C   C61       1.0  0.08490  0.23990  0.66340  1.0000
  C   C62       1.0  0.91510  0.76010  0.33660  1.0000
  C   C63       1.0  0.12080  0.27540  0.70790  1.0000
  C   C64       1.0  0.87920  0.72460  0.29210  1.0000
  H   H33       1.0  0.10520  0.34820  0.71750  1.0000
  H   H34       1.0  0.89480  0.65180  0.28250  1.0000
  C   C65       1.0  0.18020  0.20220  0.73780  1.0000
  C   C66       1.0  0.81980  0.79780  0.26220  1.0000
  H   H35       1.0  0.20430  0.22590  0.76750  1.0000
  H   H36       1.0  0.79570  0.77410  0.23250  1.0000
  C   C67       1.0  0.20360  0.09340  0.72330  1.0000
  C   C68       1.0  0.79640  0.90660  0.27670  1.0000
  C   C69       1.0  0.16770  0.05780  0.67890  1.0000
  C   C70       1.0  0.83230  0.94220  0.32110  1.0000
  H   H37       1.0  0.18340  0.98500  0.66920  1.0000
  H   H38       1.0  0.81660  0.01500  0.33080  1.0000
  C   C71       1.0  0.10830  0.13110  0.64900  1.0000
  C   C72       1.0  0.89170  0.86890  0.35100  1.0000
  H   H39       1.0  0.08430  0.10730  0.61930  1.0000
  H   H40       1.0  0.91570  0.89270  0.38070  1.0000
  C   C73       1.0  0.19700  0.91040  0.78870  1.0000
  C   C74       1.0  0.80300  0.08960  0.21130  1.0000
  C   C75       1.0  0.16800  0.81000  0.76720  1.0000
  C   C76       1.0  0.83200  0.19000  0.23280  1.0000
  H   H41       1.0  0.18440  0.79310  0.73700  1.0000
  H   H42       1.0  0.81560  0.20690  0.26300  1.0000
  C   C77       1.0  0.17600  0.96300  0.83110  1.0000
  C   C78       1.0  0.82400  0.03700  0.16890  1.0000
  H   H43       1.0  0.20150  0.03660  0.83960  1.0000
  H   H44       1.0  0.79850  0.96340  0.16040  1.0000
  C   C79       1.0  0.10540  0.87830  0.86060  1.0000
  C   C80       1.0  0.89460  0.12170  0.13940  1.0000
  H   H45       1.0  0.07730  0.89800  0.88910  1.0000
  H   H46       1.0  0.92270  0.10200  0.11090  1.0000
  C   C81       1.0  0.10850  0.73380  0.79700  1.0000
  C   C82       1.0  0.89150  0.26620  0.20300  1.0000
  H   H47       1.0  0.08450  0.66050  0.78740  1.0000
  H   H48       1.0  0.91550  0.33950  0.21260  1.0000
  C   C83       1.0  0.08590  0.77200  0.84240  1.0000
  C   C84       1.0  0.91410  0.22800  0.15760  1.0000
  S   S5        1.0  0.32030  0.00850  0.75620  1.0000
  S   S6        1.0  0.67970  0.99150  0.24380  1.0000
  O   O53       1.0  0.34200  0.92860  0.71940  1.0000
  O   O54       1.0  0.65800  0.07140  0.28060  1.0000
  O   O55       1.0  0.32830  0.09510  0.79320  1.0000
  O   O56       1.0  0.67170  0.90490  0.20680  1.0000
