data_image0
_chemical_formula_structural       Zn4Fe8O64C16H8C8H8C16H8C8H8C24H8C8H8C16H8C16H8C16
_chemical_formula_sum              "Zn4 Fe8 O64 C128 H64"
_cell_length_a       33.219
_cell_length_b       9.6325
_cell_length_c       18.346
_cell_angle_alpha    90
_cell_angle_beta     93.938
_cell_angle_gamma    90

_space_group_name_H-M_alt    "P 1"
_space_group_IT_number       1

loop_
  _space_group_symop_operation_xyz
  'x, y, z'

loop_
  _atom_site_type_symbol
  _atom_site_label
  _atom_site_symmetry_multiplicity
  _atom_site_fract_x
  _atom_site_fract_y
  _atom_site_fract_z
  _atom_site_occupancy
  Zn  Zn1       1.0  0.25000  0.25000  0.50000  1.0000
  Zn  Zn2       1.0  0.75000  0.25000  0.00000  1.0000
  Zn  Zn3       1.0  0.75000  0.75000  0.50000  1.0000
  Zn  Zn4       1.0  0.25000  0.75000  0.00000  1.0000
  Fe  Fe1       1.0  0.15224  0.20299  0.48315  1.0000
  Fe  Fe2       1.0  0.84776  0.20299  0.01685  1.0000
  Fe  Fe3       1.0  0.65224  0.70299  0.48315  1.0000
  Fe  Fe4       1.0  0.34776  0.70299  0.01685  1.0000
  Fe  Fe5       1.0  0.84776  0.79701  0.51685  1.0000
  Fe  Fe6       1.0  0.15224  0.79701  0.98315  1.0000
  Fe  Fe7       1.0  0.34776  0.29701  0.51685  1.0000
  Fe  Fe8       1.0  0.65224  0.29701  0.98315  1.0000
  O   O1        1.0  0.21511  0.38830  0.55496  1.0000
  O   O2        1.0  0.78489  0.38830  0.94504  1.0000
  O   O3        1.0  0.71511  0.88830  0.55496  1.0000
  O   O4        1.0  0.28489  0.88830  0.94504  1.0000
  O   O5        1.0  0.78489  0.61170  0.44504  1.0000
  O   O6        1.0  0.21511  0.61170  0.05496  1.0000
  O   O7        1.0  0.28489  0.11170  0.44504  1.0000
  O   O8        1.0  0.71511  0.11170  0.05496  1.0000
  O   O9        1.0  0.15284  0.31590  0.57270  1.0000
  O   O10       1.0  0.84716  0.31590  0.92730  1.0000
  O   O11       1.0  0.65284  0.81590  0.57270  1.0000
  O   O12       1.0  0.34716  0.81590  0.92730  1.0000
  O   O13       1.0  0.84716  0.68410  0.42730  1.0000
  O   O14       1.0  0.15284  0.68410  0.07270  1.0000
  O   O15       1.0  0.34716  0.18410  0.42730  1.0000
  O   O16       1.0  0.65284  0.18410  0.07270  1.0000
  O   O17       1.0  0.15906  0.67480  0.90045  1.0000
  O   O18       1.0  0.84094  0.67480  0.59955  1.0000
  O   O19       1.0  0.65906  0.17480  0.90045  1.0000
  O   O20       1.0  0.34094  0.17480  0.59955  1.0000
  O   O21       1.0  0.84094  0.32520  0.09955  1.0000
  O   O22       1.0  0.15906  0.32520  0.40045  1.0000
  O   O23       1.0  0.34094  0.82520  0.09955  1.0000
  O   O24       1.0  0.65906  0.82520  0.40045  1.0000
  O   O25       1.0  0.22619  0.68880  0.89920  1.0000
  O   O26       1.0  0.77381  0.68880  0.60080  1.0000
  O   O27       1.0  0.72619  0.18880  0.89920  1.0000
  O   O28       1.0  0.27381  0.18880  0.60080  1.0000
  O   O29       1.0  0.77381  0.31120  0.10080  1.0000
  O   O30       1.0  0.22619  0.31120  0.39920  1.0000
  O   O31       1.0  0.27381  0.81120  0.10080  1.0000
  O   O32       1.0  0.72619  0.81120  0.39920  1.0000
  O   O33       1.0  0.20178  0.09090  0.50406  1.0000
  O   O34       1.0  0.79822  0.09090  0.99594  1.0000
  O   O35       1.0  0.70178  0.59090  0.50406  1.0000
  O   O36       1.0  0.29822  0.59090  0.99594  1.0000
  O   O37       1.0  0.79822  0.90910  0.49594  1.0000
  O   O38       1.0  0.20178  0.90910  0.00406  1.0000
  O   O39       1.0  0.29822  0.40910  0.49594  1.0000
  O   O40       1.0  0.70178  0.40910  0.00406  1.0000
  O   O41       1.0  0.17630  0.97920  0.40550  1.0000
  O   O42       1.0  0.82370  0.97920  0.09450  1.0000
  O   O43       1.0  0.67630  0.47920  0.40550  1.0000
  O   O44       1.0  0.32370  0.47920  0.09450  1.0000
  O   O45       1.0  0.82370  0.02080  0.59450  1.0000
  O   O46       1.0  0.17630  0.02080  0.90550  1.0000
  O   O47       1.0  0.32370  0.52080  0.59450  1.0000
  O   O48       1.0  0.67630  0.52080  0.90550  1.0000
  O   O49       1.0  0.09614  0.14960  0.46420  1.0000
  O   O50       1.0  0.90386  0.14960  0.03580  1.0000
  O   O51       1.0  0.59614  0.64960  0.46420  1.0000
  O   O52       1.0  0.40386  0.64960  0.03580  1.0000
  O   O53       1.0  0.90386  0.85040  0.53580  1.0000
  O   O54       1.0  0.09614  0.85040  0.96420  1.0000
  O   O55       1.0  0.40386  0.35040  0.53580  1.0000
  O   O56       1.0  0.59614  0.35040  0.96420  1.0000
  O   O57       1.0  0.10929  0.01160  0.55970  1.0000
  O   O58       1.0  0.89071  0.01160  0.94030  1.0000
  O   O59       1.0  0.60929  0.51160  0.55970  1.0000
  O   O60       1.0  0.39071  0.51160  0.94030  1.0000
  O   O61       1.0  0.89071  0.98840  0.44030  1.0000
  O   O62       1.0  0.10929  0.98840  0.05970  1.0000
  O   O63       1.0  0.39071  0.48840  0.44030  1.0000
  O   O64       1.0  0.60929  0.48840  0.05970  1.0000
  C   C1        1.0  0.18672  0.45110  0.66500  1.0000
  C   C2        1.0  0.81328  0.45110  0.83500  1.0000
  C   C3        1.0  0.68672  0.95110  0.66500  1.0000
  C   C4        1.0  0.31328  0.95110  0.83500  1.0000
  C   C5        1.0  0.81328  0.54890  0.33500  1.0000
  C   C6        1.0  0.18672  0.54890  0.16500  1.0000
  C   C7        1.0  0.31328  0.04890  0.33500  1.0000
  C   C8        1.0  0.68672  0.04890  0.16500  1.0000
  C   C9        1.0  0.22296  0.50440  0.69440  1.0000
  C   C10       1.0  0.77704  0.50440  0.80560  1.0000
  C   C11       1.0  0.72296  0.00440  0.69440  1.0000
  C   C12       1.0  0.27704  0.00440  0.80560  1.0000
  C   C13       1.0  0.77704  0.49560  0.30560  1.0000
  C   C14       1.0  0.22296  0.49560  0.19440  1.0000
  C   C15       1.0  0.27704  0.99560  0.30560  1.0000
  C   C16       1.0  0.72296  0.99560  0.19440  1.0000
  H   H1        1.0  0.24660  0.49760  0.66820  1.0000
  H   H2        1.0  0.75340  0.49760  0.83180  1.0000
  H   H3        1.0  0.74660  0.99760  0.66820  1.0000
  H   H4        1.0  0.25340  0.99760  0.83180  1.0000
  H   H5        1.0  0.75340  0.50240  0.33180  1.0000
  H   H6        1.0  0.24660  0.50240  0.16820  1.0000
  H   H7        1.0  0.25340  0.00240  0.33180  1.0000
  H   H8        1.0  0.74660  0.00240  0.16820  1.0000
  C   C17       1.0  0.22448  0.56770  0.76210  1.0000
  C   C18       1.0  0.77552  0.56770  0.73790  1.0000
  C   C19       1.0  0.72448  0.06770  0.76210  1.0000
  C   C20       1.0  0.27552  0.06770  0.73790  1.0000
  C   C21       1.0  0.77552  0.43230  0.23790  1.0000
  C   C22       1.0  0.22448  0.43230  0.26210  1.0000
  C   C23       1.0  0.27552  0.93230  0.23790  1.0000
  C   C24       1.0  0.72448  0.93230  0.26210  1.0000
  H   H9        1.0  0.24940  0.60190  0.78330  1.0000
  H   H10       1.0  0.75060  0.60190  0.71670  1.0000
  H   H11       1.0  0.74940  0.10190  0.78330  1.0000
  H   H12       1.0  0.25060  0.10190  0.71670  1.0000
  H   H13       1.0  0.75060  0.39810  0.21670  1.0000
  H   H14       1.0  0.24940  0.39810  0.28330  1.0000
  H   H15       1.0  0.25060  0.89810  0.21670  1.0000
  H   H16       1.0  0.74940  0.89810  0.28330  1.0000
  C   C25       1.0  0.19002  0.58140  0.79880  1.0000
  C   C26       1.0  0.80998  0.58140  0.70120  1.0000
  C   C27       1.0  0.69002  0.08140  0.79880  1.0000
  C   C28       1.0  0.30998  0.08140  0.70120  1.0000
  C   C29       1.0  0.80998  0.41860  0.20120  1.0000
  C   C30       1.0  0.19002  0.41860  0.29880  1.0000
  C   C31       1.0  0.30998  0.91860  0.20120  1.0000
  C   C32       1.0  0.69002  0.91860  0.29880  1.0000
  C   C33       1.0  0.15503  0.53130  0.76900  1.0000
  C   C34       1.0  0.84497  0.53130  0.73100  1.0000
  C   C35       1.0  0.65503  0.03130  0.76900  1.0000
  C   C36       1.0  0.34497  0.03130  0.73100  1.0000
  C   C37       1.0  0.84497  0.46870  0.23100  1.0000
  C   C38       1.0  0.15503  0.46870  0.26900  1.0000
  C   C39       1.0  0.34497  0.96870  0.23100  1.0000
  C   C40       1.0  0.65503  0.96870  0.26900  1.0000
  H   H17       1.0  0.13120  0.54250  0.79420  1.0000
  H   H18       1.0  0.86880  0.54250  0.70580  1.0000
  H   H19       1.0  0.63120  0.04250  0.79420  1.0000
  H   H20       1.0  0.36880  0.04250  0.70580  1.0000
  H   H21       1.0  0.86880  0.45750  0.20580  1.0000
  H   H22       1.0  0.13120  0.45750  0.29420  1.0000
  H   H23       1.0  0.36880  0.95750  0.20580  1.0000
  H   H24       1.0  0.63120  0.95750  0.29420  1.0000
  C   C41       1.0  0.15292  0.46380  0.70260  1.0000
  C   C42       1.0  0.84708  0.46380  0.79740  1.0000
  C   C43       1.0  0.65292  0.96380  0.70260  1.0000
  C   C44       1.0  0.34708  0.96380  0.79740  1.0000
  C   C45       1.0  0.84708  0.53620  0.29740  1.0000
  C   C46       1.0  0.15292  0.53620  0.20260  1.0000
  C   C47       1.0  0.34708  0.03620  0.29740  1.0000
  C   C48       1.0  0.65292  0.03620  0.20260  1.0000
  H   H25       1.0  0.12800  0.42630  0.68310  1.0000
  H   H26       1.0  0.87200  0.42630  0.81690  1.0000
  H   H27       1.0  0.62800  0.92630  0.68310  1.0000
  H   H28       1.0  0.37200  0.92630  0.81690  1.0000
  H   H29       1.0  0.87200  0.57370  0.31690  1.0000
  H   H30       1.0  0.12800  0.57370  0.18310  1.0000
  H   H31       1.0  0.37200  0.07370  0.31690  1.0000
  H   H32       1.0  0.62800  0.07370  0.18310  1.0000
  C   C49       1.0  0.18489  0.37960  0.59170  1.0000
  C   C50       1.0  0.81511  0.37960  0.90830  1.0000
  C   C51       1.0  0.68489  0.87960  0.59170  1.0000
  C   C52       1.0  0.31511  0.87960  0.90830  1.0000
  C   C53       1.0  0.81511  0.62040  0.40830  1.0000
  C   C54       1.0  0.18489  0.62040  0.09170  1.0000
  C   C55       1.0  0.31511  0.12040  0.40830  1.0000
  C   C56       1.0  0.68489  0.12040  0.09170  1.0000
  C   C57       1.0  0.19195  0.65610  0.87140  1.0000
  C   C58       1.0  0.80805  0.65610  0.62860  1.0000
  C   C59       1.0  0.69195  0.15610  0.87140  1.0000
  C   C60       1.0  0.30805  0.15610  0.62860  1.0000
  C   C61       1.0  0.80805  0.34390  0.12860  1.0000
  C   C62       1.0  0.19195  0.34390  0.37140  1.0000
  C   C63       1.0  0.30805  0.84390  0.12860  1.0000
  C   C64       1.0  0.69195  0.84390  0.37140  1.0000
  C   C65       1.0  0.24874  0.86000  0.54660  1.0000
  C   C66       1.0  0.75126  0.86000  0.95340  1.0000
  C   C67       1.0  0.74874  0.36000  0.54660  1.0000
  C   C68       1.0  0.25126  0.36000  0.95340  1.0000
  C   C69       1.0  0.75126  0.14000  0.45340  1.0000
  C   C70       1.0  0.24874  0.14000  0.04660  1.0000
  C   C71       1.0  0.25126  0.64000  0.45340  1.0000
  C   C72       1.0  0.74874  0.64000  0.04660  1.0000
  H   H33       1.0  0.24800  0.93690  0.57890  1.0000
  H   H34       1.0  0.75200  0.93690  0.92110  1.0000
  H   H35       1.0  0.74800  0.43690  0.57890  1.0000
  H   H36       1.0  0.25200  0.43690  0.92110  1.0000
  H   H37       1.0  0.75200  0.06310  0.42110  1.0000
  H   H38       1.0  0.24800  0.06310  0.07890  1.0000
  H   H39       1.0  0.25200  0.56310  0.42110  1.0000
  H   H40       1.0  0.74800  0.56310  0.07890  1.0000
  C   C73       1.0  0.22759  0.75190  0.43370  1.0000
  C   C74       1.0  0.77241  0.75190  0.06630  1.0000
  C   C75       1.0  0.72759  0.25190  0.43370  1.0000
  C   C76       1.0  0.27241  0.25190  0.06630  1.0000
  C   C77       1.0  0.77241  0.24810  0.56630  1.0000
  C   C78       1.0  0.22759  0.24810  0.93370  1.0000
  C   C79       1.0  0.27241  0.74810  0.56630  1.0000
  C   C80       1.0  0.72759  0.74810  0.93370  1.0000
  H   H41       1.0  0.21240  0.75300  0.38800  1.0000
  H   H42       1.0  0.78760  0.75300  0.11200  1.0000
  H   H43       1.0  0.71240  0.25300  0.38800  1.0000
  H   H44       1.0  0.28760  0.25300  0.11200  1.0000
  H   H45       1.0  0.78760  0.24700  0.61200  1.0000
  H   H46       1.0  0.21240  0.24700  0.88800  1.0000
  H   H47       1.0  0.28760  0.74700  0.61200  1.0000
  H   H48       1.0  0.71240  0.74700  0.88800  1.0000
  C   C81       1.0  0.19935  0.98380  0.46100  1.0000
  C   C82       1.0  0.80065  0.98380  0.03900  1.0000
  C   C83       1.0  0.69935  0.48380  0.46100  1.0000
  C   C84       1.0  0.30065  0.48380  0.03900  1.0000
  C   C85       1.0  0.80065  0.01620  0.53900  1.0000
  C   C86       1.0  0.19935  0.01620  0.96100  1.0000
  C   C87       1.0  0.30065  0.51620  0.53900  1.0000
  C   C88       1.0  0.69935  0.51620  0.96100  1.0000
  C   C89       1.0  0.02640  0.93180  0.55110  1.0000
  C   C90       1.0  0.97360  0.93180  0.94890  1.0000
  C   C91       1.0  0.52640  0.43180  0.55110  1.0000
  C   C92       1.0  0.47360  0.43180  0.94890  1.0000
  C   C93       1.0  0.97360  0.06820  0.44890  1.0000
  C   C94       1.0  0.02640  0.06820  0.05110  1.0000
  C   C95       1.0  0.47360  0.56820  0.44890  1.0000
  C   C96       1.0  0.52640  0.56820  0.05110  1.0000
  H   H49       1.0  0.04360  0.88850  0.58790  1.0000
  H   H50       1.0  0.95640  0.88850  0.91210  1.0000
  H   H51       1.0  0.54360  0.38850  0.58790  1.0000
  H   H52       1.0  0.45640  0.38850  0.91210  1.0000
  H   H53       1.0  0.95640  0.11150  0.41210  1.0000
  H   H54       1.0  0.04360  0.11150  0.08790  1.0000
  H   H55       1.0  0.45640  0.61150  0.41210  1.0000
  H   H56       1.0  0.54360  0.61150  0.08790  1.0000
  C   C97       1.0  0.04140  0.03240  0.50350  1.0000
  C   C98       1.0  0.95860  0.03240  0.99650  1.0000
  C   C99       1.0  0.54140  0.53240  0.50350  1.0000
  C   C100      1.0  0.45860  0.53240  0.99650  1.0000
  C   C101      1.0  0.95860  0.96760  0.49650  1.0000
  C   C102      1.0  0.04140  0.96760  0.00350  1.0000
  C   C103      1.0  0.45860  0.46760  0.49650  1.0000
  C   C104      1.0  0.54140  0.46760  0.00350  1.0000
  C   C105      1.0  0.01350  0.10050  0.45810  1.0000
  C   C106      1.0  0.98650  0.10050  0.04190  1.0000
  C   C107      1.0  0.51350  0.60050  0.45810  1.0000
  C   C108      1.0  0.48650  0.60050  0.04190  1.0000
  C   C109      1.0  0.98650  0.89950  0.54190  1.0000
  C   C110      1.0  0.01350  0.89950  0.95810  1.0000
  C   C111      1.0  0.48650  0.39950  0.54190  1.0000
  C   C112      1.0  0.51350  0.39950  0.95810  1.0000
  H   H57       1.0  0.02280  0.17630  0.43070  1.0000
  H   H58       1.0  0.97720  0.17630  0.06930  1.0000
  H   H59       1.0  0.52280  0.67630  0.43070  1.0000
  H   H60       1.0  0.47720  0.67630  0.06930  1.0000
  H   H61       1.0  0.97720  0.82370  0.56930  1.0000
  H   H62       1.0  0.02280  0.82370  0.93070  1.0000
  H   H63       1.0  0.47720  0.32370  0.56930  1.0000
  H   H64       1.0  0.52280  0.32370  0.93070  1.0000
  C   C113      1.0  0.08470  0.06670  0.50950  1.0000
  C   C114      1.0  0.91530  0.06670  0.99050  1.0000
  C   C115      1.0  0.58470  0.56670  0.50950  1.0000
  C   C116      1.0  0.41530  0.56670  0.99050  1.0000
  C   C117      1.0  0.91530  0.93330  0.49050  1.0000
  C   C118      1.0  0.08470  0.93330  0.00950  1.0000
  C   C119      1.0  0.41530  0.43330  0.49050  1.0000
  C   C120      1.0  0.58470  0.43330  0.00950  1.0000
  C   C121      1.0  0.22601  0.86390  0.48130  1.0000
  C   C122      1.0  0.77399  0.86390  0.01870  1.0000
  C   C123      1.0  0.72601  0.36390  0.48130  1.0000
  C   C124      1.0  0.27399  0.36390  0.01870  1.0000
  C   C125      1.0  0.77399  0.13610  0.51870  1.0000
  C   C126      1.0  0.22601  0.13610  0.98130  1.0000
  C   C127      1.0  0.27399  0.63610  0.51870  1.0000
  C   C128      1.0  0.72601  0.63610  0.98130  1.0000
