data_image0
_chemical_formula_structural       Co2Fe2O24C12H12
_chemical_formula_sum              "Co2 Fe2 O24 C12 H12"
_cell_length_a       8.2114
_cell_length_b       8.2114
_cell_length_c       13.6951
_cell_angle_alpha    90
_cell_angle_beta     90
_cell_angle_gamma    120

_space_group_name_H-M_alt    "P 1"
_space_group_IT_number       1

loop_
  _space_group_symop_operation_xyz
  'x, y, z'

loop_
  _atom_site_type_symbol
  _atom_site_label
  _atom_site_symmetry_multiplicity
  _atom_site_fract_x
  _atom_site_fract_y
  _atom_site_fract_z
  _atom_site_occupancy
  Co  Co1       1.0  0.66670  0.33330  0.25000  1.0000
  Co  Co2       1.0  0.33330  0.66670  0.75000  1.0000
  Fe  Fe1       1.0  0.00000  0.00000  0.00000  1.0000
  Fe  Fe2       1.0  0.00000  0.00000  0.50000  1.0000
  O   O1        1.0  0.88324  0.34320  0.16820  1.0000
  O   O2        1.0  0.65680  0.54004  0.16820  1.0000
  O   O3        1.0  0.45996  0.11676  0.16820  1.0000
  O   O4        1.0  0.65680  0.11676  0.33180  1.0000
  O   O5        1.0  0.45996  0.34320  0.33180  1.0000
  O   O6        1.0  0.88324  0.54004  0.33180  1.0000
  O   O7        1.0  0.11676  0.65680  0.83180  1.0000
  O   O8        1.0  0.34320  0.45996  0.83180  1.0000
  O   O9        1.0  0.54004  0.88324  0.83180  1.0000
  O   O10       1.0  0.34320  0.88324  0.66820  1.0000
  O   O11       1.0  0.54004  0.65680  0.66820  1.0000
  O   O12       1.0  0.11676  0.45996  0.66820  1.0000
  O   O13       1.0  0.01287  0.20890  0.08287  1.0000
  O   O14       1.0  0.79110  0.80397  0.08287  1.0000
  O   O15       1.0  0.19603  0.98713  0.08287  1.0000
  O   O16       1.0  0.79110  0.98713  0.41713  1.0000
  O   O17       1.0  0.19603  0.20890  0.41713  1.0000
  O   O18       1.0  0.01287  0.80397  0.41713  1.0000
  O   O19       1.0  0.98713  0.79110  0.91713  1.0000
  O   O20       1.0  0.20890  0.19603  0.91713  1.0000
  O   O21       1.0  0.80397  0.01287  0.91713  1.0000
  O   O22       1.0  0.20890  0.01287  0.58287  1.0000
  O   O23       1.0  0.80397  0.79110  0.58287  1.0000
  O   O24       1.0  0.98713  0.19603  0.58287  1.0000
  C   C1        1.0  0.87360  0.20970  0.12094  1.0000
  C   C2        1.0  0.79030  0.66390  0.12094  1.0000
  C   C3        1.0  0.33610  0.12640  0.12094  1.0000
  C   C4        1.0  0.79030  0.12640  0.37906  1.0000
  C   C5        1.0  0.33610  0.20970  0.37906  1.0000
  C   C6        1.0  0.87360  0.66390  0.37906  1.0000
  C   C7        1.0  0.12640  0.79030  0.87906  1.0000
  C   C8        1.0  0.20970  0.33610  0.87906  1.0000
  C   C9        1.0  0.66390  0.87360  0.87906  1.0000
  C   C10       1.0  0.20970  0.87360  0.62094  1.0000
  C   C11       1.0  0.66390  0.79030  0.62094  1.0000
  C   C12       1.0  0.12640  0.33610  0.62094  1.0000
  H   H1        1.0  0.75590  0.10320  0.11310  1.0000
  H   H2        1.0  0.89680  0.65270  0.11310  1.0000
  H   H3        1.0  0.34730  0.24410  0.11310  1.0000
  H   H4        1.0  0.89680  0.24410  0.38690  1.0000
  H   H5        1.0  0.34730  0.10320  0.38690  1.0000
  H   H6        1.0  0.75590  0.65270  0.38690  1.0000
  H   H7        1.0  0.24410  0.89680  0.88690  1.0000
  H   H8        1.0  0.10320  0.34730  0.88690  1.0000
  H   H9        1.0  0.65270  0.75590  0.88690  1.0000
  H   H10       1.0  0.10320  0.75590  0.61310  1.0000
  H   H11       1.0  0.65270  0.89680  0.61310  1.0000
  H   H12       1.0  0.24410  0.34730  0.61310  1.0000
