data_image0
_chemical_formula_structural       Mn2Fe2O24C12H12
_chemical_formula_sum              "Mn2 Fe2 O24 C12 H12"
_cell_length_a       8.2674
_cell_length_b       8.2674
_cell_length_c       13.8761
_cell_angle_alpha    90
_cell_angle_beta     90
_cell_angle_gamma    120

_space_group_name_H-M_alt    "P 1"
_space_group_IT_number       1

loop_
  _space_group_symop_operation_xyz
  'x, y, z'

loop_
  _atom_site_type_symbol
  _atom_site_label
  _atom_site_symmetry_multiplicity
  _atom_site_fract_x
  _atom_site_fract_y
  _atom_site_fract_z
  _atom_site_occupancy
  Mn  Mn1       1.0  0.66670  0.33330  0.25000  1.0000
  Mn  Mn2       1.0  0.33330  0.66670  0.75000  1.0000
  Fe  Fe1       1.0  0.00000  0.00000  0.00000  1.0000
  Fe  Fe2       1.0  0.00000  0.00000  0.50000  1.0000
  O   O1        1.0  0.88900  0.34210  0.16637  1.0000
  O   O2        1.0  0.65790  0.54690  0.16637  1.0000
  O   O3        1.0  0.45310  0.11100  0.16637  1.0000
  O   O4        1.0  0.65790  0.11100  0.33363  1.0000
  O   O5        1.0  0.45310  0.34210  0.33363  1.0000
  O   O6        1.0  0.88900  0.54690  0.33363  1.0000
  O   O7        1.0  0.11100  0.65790  0.83363  1.0000
  O   O8        1.0  0.34210  0.45310  0.83363  1.0000
  O   O9        1.0  0.54690  0.88900  0.83363  1.0000
  O   O10       1.0  0.34210  0.88900  0.66637  1.0000
  O   O11       1.0  0.54690  0.65790  0.66637  1.0000
  O   O12       1.0  0.11100  0.45310  0.66637  1.0000
  O   O13       1.0  0.01530  0.20840  0.08210  1.0000
  O   O14       1.0  0.79160  0.80690  0.08210  1.0000
  O   O15       1.0  0.19310  0.98470  0.08210  1.0000
  O   O16       1.0  0.79160  0.98470  0.41790  1.0000
  O   O17       1.0  0.19310  0.20840  0.41790  1.0000
  O   O18       1.0  0.01530  0.80690  0.41790  1.0000
  O   O19       1.0  0.98470  0.79160  0.91790  1.0000
  O   O20       1.0  0.20840  0.19310  0.91790  1.0000
  O   O21       1.0  0.80690  0.01530  0.91790  1.0000
  O   O22       1.0  0.20840  0.01530  0.58210  1.0000
  O   O23       1.0  0.80690  0.79160  0.58210  1.0000
  O   O24       1.0  0.98470  0.19310  0.58210  1.0000
  C   C1        1.0  0.87900  0.21130  0.11901  1.0000
  C   C2        1.0  0.78870  0.66770  0.11901  1.0000
  C   C3        1.0  0.33230  0.12100  0.11901  1.0000
  C   C4        1.0  0.78870  0.12100  0.38099  1.0000
  C   C5        1.0  0.33230  0.21130  0.38099  1.0000
  C   C6        1.0  0.87900  0.66770  0.38099  1.0000
  C   C7        1.0  0.12100  0.78870  0.88099  1.0000
  C   C8        1.0  0.21130  0.33230  0.88099  1.0000
  C   C9        1.0  0.66770  0.87900  0.88099  1.0000
  C   C10       1.0  0.21130  0.87900  0.61901  1.0000
  C   C11       1.0  0.66770  0.78870  0.61901  1.0000
  C   C12       1.0  0.12100  0.33230  0.61901  1.0000
  H   H1        1.0  0.76140  0.10710  0.11010  1.0000
  H   H2        1.0  0.89290  0.65430  0.11010  1.0000
  H   H3        1.0  0.34570  0.23860  0.11010  1.0000
  H   H4        1.0  0.89290  0.23860  0.38990  1.0000
  H   H5        1.0  0.34570  0.10710  0.38990  1.0000
  H   H6        1.0  0.76140  0.65430  0.38990  1.0000
  H   H7        1.0  0.23860  0.89290  0.88990  1.0000
  H   H8        1.0  0.10710  0.34570  0.88990  1.0000
  H   H9        1.0  0.65430  0.76140  0.88990  1.0000
  H   H10       1.0  0.10710  0.76140  0.61010  1.0000
  H   H11       1.0  0.65430  0.89290  0.61010  1.0000
  H   H12       1.0  0.23860  0.34570  0.61010  1.0000
