data_image0
_chemical_formula_structural       C4H4C8H4C8H4C20H4C16H4C8H4C8O48Zn4
_chemical_formula_sum              "C72 H24 O48 Zn4"
_cell_length_a       14.7613
_cell_length_b       14.3108
_cell_length_c       26.8436
_cell_angle_alpha    90
_cell_angle_beta     99.652
_cell_angle_gamma    90

_space_group_name_H-M_alt    "P 1"
_space_group_IT_number       1

loop_
  _space_group_symop_operation_xyz
  'x, y, z'

loop_
  _atom_site_type_symbol
  _atom_site_label
  _atom_site_symmetry_multiplicity
  _atom_site_fract_x
  _atom_site_fract_y
  _atom_site_fract_z
  _atom_site_occupancy
  C   C1        1.0  0.77520  0.70800  0.14802  1.0000
  C   C2        1.0  0.72480  0.20800  0.35198  1.0000
  C   C3        1.0  0.22480  0.29200  0.85198  1.0000
  C   C4        1.0  0.27520  0.79200  0.64802  1.0000
  H   H1        1.0  0.81560  0.67820  0.13010  1.0000
  H   H2        1.0  0.68440  0.17820  0.36990  1.0000
  H   H3        1.0  0.18440  0.32180  0.86990  1.0000
  H   H4        1.0  0.31560  0.82180  0.63010  1.0000
  C   C5        1.0  0.78160  0.69220  0.19925  1.0000
  C   C6        1.0  0.71840  0.19220  0.30075  1.0000
  C   C7        1.0  0.21840  0.30780  0.80075  1.0000
  C   C8        1.0  0.28160  0.80780  0.69925  1.0000
  C   C9        1.0  0.72130  0.73800  0.22514  1.0000
  C   C10       1.0  0.77870  0.23800  0.27486  1.0000
  C   C11       1.0  0.27870  0.26200  0.77486  1.0000
  C   C12       1.0  0.22130  0.76200  0.72514  1.0000
  H   H5        1.0  0.72320  0.72550  0.25930  1.0000
  H   H6        1.0  0.77680  0.22550  0.24070  1.0000
  H   H7        1.0  0.27680  0.27450  0.74070  1.0000
  H   H8        1.0  0.22320  0.77450  0.75930  1.0000
  C   C13       1.0  0.65790  0.80250  0.20129  1.0000
  C   C14       1.0  0.84210  0.30250  0.29871  1.0000
  C   C15       1.0  0.34210  0.19750  0.79871  1.0000
  C   C16       1.0  0.15790  0.69750  0.70129  1.0000
  C   C17       1.0  0.65130  0.81670  0.14953  1.0000
  C   C18       1.0  0.84870  0.31670  0.35047  1.0000
  C   C19       1.0  0.34870  0.18330  0.85047  1.0000
  C   C20       1.0  0.15130  0.68330  0.64953  1.0000
  H   H9        1.0  0.60850  0.85880  0.13300  1.0000
  H   H10       1.0  0.89150  0.35880  0.36700  1.0000
  H   H11       1.0  0.39150  0.14120  0.86700  1.0000
  H   H12       1.0  0.10850  0.64120  0.63300  1.0000
  C   C21       1.0  0.70840  0.76830  0.12278  1.0000
  C   C22       1.0  0.79160  0.26830  0.37722  1.0000
  C   C23       1.0  0.29160  0.23170  0.87722  1.0000
  C   C24       1.0  0.20840  0.73170  0.62278  1.0000
  C   C25       1.0  0.12270  0.65800  0.27086  1.0000
  C   C26       1.0  0.37730  0.15800  0.22914  1.0000
  C   C27       1.0  0.87730  0.34200  0.72914  1.0000
  C   C28       1.0  0.62270  0.84200  0.77086  1.0000
  C   C29       1.0  0.35750  0.90770  0.26950  1.0000
  C   C30       1.0  0.14250  0.40770  0.23050  1.0000
  C   C31       1.0  0.64250  0.09230  0.73050  1.0000
  C   C32       1.0  0.85750  0.59230  0.76950  1.0000
  C   C33       1.0  0.29670  0.85260  0.29841  1.0000
  C   C34       1.0  0.20330  0.35260  0.20159  1.0000
  C   C35       1.0  0.70330  0.14740  0.70159  1.0000
  C   C36       1.0  0.79670  0.64740  0.79841  1.0000
  C   C37       1.0  0.18600  0.74520  0.34980  1.0000
  C   C38       1.0  0.31400  0.24520  0.15020  1.0000
  C   C39       1.0  0.81400  0.25480  0.65020  1.0000
  C   C40       1.0  0.68600  0.75480  0.84980  1.0000
  H   H13       1.0  0.14790  0.71040  0.36700  1.0000
  H   H14       1.0  0.35210  0.21040  0.13300  1.0000
  H   H15       1.0  0.85210  0.28960  0.63300  1.0000
  H   H16       1.0  0.64790  0.78960  0.86700  1.0000
  C   C41       1.0  0.18160  0.73270  0.29840  1.0000
  C   C42       1.0  0.31840  0.23270  0.20160  1.0000
  C   C43       1.0  0.81840  0.26730  0.70160  1.0000
  C   C44       1.0  0.68160  0.76730  0.79840  1.0000
  C   C45       1.0  0.60410  0.86190  0.23223  1.0000
  C   C46       1.0  0.89590  0.36190  0.26777  1.0000
  C   C47       1.0  0.39590  0.13810  0.76777  1.0000
  C   C48       1.0  0.10410  0.63810  0.73223  1.0000
  C   C49       1.0  0.70050  0.78330  0.06714  1.0000
  C   C50       1.0  0.79950  0.28330  0.43286  1.0000
  C   C51       1.0  0.29950  0.21670  0.93286  1.0000
  C   C52       1.0  0.20050  0.71670  0.56714  1.0000
  C   C53       1.0  0.30280  0.86250  0.35013  1.0000
  C   C54       1.0  0.19720  0.36250  0.14987  1.0000
  C   C55       1.0  0.69720  0.13750  0.64987  1.0000
  C   C56       1.0  0.80280  0.63750  0.85013  1.0000
  H   H17       1.0  0.34440  0.90480  0.36760  1.0000
  H   H18       1.0  0.15560  0.40480  0.13240  1.0000
  H   H19       1.0  0.65560  0.09520  0.63240  1.0000
  H   H20       1.0  0.84440  0.59520  0.86760  1.0000
  C   C57       1.0  0.24690  0.80930  0.37612  1.0000
  C   C58       1.0  0.25310  0.30930  0.12388  1.0000
  C   C59       1.0  0.75310  0.19070  0.62388  1.0000
  C   C60       1.0  0.74690  0.69070  0.87612  1.0000
  C   C61       1.0  0.23600  0.78830  0.27303  1.0000
  C   C62       1.0  0.26400  0.28830  0.22697  1.0000
  C   C63       1.0  0.76400  0.21170  0.72697  1.0000
  C   C64       1.0  0.73600  0.71170  0.77303  1.0000
  H   H21       1.0  0.23160  0.78210  0.23820  1.0000
  H   H22       1.0  0.26840  0.28210  0.26180  1.0000
  H   H23       1.0  0.76840  0.21790  0.76180  1.0000
  H   H24       1.0  0.73160  0.71790  0.73820  1.0000
  C   C65       1.0  0.85450  0.62840  0.22712  1.0000
  C   C66       1.0  0.64550  0.12840  0.27288  1.0000
  C   C67       1.0  0.14550  0.37160  0.77288  1.0000
  C   C68       1.0  0.35450  0.87160  0.72712  1.0000
  C   C69       1.0  0.25660  0.81660  0.43186  1.0000
  C   C70       1.0  0.24340  0.31660  0.06814  1.0000
  C   C71       1.0  0.74340  0.18340  0.56814  1.0000
  C   C72       1.0  0.75660  0.68340  0.93186  1.0000
  O   O1        1.0  0.07260  0.60980  0.29542  1.0000
  O   O2        1.0  0.42740  0.10980  0.20458  1.0000
  O   O3        1.0  0.92740  0.39020  0.70458  1.0000
  O   O4        1.0  0.57260  0.89020  0.79542  1.0000
  O   O5        1.0  0.22200  0.75030  0.45397  1.0000
  O   O6        1.0  0.27800  0.25030  0.04603  1.0000
  O   O7        1.0  0.77800  0.24970  0.54603  1.0000
  O   O8        1.0  0.72200  0.74970  0.95397  1.0000
  O   O9        1.0  0.29740  0.88490  0.45406  1.0000
  O   O10       1.0  0.20260  0.38490  0.04594  1.0000
  O   O11       1.0  0.70260  0.11510  0.54594  1.0000
  O   O12       1.0  0.79740  0.61510  0.95406  1.0000
  O   O13       1.0  0.12750  0.64140  0.22571  1.0000
  O   O14       1.0  0.37250  0.14140  0.27429  1.0000
  O   O15       1.0  0.87250  0.35860  0.77429  1.0000
  O   O16       1.0  0.62750  0.85860  0.72571  1.0000
  O   O17       1.0  0.90660  0.58490  0.20200  1.0000
  O   O18       1.0  0.59340  0.08490  0.29800  1.0000
  O   O19       1.0  0.09340  0.41510  0.79800  1.0000
  O   O20       1.0  0.40660  0.91510  0.70200  1.0000
  O   O21       1.0  0.43040  0.94240  0.29574  1.0000
  O   O22       1.0  0.06960  0.44240  0.20426  1.0000
  O   O23       1.0  0.56960  0.05760  0.70426  1.0000
  O   O24       1.0  0.93040  0.55760  0.79574  1.0000
  O   O25       1.0  0.33530  0.91740  0.22376  1.0000
  O   O26       1.0  0.16470  0.41740  0.27624  1.0000
  O   O27       1.0  0.66470  0.08260  0.77624  1.0000
  O   O28       1.0  0.83530  0.58260  0.72376  1.0000
  O   O29       1.0  0.54790  0.92020  0.20849  1.0000
  O   O30       1.0  0.95210  0.42020  0.29151  1.0000
  O   O31       1.0  0.45210  0.07980  0.79151  1.0000
  O   O32       1.0  0.04790  0.57980  0.70849  1.0000
  O   O33       1.0  0.61990  0.85350  0.27935  1.0000
  O   O34       1.0  0.88010  0.35350  0.22065  1.0000
  O   O35       1.0  0.38010  0.14650  0.72065  1.0000
  O   O36       1.0  0.11990  0.64650  0.77935  1.0000
  O   O37       1.0  0.86120  0.62260  0.27442  1.0000
  O   O38       1.0  0.63880  0.12260  0.22558  1.0000
  O   O39       1.0  0.13880  0.37740  0.72558  1.0000
  O   O40       1.0  0.36120  0.87740  0.77442  1.0000
  O   O41       1.0  0.75600  0.73610  0.04572  1.0000
  O   O42       1.0  0.74400  0.23610  0.45428  1.0000
  O   O43       1.0  0.24400  0.26390  0.95428  1.0000
  O   O44       1.0  0.25600  0.76390  0.54572  1.0000
  O   O45       1.0  0.64400  0.83730  0.04473  1.0000
  O   O46       1.0  0.85600  0.33730  0.45527  1.0000
  O   O47       1.0  0.35600  0.16270  0.95527  1.0000
  O   O48       1.0  0.14400  0.66270  0.54473  1.0000
  Zn  Zn1       1.0  0.49654  0.01297  0.24969  1.0000
  Zn  Zn2       1.0  0.00346  0.51297  0.25031  1.0000
  Zn  Zn3       1.0  0.50346  0.98703  0.75031  1.0000
  Zn  Zn4       1.0  0.99654  0.48703  0.74969  1.0000
