data_image0
_chemical_formula_structural       Cu2S2O14C8H2C2H2C4H6
_chemical_formula_sum              "Cu2 S2 O14 C14 H10"
_cell_length_a       7.7274
_cell_length_b       8.0856
_cell_length_c       12.1577
_cell_angle_alpha    84.323
_cell_angle_beta     77.986
_cell_angle_gamma    69.051

_space_group_name_H-M_alt    "P 1"
_space_group_IT_number       1

loop_
  _space_group_symop_operation_xyz
  'x, y, z'

loop_
  _atom_site_type_symbol
  _atom_site_label
  _atom_site_symmetry_multiplicity
  _atom_site_fract_x
  _atom_site_fract_y
  _atom_site_fract_z
  _atom_site_occupancy
  Cu  Cu1       1.0  0.68114  0.98433  0.53365  1.0000
  Cu  Cu2       1.0  0.31886  0.01567  0.46635  1.0000
  S   S1        1.0  0.37014  0.86273  0.75326  1.0000
  S   S2        1.0  0.62986  0.13727  0.24674  1.0000
  O   O1        1.0  0.43750  0.16230  0.52290  1.0000
  O   O2        1.0  0.56250  0.83770  0.47710  1.0000
  O   O3        1.0  0.19190  0.40470  0.56920  1.0000
  O   O4        1.0  0.80810  0.59530  0.43080  1.0000
  O   O5        1.0  0.77220  0.14350  0.58471  1.0000
  O   O6        1.0  0.22780  0.85650  0.41529  1.0000
  O   O7        1.0  0.51700  0.94120  0.72505  1.0000
  O   O8        1.0  0.48300  0.05880  0.27495  1.0000
  O   O9        1.0  0.21430  0.94390  0.69380  1.0000
  O   O10       1.0  0.78570  0.05610  0.30620  1.0000
  O   O11       1.0  0.30650  0.85640  0.87512  1.0000
  O   O12       1.0  0.69350  0.14360  0.12488  1.0000
  O   O13       1.0  0.91930  0.79630  0.54179  1.0000
  O   O14       1.0  0.08070  0.20370  0.45821  1.0000
  C   C1        1.0  0.35800  0.31690  0.56920  1.0000
  C   C2        1.0  0.64200  0.68310  0.43080  1.0000
  C   C3        1.0  0.47450  0.38740  0.62200  1.0000
  C   C4        1.0  0.52550  0.61260  0.37800  1.0000
  C   C5        1.0  0.66550  0.29830  0.62890  1.0000
  C   C6        1.0  0.33450  0.70170  0.37110  1.0000
  C   C7        1.0  0.75460  0.38030  0.68440  1.0000
  C   C8        1.0  0.24540  0.61970  0.31560  1.0000
  H   H1        1.0  0.87730  0.31880  0.69500  1.0000
  H   H2        1.0  0.12270  0.68120  0.30500  1.0000
  C   C9        1.0  0.66420  0.54920  0.72320  1.0000
  C   C10       1.0  0.33580  0.45080  0.27680  1.0000
  H   H3        1.0  0.72690  0.60220  0.75780  1.0000
  H   H4        1.0  0.27310  0.39780  0.24220  1.0000
  C   C11       1.0  0.47880  0.64100  0.71070  1.0000
  C   C12       1.0  0.52120  0.35900  0.28930  1.0000
  C   C13       1.0  0.38510  0.56080  0.66220  1.0000
  C   C14       1.0  0.61490  0.43920  0.33780  1.0000
  H   H5        1.0  0.26020  0.62210  0.65580  1.0000
  H   H6        1.0  0.73980  0.37790  0.34420  1.0000
  H   H7        1.0  0.01000  0.82400  0.50300  1.0000
  H   H8        1.0  0.99000  0.17600  0.49700  1.0000
  H   H9        1.0  0.91000  0.70900  0.51400  1.0000
  H   H10       1.0  0.09000  0.29100  0.48600  1.0000
