data_image0
_chemical_formula_structural       Mn18O108C9H9C9H9C9H9C9H9C9H9C9H9
_chemical_formula_sum              "Mn18 O108 C54 H54"
_cell_length_a       14.2034
_cell_length_b       14.2034
_cell_length_c       23.1053
_cell_angle_alpha    90
_cell_angle_beta     90
_cell_angle_gamma    120

_space_group_name_H-M_alt    "P 1"
_space_group_IT_number       1

loop_
  _space_group_symop_operation_xyz
  'x, y, z'

loop_
  _atom_site_type_symbol
  _atom_site_label
  _atom_site_symmetry_multiplicity
  _atom_site_fract_x
  _atom_site_fract_y
  _atom_site_fract_z
  _atom_site_occupancy
  Mn  Mn1       1.0  0.65853  0.66889  0.39345  1.0000
  Mn  Mn2       1.0  0.33111  0.98964  0.39345  1.0000
  Mn  Mn3       1.0  0.01036  0.34147  0.39345  1.0000
  Mn  Mn4       1.0  0.32520  0.00222  0.72678  1.0000
  Mn  Mn5       1.0  0.99778  0.32297  0.72678  1.0000
  Mn  Mn6       1.0  0.67703  0.67480  0.72678  1.0000
  Mn  Mn7       1.0  0.99186  0.33556  0.06012  1.0000
  Mn  Mn8       1.0  0.66444  0.65631  0.06012  1.0000
  Mn  Mn9       1.0  0.34369  0.00814  0.06012  1.0000
  Mn  Mn10      1.0  0.33330  0.66670  0.56970  1.0000
  Mn  Mn11      1.0  0.99997  0.00003  0.90303  1.0000
  Mn  Mn12      1.0  0.66663  0.33337  0.23637  1.0000
  Mn  Mn13      1.0  0.00000  0.00000  0.55084  1.0000
  Mn  Mn14      1.0  0.66667  0.33333  0.88417  1.0000
  Mn  Mn15      1.0  0.33333  0.66667  0.21751  1.0000
  Mn  Mn16      1.0  0.66670  0.33330  0.56467  1.0000
  Mn  Mn17      1.0  0.33337  0.66663  0.89800  1.0000
  Mn  Mn18      1.0  0.00003  0.99997  0.23134  1.0000
  O   O1        1.0  0.50630  0.59850  0.44263  1.0000
  O   O2        1.0  0.40150  0.90780  0.44263  1.0000
  O   O3        1.0  0.09220  0.49370  0.44263  1.0000
  O   O4        1.0  0.17297  0.93183  0.77596  1.0000
  O   O5        1.0  0.06817  0.24113  0.77596  1.0000
  O   O6        1.0  0.75887  0.82703  0.77596  1.0000
  O   O7        1.0  0.83963  0.26517  0.10930  1.0000
  O   O8        1.0  0.73483  0.57447  0.10930  1.0000
  O   O9        1.0  0.42553  0.16037  0.10930  1.0000
  O   O10       1.0  0.39980  0.59170  0.51389  1.0000
  O   O11       1.0  0.40830  0.80810  0.51389  1.0000
  O   O12       1.0  0.19190  0.60020  0.51389  1.0000
  O   O13       1.0  0.06647  0.92503  0.84722  1.0000
  O   O14       1.0  0.07497  0.14143  0.84722  1.0000
  O   O15       1.0  0.85857  0.93353  0.84722  1.0000
  O   O16       1.0  0.73313  0.25837  0.18056  1.0000
  O   O17       1.0  0.74163  0.47477  0.18056  1.0000
  O   O18       1.0  0.52523  0.26687  0.18056  1.0000
  O   O19       1.0  0.72360  0.81950  0.44233  1.0000
  O   O20       1.0  0.18050  0.90410  0.44233  1.0000
  O   O21       1.0  0.09590  0.27640  0.44233  1.0000
  O   O22       1.0  0.39027  0.15283  0.77566  1.0000
  O   O23       1.0  0.84717  0.23743  0.77566  1.0000
  O   O24       1.0  0.76257  0.60973  0.77566  1.0000
  O   O25       1.0  0.05693  0.48617  0.10900  1.0000
  O   O26       1.0  0.51383  0.57077  0.10900  1.0000
  O   O27       1.0  0.42923  0.94307  0.10900  1.0000
  O   O28       1.0  0.85330  0.94480  0.49859  1.0000
  O   O29       1.0  0.05520  0.90850  0.49859  1.0000
  O   O30       1.0  0.09150  0.14670  0.49859  1.0000
  O   O31       1.0  0.51997  0.27813  0.83192  1.0000
  O   O32       1.0  0.72187  0.24183  0.83192  1.0000
  O   O33       1.0  0.75817  0.48003  0.83192  1.0000
  O   O34       1.0  0.18663  0.61147  0.16526  1.0000
  O   O35       1.0  0.38853  0.57517  0.16526  1.0000
  O   O36       1.0  0.42483  0.81337  0.16526  1.0000
  O   O37       1.0  0.72650  0.60460  0.45680  1.0000
  O   O38       1.0  0.39540  0.12190  0.45680  1.0000
  O   O39       1.0  0.87810  0.27350  0.45680  1.0000
  O   O40       1.0  0.39317  0.93793  0.79013  1.0000
  O   O41       1.0  0.06207  0.45523  0.79013  1.0000
  O   O42       1.0  0.54477  0.60683  0.79013  1.0000
  O   O43       1.0  0.05983  0.27127  0.12347  1.0000
  O   O44       1.0  0.72873  0.78857  0.12347  1.0000
  O   O45       1.0  0.21143  0.94017  0.12347  1.0000
  O   O46       1.0  0.73180  0.48140  0.51347  1.0000
  O   O47       1.0  0.51860  0.25040  0.51347  1.0000
  O   O48       1.0  0.74960  0.26820  0.51347  1.0000
  O   O49       1.0  0.39847  0.81473  0.84680  1.0000
  O   O50       1.0  0.18527  0.58373  0.84680  1.0000
  O   O51       1.0  0.41627  0.60153  0.84680  1.0000
  O   O52       1.0  0.06513  0.14807  0.18014  1.0000
  O   O53       1.0  0.85193  0.91707  0.18014  1.0000
  O   O54       1.0  0.08293  0.93487  0.18014  1.0000
  O   O55       1.0  0.80930  0.73110  0.34256  1.0000
  O   O56       1.0  0.26890  0.07820  0.34256  1.0000
  O   O57       1.0  0.92180  0.19070  0.34256  1.0000
  O   O58       1.0  0.47597  0.06443  0.67589  1.0000
  O   O59       1.0  0.93557  0.41153  0.67589  1.0000
  O   O60       1.0  0.58847  0.52403  0.67589  1.0000
  O   O61       1.0  0.14263  0.39777  0.00923  1.0000
  O   O62       1.0  0.60223  0.74487  0.00923  1.0000
  O   O63       1.0  0.25513  0.85737  0.00923  1.0000
  O   O64       1.0  0.93430  0.85270  0.28397  1.0000
  O   O65       1.0  0.14730  0.08160  0.28397  1.0000
  O   O66       1.0  0.91840  0.06570  0.28397  1.0000
  O   O67       1.0  0.60097  0.18603  0.61730  1.0000
  O   O68       1.0  0.81397  0.41493  0.61730  1.0000
  O   O69       1.0  0.58507  0.39903  0.61730  1.0000
  O   O70       1.0  0.26763  0.51937  0.95064  1.0000
  O   O71       1.0  0.48063  0.74827  0.95064  1.0000
  O   O72       1.0  0.25173  0.73237  0.95064  1.0000
  O   O73       1.0  0.57890  0.51670  0.34735  1.0000
  O   O74       1.0  0.48330  0.06220  0.34735  1.0000
  O   O75       1.0  0.93780  0.42110  0.34735  1.0000
  O   O76       1.0  0.24557  0.85003  0.68068  1.0000
  O   O77       1.0  0.14997  0.39553  0.68068  1.0000
  O   O78       1.0  0.60447  0.75443  0.68068  1.0000
  O   O79       1.0  0.91223  0.18337  0.01402  1.0000
  O   O80       1.0  0.81663  0.72887  0.01402  1.0000
  O   O81       1.0  0.27113  0.08777  0.01402  1.0000
  O   O82       1.0  0.57980  0.39300  0.28914  1.0000
  O   O83       1.0  0.60700  0.18680  0.28914  1.0000
  O   O84       1.0  0.81320  0.42020  0.28914  1.0000
  O   O85       1.0  0.24647  0.72633  0.62247  1.0000
  O   O86       1.0  0.27367  0.52013  0.62247  1.0000
  O   O87       1.0  0.47987  0.75353  0.62247  1.0000
  O   O88       1.0  0.91313  0.05967  0.95581  1.0000
  O   O89       1.0  0.94033  0.85347  0.95581  1.0000
  O   O90       1.0  0.14653  0.08687  0.95581  1.0000
  O   O91       1.0  0.59760  0.74700  0.33433  1.0000
  O   O92       1.0  0.25300  0.85060  0.33433  1.0000
  O   O93       1.0  0.14940  0.40240  0.33433  1.0000
  O   O94       1.0  0.26427  0.08033  0.66766  1.0000
  O   O95       1.0  0.91967  0.18393  0.66766  1.0000
  O   O96       1.0  0.81607  0.73573  0.66766  1.0000
  O   O97       1.0  0.93093  0.41367  0.00100  1.0000
  O   O98       1.0  0.58633  0.51727  0.00100  1.0000
  O   O99       1.0  0.48273  0.06907  0.00100  1.0000
  O   O100      1.0  0.48190  0.74030  0.26779  1.0000
  O   O101      1.0  0.25970  0.74160  0.26779  1.0000
  O   O102      1.0  0.25840  0.51810  0.26779  1.0000
  O   O103      1.0  0.14857  0.07363  0.60112  1.0000
  O   O104      1.0  0.92637  0.07493  0.60112  1.0000
  O   O105      1.0  0.92507  0.85143  0.60112  1.0000
  O   O106      1.0  0.81523  0.40697  0.93446  1.0000
  O   O107      1.0  0.59303  0.40827  0.93446  1.0000
  O   O108      1.0  0.59173  0.18477  0.93446  1.0000
  C   C1        1.0  0.48510  0.63790  0.48550  1.0000
  C   C2        1.0  0.36210  0.84720  0.48550  1.0000
  C   C3        1.0  0.15280  0.51490  0.48550  1.0000
  C   C4        1.0  0.15177  0.97123  0.81883  1.0000
  C   C5        1.0  0.02877  0.18053  0.81883  1.0000
  C   C6        1.0  0.81947  0.84823  0.81883  1.0000
  C   C7        1.0  0.81843  0.30457  0.15217  1.0000
  C   C8        1.0  0.69543  0.51387  0.15217  1.0000
  C   C9        1.0  0.48613  0.18157  0.15217  1.0000
  H   H1        1.0  0.53740  0.70740  0.49710  1.0000
  H   H2        1.0  0.29260  0.83000  0.49710  1.0000
  H   H3        1.0  0.17000  0.46260  0.49710  1.0000
  H   H4        1.0  0.20407  0.04073  0.83043  1.0000
  H   H5        1.0  0.95927  0.16333  0.83043  1.0000
  H   H6        1.0  0.83667  0.79593  0.83043  1.0000
  H   H7        1.0  0.87073  0.37407  0.16377  1.0000
  H   H8        1.0  0.62593  0.49667  0.16377  1.0000
  H   H9        1.0  0.50333  0.12927  0.16377  1.0000
  C   C10       1.0  0.81220  0.86010  0.46980  1.0000
  C   C11       1.0  0.13990  0.95210  0.46980  1.0000
  C   C12       1.0  0.04790  0.18780  0.46980  1.0000
  C   C13       1.0  0.47887  0.19343  0.80313  1.0000
  C   C14       1.0  0.80657  0.28543  0.80313  1.0000
  C   C15       1.0  0.71457  0.52113  0.80313  1.0000
  C   C16       1.0  0.14553  0.52677  0.13647  1.0000
  C   C17       1.0  0.47323  0.61877  0.13647  1.0000
  C   C18       1.0  0.38123  0.85447  0.13647  1.0000
  H   H10       1.0  0.85030  0.82260  0.46830  1.0000
  H   H11       1.0  0.17740  0.02770  0.46830  1.0000
  H   H12       1.0  0.97230  0.14970  0.46830  1.0000
  H   H13       1.0  0.51697  0.15593  0.80163  1.0000
  H   H14       1.0  0.84407  0.36103  0.80163  1.0000
  H   H15       1.0  0.63897  0.48303  0.80163  1.0000
  H   H16       1.0  0.18363  0.48927  0.13497  1.0000
  H   H17       1.0  0.51073  0.69437  0.13497  1.0000
  H   H18       1.0  0.30563  0.81637  0.13497  1.0000
  C   C19       1.0  0.68730  0.51290  0.47760  1.0000
  C   C20       1.0  0.48710  0.17440  0.47760  1.0000
  C   C21       1.0  0.82560  0.31270  0.47760  1.0000
  C   C22       1.0  0.35397  0.84623  0.81093  1.0000
  C   C23       1.0  0.15377  0.50773  0.81093  1.0000
  C   C24       1.0  0.49227  0.64603  0.81093  1.0000
  C   C25       1.0  0.02063  0.17957  0.14427  1.0000
  C   C26       1.0  0.82043  0.84107  0.14427  1.0000
  C   C27       1.0  0.15893  0.97937  0.14427  1.0000
  H   H19       1.0  0.61770  0.46190  0.46550  1.0000
  H   H20       1.0  0.53810  0.15580  0.46550  1.0000
  H   H21       1.0  0.84420  0.38230  0.46550  1.0000
  H   H22       1.0  0.28437  0.79523  0.79883  1.0000
  H   H23       1.0  0.20477  0.48913  0.79883  1.0000
  H   H24       1.0  0.51087  0.71563  0.79883  1.0000
  H   H25       1.0  0.95103  0.12857  0.13217  1.0000
  H   H26       1.0  0.87143  0.82247  0.13217  1.0000
  H   H27       1.0  0.17753  0.04897  0.13217  1.0000
  C   C28       1.0  0.85260  0.81870  0.31510  1.0000
  C   C29       1.0  0.18130  0.03390  0.31510  1.0000
  C   C30       1.0  0.96610  0.14740  0.31510  1.0000
  C   C31       1.0  0.51927  0.15203  0.64843  1.0000
  C   C32       1.0  0.84797  0.36723  0.64843  1.0000
  C   C33       1.0  0.63277  0.48073  0.64843  1.0000
  C   C34       1.0  0.18593  0.48537  0.98177  1.0000
  C   C35       1.0  0.51463  0.70057  0.98177  1.0000
  C   C36       1.0  0.29943  0.81407  0.98177  1.0000
  H   H28       1.0  0.82080  0.86210  0.31830  1.0000
  H   H29       1.0  0.13790  0.95870  0.31830  1.0000
  H   H30       1.0  0.04130  0.17920  0.31830  1.0000
  H   H31       1.0  0.48747  0.19543  0.65163  1.0000
  H   H32       1.0  0.80457  0.29203  0.65163  1.0000
  H   H33       1.0  0.70797  0.51253  0.65163  1.0000
  H   H34       1.0  0.15413  0.52877  0.98497  1.0000
  H   H35       1.0  0.47123  0.62537  0.98497  1.0000
  H   H36       1.0  0.37463  0.84587  0.98497  1.0000
  C   C37       1.0  0.62280  0.48180  0.31440  1.0000
  C   C38       1.0  0.51820  0.14100  0.31440  1.0000
  C   C39       1.0  0.85900  0.37720  0.31440  1.0000
  C   C40       1.0  0.28947  0.81513  0.64773  1.0000
  C   C41       1.0  0.18487  0.47433  0.64773  1.0000
  C   C42       1.0  0.52567  0.71053  0.64773  1.0000
  C   C43       1.0  0.95613  0.14847  0.98107  1.0000
  C   C44       1.0  0.85153  0.80767  0.98107  1.0000
  C   C45       1.0  0.19233  0.04387  0.98107  1.0000
  H   H37       1.0  0.69670  0.52740  0.30770  1.0000
  H   H38       1.0  0.47260  0.16930  0.30770  1.0000
  H   H39       1.0  0.83070  0.30330  0.30770  1.0000
  H   H40       1.0  0.36337  0.86073  0.64103  1.0000
  H   H41       1.0  0.13927  0.50263  0.64103  1.0000
  H   H42       1.0  0.49737  0.63663  0.64103  1.0000
  H   H43       1.0  0.03003  0.19407  0.97437  1.0000
  H   H44       1.0  0.80593  0.83597  0.97437  1.0000
  H   H45       1.0  0.16403  0.96997  0.97437  1.0000
  C   C46       1.0  0.51280  0.69970  0.30550  1.0000
  C   C47       1.0  0.30030  0.81310  0.30550  1.0000
  C   C48       1.0  0.18690  0.48720  0.30550  1.0000
  C   C49       1.0  0.17947  0.03303  0.63883  1.0000
  C   C50       1.0  0.96697  0.14643  0.63883  1.0000
  C   C51       1.0  0.85357  0.82053  0.63883  1.0000
  C   C52       1.0  0.84613  0.36637  0.97217  1.0000
  C   C53       1.0  0.63363  0.47977  0.97217  1.0000
  C   C54       1.0  0.52023  0.15387  0.97217  1.0000
  H   H46       1.0  0.46760  0.62610  0.31300  1.0000
  H   H47       1.0  0.37390  0.84150  0.31300  1.0000
  H   H48       1.0  0.15850  0.53240  0.31300  1.0000
  H   H49       1.0  0.13427  0.95943  0.64633  1.0000
  H   H50       1.0  0.04057  0.17483  0.64633  1.0000
  H   H51       1.0  0.82517  0.86573  0.64633  1.0000
  H   H52       1.0  0.80093  0.29277  0.97967  1.0000
  H   H53       1.0  0.70723  0.50817  0.97967  1.0000
  H   H54       1.0  0.49183  0.19907  0.97967  1.0000
