data_image0
_chemical_formula_structural       Co6O36C3H3C3H3C3H3C3H3C3H3C3H3
_chemical_formula_sum              "Co6 O36 C18 H18"
_cell_length_a       10.9975
_cell_length_b       10.9975
_cell_length_c       10.9975
_cell_angle_alpha    78.85
_cell_angle_beta     78.85
_cell_angle_gamma    78.85

_space_group_name_H-M_alt    "P 1"
_space_group_IT_number       1

loop_
  _space_group_symop_operation_xyz
  'x, y, z'

loop_
  _atom_site_type_symbol
  _atom_site_label
  _atom_site_symmetry_multiplicity
  _atom_site_fract_x
  _atom_site_fract_y
  _atom_site_fract_z
  _atom_site_occupancy
  Co  Co1       1.0  0.27160  0.92640  0.60000  1.0000
  Co  Co2       1.0  0.60000  0.27160  0.92640  1.0000
  Co  Co3       1.0  0.92640  0.60000  0.27160  1.0000
  Co  Co4       1.0  0.42580  0.42580  0.42580  1.0000
  Co  Co5       1.0  0.77200  0.77200  0.77200  1.0000
  Co  Co6       1.0  0.09840  0.09840  0.09840  1.0000
  O   O1        1.0  0.36380  0.80280  0.47420  1.0000
  O   O2        1.0  0.47420  0.36380  0.80280  1.0000
  O   O3        1.0  0.80280  0.47420  0.36380  1.0000
  O   O4        1.0  0.40880  0.62090  0.40490  1.0000
  O   O5        1.0  0.40490  0.40880  0.62090  1.0000
  O   O6        1.0  0.62090  0.40490  0.40880  1.0000
  O   O7        1.0  0.15500  0.79900  0.69730  1.0000
  O   O8        1.0  0.69730  0.15500  0.79900  1.0000
  O   O9        1.0  0.79900  0.69730  0.15500  1.0000
  O   O10       1.0  0.96780  0.74070  0.76350  1.0000
  O   O11       1.0  0.76350  0.96780  0.74070  1.0000
  O   O12       1.0  0.74070  0.76350  0.96780  1.0000
  O   O13       1.0  0.14200  0.00920  0.47940  1.0000
  O   O14       1.0  0.47940  0.14200  0.00920  1.0000
  O   O15       1.0  0.00920  0.47940  0.14200  1.0000
  O   O16       1.0  0.07870  0.07400  0.29400  1.0000
  O   O17       1.0  0.29400  0.07870  0.07400  1.0000
  O   O18       1.0  0.07400  0.29400  0.07870  1.0000
  O   O19       1.0  0.18280  0.05970  0.71740  1.0000
  O   O20       1.0  0.71740  0.18280  0.05970  1.0000
  O   O21       1.0  0.05970  0.71740  0.18280  1.0000
  O   O22       1.0  0.11390  0.12210  0.90010  1.0000
  O   O23       1.0  0.90010  0.11390  0.12210  1.0000
  O   O24       1.0  0.12210  0.90010  0.11390  1.0000
  O   O25       1.0  0.40000  0.04380  0.50050  1.0000
  O   O26       1.0  0.50050  0.40000  0.04380  1.0000
  O   O27       1.0  0.04380  0.50050  0.40000  1.0000
  O   O28       1.0  0.45870  0.23070  0.43640  1.0000
  O   O29       1.0  0.43640  0.45870  0.23070  1.0000
  O   O30       1.0  0.23070  0.43640  0.45870  1.0000
  O   O31       1.0  0.39250  0.83990  0.72920  1.0000
  O   O32       1.0  0.72920  0.39250  0.83990  1.0000
  O   O33       1.0  0.83990  0.72920  0.39250  1.0000
  O   O34       1.0  0.57670  0.78680  0.79300  1.0000
  O   O35       1.0  0.79300  0.57670  0.78680  1.0000
  O   O36       1.0  0.78680  0.79300  0.57670  1.0000
  C   C1        1.0  0.35570  0.68950  0.48210  1.0000
  C   C2        1.0  0.48210  0.35570  0.68950  1.0000
  C   C3        1.0  0.68950  0.48210  0.35570  1.0000
  H   H1        1.0  0.30510  0.65390  0.55260  1.0000
  H   H2        1.0  0.55260  0.30510  0.65390  1.0000
  H   H3        1.0  0.65390  0.55260  0.30510  1.0000
  C   C4        1.0  0.03870  0.81580  0.70820  1.0000
  C   C5        1.0  0.70820  0.03870  0.81580  1.0000
  C   C6        1.0  0.81580  0.70820  0.03870  1.0000
  H   H4        1.0  0.00080  0.89340  0.67060  1.0000
  H   H5        1.0  0.67060  0.00080  0.89340  1.0000
  H   H6        1.0  0.89340  0.67060  0.00080  1.0000
  C   C7        1.0  0.16110  0.03040  0.36280  1.0000
  C   C8        1.0  0.36280  0.16110  0.03040  1.0000
  C   C9        1.0  0.03040  0.36280  0.16110  1.0000
  H   H7        1.0  0.24360  0.01250  0.32280  1.0000
  H   H8        1.0  0.32280  0.24360  0.01250  1.0000
  H   H9        1.0  0.01250  0.32280  0.24360  1.0000
  C   C10       1.0  0.16590  0.04140  0.83400  1.0000
  C   C11       1.0  0.83400  0.16590  0.04140  1.0000
  C   C12       1.0  0.04140  0.83400  0.16590  1.0000
  H   H10       1.0  0.19430  0.96150  0.87460  1.0000
  H   H11       1.0  0.87460  0.19430  0.96150  1.0000
  H   H12       1.0  0.96150  0.87460  0.19430  1.0000
  C   C13       1.0  0.38380  0.15950  0.49450  1.0000
  C   C14       1.0  0.49450  0.38380  0.15950  1.0000
  C   C15       1.0  0.15950  0.49450  0.38380  1.0000
  H   H13       1.0  0.30860  0.19660  0.53740  1.0000
  H   H14       1.0  0.53740  0.30860  0.19660  1.0000
  H   H15       1.0  0.19660  0.53740  0.30860  1.0000
  C   C16       1.0  0.50710  0.83770  0.71550  1.0000
  C   C17       1.0  0.71550  0.50710  0.83770  1.0000
  C   C18       1.0  0.83770  0.71550  0.50710  1.0000
  H   H16       1.0  0.54470  0.87840  0.63930  1.0000
  H   H17       1.0  0.63930  0.54470  0.87840  1.0000
  H   H18       1.0  0.87840  0.63930  0.54470  1.0000
