data_image0
_chemical_formula_structural       Mg9C9H9Mg3O9Mg3O9C9H9C9H9Mg3O9C9H9O54C9H9C9H9O27
_chemical_formula_sum              "Mg18 C54 H54 O108"
_cell_length_a       13.9212
_cell_length_b       13.9212
_cell_length_c       22.6133
_cell_angle_alpha    90
_cell_angle_beta     90
_cell_angle_gamma    120

_space_group_name_H-M_alt    "P 1"
_space_group_IT_number       1

loop_
  _space_group_symop_operation_xyz
  'x, y, z'

loop_
  _atom_site_type_symbol
  _atom_site_label
  _atom_site_symmetry_multiplicity
  _atom_site_fract_x
  _atom_site_fract_y
  _atom_site_fract_z
  _atom_site_occupancy
  Mg  Mg1       1.0  0.66901  0.66023  0.69600  1.0000
  Mg  Mg2       1.0  0.33977  0.00878  0.69600  1.0000
  Mg  Mg3       1.0  0.99122  0.33099  0.69600  1.0000
  Mg  Mg4       1.0  0.33568  0.99356  0.02933  1.0000
  Mg  Mg5       1.0  0.00644  0.34211  0.02933  1.0000
  Mg  Mg6       1.0  0.65789  0.66432  0.02933  1.0000
  Mg  Mg7       1.0  0.00234  0.32690  0.36267  1.0000
  Mg  Mg8       1.0  0.67310  0.67545  0.36267  1.0000
  Mg  Mg9       1.0  0.32455  0.99766  0.36267  1.0000
  C   C1        1.0  0.64170  0.49100  0.60264  1.0000
  C   C2        1.0  0.50900  0.15070  0.60264  1.0000
  C   C3        1.0  0.84930  0.35830  0.60264  1.0000
  C   C4        1.0  0.30837  0.82433  0.93597  1.0000
  C   C5        1.0  0.17567  0.48403  0.93597  1.0000
  C   C6        1.0  0.51597  0.69163  0.93597  1.0000
  C   C7        1.0  0.97503  0.15767  0.26931  1.0000
  C   C8        1.0  0.84233  0.81737  0.26931  1.0000
  C   C9        1.0  0.18263  0.02497  0.26931  1.0000
  H   H1        1.0  0.70970  0.54630  0.58840  1.0000
  H   H2        1.0  0.45370  0.16340  0.58840  1.0000
  H   H3        1.0  0.83660  0.29030  0.58840  1.0000
  H   H4        1.0  0.37637  0.87963  0.92173  1.0000
  H   H5        1.0  0.12037  0.49673  0.92173  1.0000
  H   H6        1.0  0.50327  0.62363  0.92173  1.0000
  H   H7        1.0  0.04303  0.21297  0.25507  1.0000
  H   H8        1.0  0.78703  0.83007  0.25507  1.0000
  H   H9        1.0  0.16993  0.95697  0.25507  1.0000
  Mg  Mg10      1.0  0.66670  0.33330  0.52106  1.0000
  Mg  Mg11      1.0  0.33337  0.66663  0.85439  1.0000
  Mg  Mg12      1.0  0.00003  0.99997  0.18773  1.0000
  O   O1        1.0  0.60367  0.51317  0.64689  1.0000
  O   O2        1.0  0.48683  0.09050  0.64689  1.0000
  O   O3        1.0  0.90950  0.39633  0.64689  1.0000
  O   O4        1.0  0.27034  0.84650  0.98022  1.0000
  O   O5        1.0  0.15350  0.42383  0.98022  1.0000
  O   O6        1.0  0.57617  0.72966  0.98022  1.0000
  O   O7        1.0  0.93700  0.17984  0.31356  1.0000
  O   O8        1.0  0.82016  0.75717  0.31356  1.0000
  O   O9        1.0  0.24283  0.06300  0.31356  1.0000
  Mg  Mg13      1.0  0.00000  0.00000  0.53702  1.0000
  Mg  Mg14      1.0  0.66667  0.33333  0.87035  1.0000
  Mg  Mg15      1.0  0.33333  0.66667  0.20369  1.0000
  O   O10       1.0  0.59644  0.40111  0.57576  1.0000
  O   O11       1.0  0.59889  0.19533  0.57576  1.0000
  O   O12       1.0  0.80467  0.40356  0.57576  1.0000
  O   O13       1.0  0.26311  0.73444  0.90909  1.0000
  O   O14       1.0  0.26556  0.52866  0.90909  1.0000
  O   O15       1.0  0.47134  0.73689  0.90909  1.0000
  O   O16       1.0  0.92977  0.06778  0.24243  1.0000
  O   O17       1.0  0.93222  0.86200  0.24243  1.0000
  O   O18       1.0  0.13800  0.07023  0.24243  1.0000
  C   C10       1.0  0.85660  0.81590  0.61951  1.0000
  C   C11       1.0  0.18410  0.04070  0.61951  1.0000
  C   C12       1.0  0.95930  0.14340  0.61951  1.0000
  C   C13       1.0  0.52327  0.14923  0.95284  1.0000
  C   C14       1.0  0.85077  0.37403  0.95284  1.0000
  C   C15       1.0  0.62597  0.47673  0.95284  1.0000
  C   C16       1.0  0.18993  0.48257  0.28618  1.0000
  C   C17       1.0  0.51743  0.70737  0.28618  1.0000
  C   C18       1.0  0.29263  0.81007  0.28618  1.0000
  H   H10       1.0  0.81970  0.85590  0.62220  1.0000
  H   H11       1.0  0.14410  0.96380  0.62220  1.0000
  H   H12       1.0  0.03620  0.18030  0.62220  1.0000
  H   H13       1.0  0.48637  0.18923  0.95553  1.0000
  H   H14       1.0  0.81077  0.29713  0.95553  1.0000
  H   H15       1.0  0.70287  0.51363  0.95553  1.0000
  H   H16       1.0  0.15303  0.52257  0.28887  1.0000
  H   H17       1.0  0.47743  0.63047  0.28887  1.0000
  H   H18       1.0  0.36953  0.84697  0.28887  1.0000
  C   C19       1.0  0.82200  0.85090  0.77474  1.0000
  C   C20       1.0  0.14910  0.97110  0.77474  1.0000
  C   C21       1.0  0.02890  0.17800  0.77474  1.0000
  C   C22       1.0  0.48867  0.18423  0.10807  1.0000
  C   C23       1.0  0.81577  0.30443  0.10807  1.0000
  C   C24       1.0  0.69557  0.51133  0.10807  1.0000
  C   C25       1.0  0.15533  0.51757  0.44141  1.0000
  C   C26       1.0  0.48243  0.63777  0.44141  1.0000
  C   C27       1.0  0.36223  0.84467  0.44141  1.0000
  H   H19       1.0  0.86670  0.81910  0.77080  1.0000
  H   H20       1.0  0.18090  0.04760  0.77080  1.0000
  H   H21       1.0  0.95240  0.13330  0.77080  1.0000
  H   H22       1.0  0.53337  0.15243  0.10413  1.0000
  H   H23       1.0  0.84757  0.38093  0.10413  1.0000
  H   H24       1.0  0.61907  0.46663  0.10413  1.0000
  H   H25       1.0  0.20003  0.48577  0.43747  1.0000
  H   H26       1.0  0.51423  0.71427  0.43747  1.0000
  H   H27       1.0  0.28573  0.79997  0.43747  1.0000
  Mg  Mg16      1.0  0.00000  0.00000  0.85914  1.0000
  Mg  Mg17      1.0  0.66667  0.33333  0.19247  1.0000
  Mg  Mg18      1.0  0.33333  0.66667  0.52581  1.0000
  O   O19       1.0  0.81551  0.72628  0.64792  1.0000
  O   O20       1.0  0.27372  0.08923  0.64792  1.0000
  O   O21       1.0  0.91077  0.18449  0.64792  1.0000
  O   O22       1.0  0.48218  0.05961  0.98125  1.0000
  O   O23       1.0  0.94039  0.42256  0.98125  1.0000
  O   O24       1.0  0.57744  0.51782  0.98125  1.0000
  O   O25       1.0  0.14884  0.39295  0.31459  1.0000
  O   O26       1.0  0.60705  0.75590  0.31459  1.0000
  O   O27       1.0  0.24410  0.85116  0.31459  1.0000
  C   C28       1.0  0.48620  0.62870  0.77736  1.0000
  C   C29       1.0  0.37130  0.85750  0.77736  1.0000
  C   C30       1.0  0.14250  0.51380  0.77736  1.0000
  C   C31       1.0  0.15287  0.96203  0.11069  1.0000
  C   C32       1.0  0.03797  0.19083  0.11069  1.0000
  C   C33       1.0  0.80917  0.84713  0.11069  1.0000
  C   C34       1.0  0.81953  0.29537  0.44403  1.0000
  C   C35       1.0  0.70463  0.52417  0.44403  1.0000
  C   C36       1.0  0.47583  0.18047  0.44403  1.0000
  H   H28       1.0  0.53430  0.70310  0.78590  1.0000
  H   H29       1.0  0.29690  0.83120  0.78590  1.0000
  H   H30       1.0  0.16880  0.46570  0.78590  1.0000
  H   H31       1.0  0.20097  0.03643  0.11923  1.0000
  H   H32       1.0  0.96357  0.16453  0.11923  1.0000
  H   H33       1.0  0.83547  0.79903  0.11923  1.0000
  H   H34       1.0  0.86763  0.36977  0.45257  1.0000
  H   H35       1.0  0.63023  0.49787  0.45257  1.0000
  H   H36       1.0  0.50213  0.13237  0.45257  1.0000
  O   O28       1.0  0.94081  0.85615  0.58845  1.0000
  O   O29       1.0  0.14385  0.08466  0.58845  1.0000
  O   O30       1.0  0.91534  0.05919  0.58845  1.0000
  O   O31       1.0  0.60748  0.18948  0.92178  1.0000
  O   O32       1.0  0.81052  0.41799  0.92178  1.0000
  O   O33       1.0  0.58201  0.39252  0.92178  1.0000
  O   O34       1.0  0.27414  0.52282  0.25512  1.0000
  O   O35       1.0  0.47718  0.75133  0.25512  1.0000
  O   O36       1.0  0.24867  0.72586  0.25512  1.0000
  O   O37       1.0  0.52101  0.58456  0.74263  1.0000
  O   O38       1.0  0.41544  0.93645  0.74263  1.0000
  O   O39       1.0  0.06355  0.47899  0.74263  1.0000
  O   O40       1.0  0.18768  0.91789  0.07596  1.0000
  O   O41       1.0  0.08211  0.26978  0.07596  1.0000
  O   O42       1.0  0.73022  0.81232  0.07596  1.0000
  O   O43       1.0  0.85434  0.25123  0.40930  1.0000
  O   O44       1.0  0.74877  0.60312  0.40930  1.0000
  O   O45       1.0  0.39688  0.14566  0.40930  1.0000
  O   O46       1.0  0.85662  0.93351  0.80726  1.0000
  O   O47       1.0  0.06649  0.92311  0.80726  1.0000
  O   O48       1.0  0.07689  0.14338  0.80726  1.0000
  O   O49       1.0  0.52329  0.26684  0.14059  1.0000
  O   O50       1.0  0.73316  0.25644  0.14059  1.0000
  O   O51       1.0  0.74356  0.47671  0.14059  1.0000
  O   O52       1.0  0.18995  0.60018  0.47393  1.0000
  O   O53       1.0  0.39982  0.58978  0.47393  1.0000
  O   O54       1.0  0.41022  0.81005  0.47393  1.0000
  O   O55       1.0  0.73192  0.80642  0.74663  1.0000
  O   O56       1.0  0.19358  0.92550  0.74663  1.0000
  O   O57       1.0  0.07450  0.26808  0.74663  1.0000
  O   O58       1.0  0.39859  0.13975  0.07996  1.0000
  O   O59       1.0  0.86025  0.25883  0.07996  1.0000
  O   O60       1.0  0.74117  0.60141  0.07996  1.0000
  O   O61       1.0  0.06525  0.47309  0.41330  1.0000
  O   O62       1.0  0.52691  0.59217  0.41330  1.0000
  O   O63       1.0  0.40783  0.93475  0.41330  1.0000
  O   O64       1.0  0.39448  0.58522  0.80221  1.0000
  O   O65       1.0  0.41478  0.80926  0.80221  1.0000
  O   O66       1.0  0.19074  0.60552  0.80221  1.0000
  O   O67       1.0  0.06115  0.91855  0.13554  1.0000
  O   O68       1.0  0.08145  0.14259  0.13554  1.0000
  O   O69       1.0  0.85741  0.93885  0.13554  1.0000
  O   O70       1.0  0.72781  0.25189  0.46888  1.0000
  O   O71       1.0  0.74811  0.47593  0.46888  1.0000
  O   O72       1.0  0.52407  0.27219  0.46888  1.0000
  O   O73       1.0  0.60258  0.72530  0.63578  1.0000
  O   O74       1.0  0.27470  0.87728  0.63578  1.0000
  O   O75       1.0  0.12272  0.39742  0.63578  1.0000
  O   O76       1.0  0.26925  0.05863  0.96911  1.0000
  O   O77       1.0  0.94137  0.21061  0.96911  1.0000
  O   O78       1.0  0.78939  0.73075  0.96911  1.0000
  O   O79       1.0  0.93591  0.39197  0.30245  1.0000
  O   O80       1.0  0.60803  0.54395  0.30245  1.0000
  O   O81       1.0  0.45605  0.06409  0.30245  1.0000
  C   C37       1.0  0.69420  0.51090  0.78269  1.0000
  C   C38       1.0  0.48910  0.18330  0.78269  1.0000
  C   C39       1.0  0.81670  0.30580  0.78269  1.0000
  C   C40       1.0  0.36087  0.84423  0.11602  1.0000
  C   C41       1.0  0.15577  0.51663  0.11602  1.0000
  C   C42       1.0  0.48337  0.63913  0.11602  1.0000
  C   C43       1.0  0.02753  0.17757  0.44936  1.0000
  C   C44       1.0  0.82243  0.84997  0.44936  1.0000
  C   C45       1.0  0.15003  0.97247  0.44936  1.0000
  H   H37       1.0  0.61860  0.46580  0.77590  1.0000
  H   H38       1.0  0.53420  0.15280  0.77590  1.0000
  H   H39       1.0  0.84720  0.38140  0.77590  1.0000
  H   H40       1.0  0.28527  0.79913  0.10923  1.0000
  H   H41       1.0  0.20087  0.48613  0.10923  1.0000
  H   H42       1.0  0.51387  0.71473  0.10923  1.0000
  H   H43       1.0  0.95193  0.13247  0.44257  1.0000
  H   H44       1.0  0.86753  0.81947  0.44257  1.0000
  H   H45       1.0  0.18053  0.04807  0.44257  1.0000
  C   C46       1.0  0.50920  0.68500  0.61471  1.0000
  C   C47       1.0  0.31500  0.82420  0.61471  1.0000
  C   C48       1.0  0.17580  0.49080  0.61471  1.0000
  C   C49       1.0  0.17587  0.01833  0.94804  1.0000
  C   C50       1.0  0.98167  0.15753  0.94804  1.0000
  C   C51       1.0  0.84247  0.82413  0.94804  1.0000
  C   C52       1.0  0.84253  0.35167  0.28138  1.0000
  C   C53       1.0  0.64833  0.49087  0.28138  1.0000
  C   C54       1.0  0.50913  0.15747  0.28138  1.0000
  H   H46       1.0  0.45690  0.61470  0.62790  1.0000
  H   H47       1.0  0.38530  0.84220  0.62790  1.0000
  H   H48       1.0  0.15780  0.54310  0.62790  1.0000
  H   H49       1.0  0.12357  0.94803  0.96123  1.0000
  H   H50       1.0  0.05197  0.17553  0.96123  1.0000
  H   H51       1.0  0.82447  0.87643  0.96123  1.0000
  H   H52       1.0  0.79023  0.28137  0.29457  1.0000
  H   H53       1.0  0.71863  0.50887  0.29457  1.0000
  H   H54       1.0  0.49113  0.20977  0.29457  1.0000
  O   O82       1.0  0.47730  0.72901  0.57716  1.0000
  O   O83       1.0  0.27099  0.74829  0.57716  1.0000
  O   O84       1.0  0.25171  0.52270  0.57716  1.0000
  O   O85       1.0  0.14397  0.06234  0.91049  1.0000
  O   O86       1.0  0.93766  0.08162  0.91049  1.0000
  O   O87       1.0  0.91838  0.85603  0.91049  1.0000
  O   O88       1.0  0.81063  0.39568  0.24383  1.0000
  O   O89       1.0  0.60432  0.41496  0.24383  1.0000
  O   O90       1.0  0.58504  0.18937  0.24383  1.0000
  O   O91       1.0  0.73658  0.47731  0.82021  1.0000
  O   O92       1.0  0.52269  0.25927  0.82021  1.0000
  O   O93       1.0  0.74073  0.26342  0.82021  1.0000
  O   O94       1.0  0.40325  0.81064  0.15354  1.0000
  O   O95       1.0  0.18936  0.59260  0.15354  1.0000
  O   O96       1.0  0.40740  0.59675  0.15354  1.0000
  O   O97       1.0  0.06991  0.14398  0.48688  1.0000
  O   O98       1.0  0.85602  0.92594  0.48688  1.0000
  O   O99       1.0  0.07406  0.93009  0.48688  1.0000
  O   O100      1.0  0.74190  0.59742  0.75363  1.0000
  O   O101      1.0  0.40258  0.14448  0.75363  1.0000
  O   O102      1.0  0.85552  0.25810  0.75363  1.0000
  O   O103      1.0  0.40857  0.93075  0.08696  1.0000
  O   O104      1.0  0.06925  0.47781  0.08696  1.0000
  O   O105      1.0  0.52219  0.59143  0.08696  1.0000
  O   O106      1.0  0.07523  0.26409  0.42030  1.0000
  O   O107      1.0  0.73591  0.81115  0.42030  1.0000
  O   O108      1.0  0.18885  0.92477  0.42030  1.0000
