data_image0
_chemical_formula_structural       Mn4O8C4H4O8C4H4O8C4H4
_chemical_formula_sum              "Mn4 O24 C12 H12"
_cell_length_a       8.6727
_cell_length_b       11.9317
_cell_length_c       9.0332
_cell_angle_alpha    90
_cell_angle_beta     92.233
_cell_angle_gamma    90

_space_group_name_H-M_alt    "P 1"
_space_group_IT_number       1

loop_
  _space_group_symop_operation_xyz
  'x, y, z'

loop_
  _atom_site_type_symbol
  _atom_site_label
  _atom_site_symmetry_multiplicity
  _atom_site_fract_x
  _atom_site_fract_y
  _atom_site_fract_z
  _atom_site_occupancy
  Mn  Mn1       1.0  0.25494  0.25299  0.75184  1.0000
  Mn  Mn2       1.0  0.24506  0.75299  0.74816  1.0000
  Mn  Mn3       1.0  0.74506  0.74701  0.24816  1.0000
  Mn  Mn4       1.0  0.75494  0.24701  0.25184  1.0000
  O   O1        1.0  0.41560  0.18900  0.58760  1.0000
  O   O2        1.0  0.08440  0.68900  0.91240  1.0000
  O   O3        1.0  0.58440  0.81100  0.41240  1.0000
  O   O4        1.0  0.91560  0.31100  0.08760  1.0000
  O   O5        1.0  0.56520  0.19629  0.39460  1.0000
  O   O6        1.0  0.93480  0.69629  0.10540  1.0000
  O   O7        1.0  0.43480  0.80371  0.60540  1.0000
  O   O8        1.0  0.06520  0.30371  0.89460  1.0000
  C   C1        1.0  0.52520  0.22650  0.51870  1.0000
  C   C2        1.0  0.97480  0.72650  0.98130  1.0000
  C   C3        1.0  0.47480  0.77350  0.48130  1.0000
  C   C4        1.0  0.02520  0.27350  0.01870  1.0000
  H   H1        1.0  0.58460  0.28420  0.56580  1.0000
  H   H2        1.0  0.91540  0.78420  0.93420  1.0000
  H   H3        1.0  0.41540  0.71580  0.43420  1.0000
  H   H4        1.0  0.08460  0.21580  0.06580  1.0000
  O   O9        1.0  0.41160  0.33290  0.91230  1.0000
  O   O10       1.0  0.08840  0.83290  0.58770  1.0000
  O   O11       1.0  0.58840  0.66710  0.08770  1.0000
  O   O12       1.0  0.91160  0.16710  0.41230  1.0000
  O   O13       1.0  0.57720  0.31741  0.10330  1.0000
  O   O14       1.0  0.92280  0.81741  0.39670  1.0000
  O   O15       1.0  0.42280  0.68259  0.89670  1.0000
  O   O16       1.0  0.07720  0.18259  0.60330  1.0000
  C   C5        1.0  0.52230  0.28630  0.98280  1.0000
  C   C6        1.0  0.97770  0.78630  0.51720  1.0000
  C   C7        1.0  0.47770  0.71370  0.01720  1.0000
  C   C8        1.0  0.02230  0.21370  0.48280  1.0000
  H   H5        1.0  0.56680  0.22210  0.93930  1.0000
  H   H6        1.0  0.93320  0.72210  0.56070  1.0000
  H   H7        1.0  0.43320  0.77790  0.06070  1.0000
  H   H8        1.0  0.06680  0.27790  0.43930  1.0000
  O   O17       1.0  0.21940  0.40974  0.63690  1.0000
  O   O18       1.0  0.28060  0.90974  0.86310  1.0000
  O   O19       1.0  0.78060  0.59026  0.36310  1.0000
  O   O20       1.0  0.71940  0.09026  0.13690  1.0000
  O   O21       1.0  0.21620  0.59705  0.62560  1.0000
  O   O22       1.0  0.28380  0.09705  0.87440  1.0000
  O   O23       1.0  0.78380  0.40295  0.37440  1.0000
  O   O24       1.0  0.71620  0.90295  0.12560  1.0000
  C   C9        1.0  0.23310  0.50430  0.69110  1.0000
  C   C10       1.0  0.26690  0.00430  0.80890  1.0000
  C   C11       1.0  0.76690  0.49570  0.30890  1.0000
  C   C12       1.0  0.73310  0.99570  0.19110  1.0000
  H   H9        1.0  0.25950  0.50760  0.79410  1.0000
  H   H10       1.0  0.24050  0.00760  0.70590  1.0000
  H   H11       1.0  0.74050  0.49240  0.20590  1.0000
  H   H12       1.0  0.75950  0.99240  0.29410  1.0000
