data_image0
_chemical_formula_structural       Cu36Cl54N108O36C72H36C108H36C36
_chemical_formula_sum              "Cu36 Cl54 N108 O36 C216 H72"
_cell_length_a       37.171
_cell_length_b       37.171
_cell_length_c       15.907
_cell_angle_alpha    90
_cell_angle_beta     90
_cell_angle_gamma    120

_space_group_name_H-M_alt    "P 1"
_space_group_IT_number       1

loop_
  _space_group_symop_operation_xyz
  'x, y, z'

loop_
  _atom_site_type_symbol
  _atom_site_label
  _atom_site_symmetry_multiplicity
  _atom_site_fract_x
  _atom_site_fract_y
  _atom_site_fract_z
  _atom_site_occupancy
  Cu  Cu1       1.0  0.29668  0.30000  0.25070  1.0000
  Cu  Cu2       1.0  0.70000  0.99668  0.25070  1.0000
  Cu  Cu3       1.0  0.00332  0.70332  0.25070  1.0000
  Cu  Cu4       1.0  0.30000  0.29668  0.74930  1.0000
  Cu  Cu5       1.0  0.99668  0.70000  0.74930  1.0000
  Cu  Cu6       1.0  0.70332  0.00332  0.74930  1.0000
  Cu  Cu7       1.0  0.96335  0.63333  0.58403  1.0000
  Cu  Cu8       1.0  0.36667  0.33001  0.58403  1.0000
  Cu  Cu9       1.0  0.66999  0.03665  0.58403  1.0000
  Cu  Cu10      1.0  0.96667  0.63001  0.08263  1.0000
  Cu  Cu11      1.0  0.66335  0.03333  0.08263  1.0000
  Cu  Cu12      1.0  0.36999  0.33665  0.08263  1.0000
  Cu  Cu13      1.0  0.63001  0.96667  0.91737  1.0000
  Cu  Cu14      1.0  0.03333  0.66335  0.91737  1.0000
  Cu  Cu15      1.0  0.33665  0.36999  0.91737  1.0000
  Cu  Cu16      1.0  0.63333  0.96335  0.41597  1.0000
  Cu  Cu17      1.0  0.33001  0.36667  0.41597  1.0000
  Cu  Cu18      1.0  0.03665  0.66999  0.41597  1.0000
  Cu  Cu19      1.0  0.70332  0.70000  0.74930  1.0000
  Cu  Cu20      1.0  0.30000  0.00332  0.74930  1.0000
  Cu  Cu21      1.0  0.99668  0.29668  0.74930  1.0000
  Cu  Cu22      1.0  0.70000  0.70332  0.25070  1.0000
  Cu  Cu23      1.0  0.00332  0.30000  0.25070  1.0000
  Cu  Cu24      1.0  0.29668  0.99668  0.25070  1.0000
  Cu  Cu25      1.0  0.03665  0.36667  0.41597  1.0000
  Cu  Cu26      1.0  0.63333  0.66999  0.41597  1.0000
  Cu  Cu27      1.0  0.33001  0.96335  0.41597  1.0000
  Cu  Cu28      1.0  0.03333  0.36999  0.91737  1.0000
  Cu  Cu29      1.0  0.33665  0.96667  0.91737  1.0000
  Cu  Cu30      1.0  0.63001  0.66335  0.91737  1.0000
  Cu  Cu31      1.0  0.36999  0.03333  0.08263  1.0000
  Cu  Cu32      1.0  0.96667  0.33665  0.08263  1.0000
  Cu  Cu33      1.0  0.66335  0.63001  0.08263  1.0000
  Cu  Cu34      1.0  0.36667  0.03665  0.58403  1.0000
  Cu  Cu35      1.0  0.66999  0.63333  0.58403  1.0000
  Cu  Cu36      1.0  0.96335  0.33001  0.58403  1.0000
  Cl  Cl1       1.0  0.26414  0.33333  0.33333  1.0000
  Cl  Cl2       1.0  0.66667  0.93081  0.33333  1.0000
  Cl  Cl3       1.0  0.06919  0.73586  0.33333  1.0000
  Cl  Cl4       1.0  0.33333  0.26414  0.66667  1.0000
  Cl  Cl5       1.0  0.93081  0.66667  0.66667  1.0000
  Cl  Cl6       1.0  0.73586  0.06919  0.66667  1.0000
  Cl  Cl7       1.0  1.00000  0.59747  0.00000  1.0000
  Cl  Cl8       1.0  0.59748  0.00000  0.00000  1.0000
  Cl  Cl9       1.0  0.40253  0.40252  0.00000  1.0000
  Cl  Cl10      1.0  0.73586  0.66667  0.66667  1.0000
  Cl  Cl11      1.0  0.33333  0.06919  0.66667  1.0000
  Cl  Cl12      1.0  0.93081  0.26414  0.66667  1.0000
  Cl  Cl13      1.0  0.66667  0.73586  0.33333  1.0000
  Cl  Cl14      1.0  0.06919  0.33333  0.33333  1.0000
  Cl  Cl15      1.0  0.26414  0.93081  0.33333  1.0000
  Cl  Cl16      1.0  0.00000  0.40253  1.00000  1.0000
  Cl  Cl17      1.0  0.40252  1.00000  1.00000  1.0000
  Cl  Cl18      1.0  0.59747  0.59748  1.00000  1.0000
  Cl  Cl19      1.0  0.24923  0.23299  0.22935  1.0000
  Cl  Cl20      1.0  0.76701  0.01624  0.22935  1.0000
  Cl  Cl21      1.0  0.98376  0.75077  0.22935  1.0000
  Cl  Cl22      1.0  0.23299  0.24923  0.77065  1.0000
  Cl  Cl23      1.0  0.01624  0.76701  0.77065  1.0000
  Cl  Cl24      1.0  0.75077  0.98376  0.77065  1.0000
  Cl  Cl25      1.0  0.91590  0.56632  0.56268  1.0000
  Cl  Cl26      1.0  0.43368  0.34957  0.56268  1.0000
  Cl  Cl27      1.0  0.65043  0.08410  0.56268  1.0000
  Cl  Cl28      1.0  0.89966  0.58256  0.10398  1.0000
  Cl  Cl29      1.0  0.68291  0.10034  0.10398  1.0000
  Cl  Cl30      1.0  0.41744  0.31709  0.10398  1.0000
  Cl  Cl31      1.0  0.58256  0.89966  0.89602  1.0000
  Cl  Cl32      1.0  0.10034  0.68291  0.89602  1.0000
  Cl  Cl33      1.0  0.31709  0.41744  0.89602  1.0000
  Cl  Cl34      1.0  0.56632  0.91590  0.43732  1.0000
  Cl  Cl35      1.0  0.34957  0.43368  0.43732  1.0000
  Cl  Cl36      1.0  0.08410  0.65043  0.43732  1.0000
  Cl  Cl37      1.0  0.75077  0.76701  0.77065  1.0000
  Cl  Cl38      1.0  0.23299  0.98376  0.77065  1.0000
  Cl  Cl39      1.0  0.01624  0.24923  0.77065  1.0000
  Cl  Cl40      1.0  0.76701  0.75077  0.22935  1.0000
  Cl  Cl41      1.0  0.98376  0.23299  0.22935  1.0000
  Cl  Cl42      1.0  0.24923  0.01624  0.22935  1.0000
  Cl  Cl43      1.0  0.08410  0.43368  0.43732  1.0000
  Cl  Cl44      1.0  0.56632  0.65043  0.43732  1.0000
  Cl  Cl45      1.0  0.34957  0.91590  0.43732  1.0000
  Cl  Cl46      1.0  0.10034  0.41744  0.89602  1.0000
  Cl  Cl47      1.0  0.31709  0.89966  0.89602  1.0000
  Cl  Cl48      1.0  0.58256  0.68291  0.89602  1.0000
  Cl  Cl49      1.0  0.41744  0.10034  0.10398  1.0000
  Cl  Cl50      1.0  0.89966  0.31709  0.10398  1.0000
  Cl  Cl51      1.0  0.68291  0.58256  0.10398  1.0000
  Cl  Cl52      1.0  0.43368  0.08410  0.56268  1.0000
  Cl  Cl53      1.0  0.65043  0.56632  0.56268  1.0000
  Cl  Cl54      1.0  0.91590  0.34957  0.56268  1.0000
  N   N1        1.0  0.35273  0.35464  0.24960  1.0000
  N   N2        1.0  0.64536  0.99809  0.24960  1.0000
  N   N3        1.0  0.00191  0.64727  0.24960  1.0000
  N   N4        1.0  0.35464  0.35273  0.75040  1.0000
  N   N5        1.0  0.99809  0.64536  0.75040  1.0000
  N   N6        1.0  0.64727  0.00191  0.75040  1.0000
  N   N7        1.0  0.01940  0.68797  0.58293  1.0000
  N   N8        1.0  0.31203  0.33142  0.58293  1.0000
  N   N9        1.0  0.66858  0.98060  0.58293  1.0000
  N   N10       1.0  0.02131  0.68606  0.08373  1.0000
  N   N11       1.0  0.66476  0.97869  0.08373  1.0000
  N   N12       1.0  0.31394  0.33524  0.08373  1.0000
  N   N13       1.0  0.68606  0.02131  0.91627  1.0000
  N   N14       1.0  0.97869  0.66476  0.91627  1.0000
  N   N15       1.0  0.33524  0.31394  0.91627  1.0000
  N   N16       1.0  0.68797  0.01940  0.41707  1.0000
  N   N17       1.0  0.33142  0.31203  0.41707  1.0000
  N   N18       1.0  0.98060  0.66858  0.41707  1.0000
  N   N19       1.0  0.64727  0.64536  0.75040  1.0000
  N   N20       1.0  0.35464  0.00191  0.75040  1.0000
  N   N21       1.0  0.99809  0.35273  0.75040  1.0000
  N   N22       1.0  0.64536  0.64727  0.24960  1.0000
  N   N23       1.0  0.00191  0.35464  0.24960  1.0000
  N   N24       1.0  0.35273  0.99809  0.24960  1.0000
  N   N25       1.0  0.98060  0.31203  0.41707  1.0000
  N   N26       1.0  0.68797  0.66858  0.41707  1.0000
  N   N27       1.0  0.33142  0.01940  0.41707  1.0000
  N   N28       1.0  0.97869  0.31394  0.91627  1.0000
  N   N29       1.0  0.33524  0.02131  0.91627  1.0000
  N   N30       1.0  0.68606  0.66476  0.91627  1.0000
  N   N31       1.0  0.31394  0.97869  0.08373  1.0000
  N   N32       1.0  0.02131  0.33524  0.08373  1.0000
  N   N33       1.0  0.66476  0.68606  0.08373  1.0000
  N   N34       1.0  0.31203  0.98060  0.58293  1.0000
  N   N35       1.0  0.66858  0.68797  0.58293  1.0000
  N   N36       1.0  0.01940  0.33142  0.58293  1.0000
  N   N37       1.0  0.36670  0.37980  0.31650  1.0000
  N   N38       1.0  0.62020  0.98690  0.31650  1.0000
  N   N39       1.0  0.01310  0.63330  0.31650  1.0000
  N   N40       1.0  0.37980  0.36670  0.68350  1.0000
  N   N41       1.0  0.98690  0.62020  0.68350  1.0000
  N   N42       1.0  0.63330  0.01310  0.68350  1.0000
  N   N43       1.0  0.03337  0.71313  0.64983  1.0000
  N   N44       1.0  0.28687  0.32023  0.64983  1.0000
  N   N45       1.0  0.67977  0.96663  0.64983  1.0000
  N   N46       1.0  0.04647  0.70003  0.01683  1.0000
  N   N47       1.0  0.65357  0.95353  0.01683  1.0000
  N   N48       1.0  0.29997  0.34643  0.01683  1.0000
  N   N49       1.0  0.70003  0.04647  0.98317  1.0000
  N   N50       1.0  0.95353  0.65357  0.98317  1.0000
  N   N51       1.0  0.34643  0.29997  0.98317  1.0000
  N   N52       1.0  0.71313  0.03337  0.35017  1.0000
  N   N53       1.0  0.32023  0.28687  0.35017  1.0000
  N   N54       1.0  0.96663  0.67977  0.35017  1.0000
  N   N55       1.0  0.63330  0.62020  0.68350  1.0000
  N   N56       1.0  0.37980  0.01310  0.68350  1.0000
  N   N57       1.0  0.98690  0.36670  0.68350  1.0000
  N   N58       1.0  0.62020  0.63330  0.31650  1.0000
  N   N59       1.0  0.01310  0.37980  0.31650  1.0000
  N   N60       1.0  0.36670  0.98690  0.31650  1.0000
  N   N61       1.0  0.96663  0.28687  0.35017  1.0000
  N   N62       1.0  0.71313  0.67977  0.35017  1.0000
  N   N63       1.0  0.32023  0.03337  0.35017  1.0000
  N   N64       1.0  0.95353  0.29997  0.98317  1.0000
  N   N65       1.0  0.34643  0.04647  0.98317  1.0000
  N   N66       1.0  0.70003  0.65357  0.98317  1.0000
  N   N67       1.0  0.29997  0.95353  0.01683  1.0000
  N   N68       1.0  0.04647  0.34643  0.01683  1.0000
  N   N69       1.0  0.65357  0.70003  0.01683  1.0000
  N   N70       1.0  0.28687  0.96663  0.64983  1.0000
  N   N71       1.0  0.67977  0.71313  0.64983  1.0000
  N   N72       1.0  0.03337  0.32023  0.64983  1.0000
  N   N73       1.0  0.38200  0.36490  0.19290  1.0000
  N   N74       1.0  0.63510  0.01710  0.19290  1.0000
  N   N75       1.0  0.98290  0.61800  0.19290  1.0000
  N   N76       1.0  0.36490  0.38200  0.80710  1.0000
  N   N77       1.0  0.01710  0.63510  0.80710  1.0000
  N   N78       1.0  0.61800  0.98290  0.80710  1.0000
  N   N79       1.0  0.04867  0.69823  0.52623  1.0000
  N   N80       1.0  0.30177  0.35043  0.52623  1.0000
  N   N81       1.0  0.64957  0.95133  0.52623  1.0000
  N   N82       1.0  0.03157  0.71533  0.14043  1.0000
  N   N83       1.0  0.68377  0.96843  0.14043  1.0000
  N   N84       1.0  0.28467  0.31623  0.14043  1.0000
  N   N85       1.0  0.71533  0.03157  0.85957  1.0000
  N   N86       1.0  0.96843  0.68377  0.85957  1.0000
  N   N87       1.0  0.31623  0.28467  0.85957  1.0000
  N   N88       1.0  0.69823  0.04867  0.47377  1.0000
  N   N89       1.0  0.35043  0.30177  0.47377  1.0000
  N   N90       1.0  0.95133  0.64957  0.47377  1.0000
  N   N91       1.0  0.61800  0.63510  0.80710  1.0000
  N   N92       1.0  0.36490  0.98290  0.80710  1.0000
  N   N93       1.0  0.01710  0.38200  0.80710  1.0000
  N   N94       1.0  0.63510  0.61800  0.19290  1.0000
  N   N95       1.0  0.98290  0.36490  0.19290  1.0000
  N   N96       1.0  0.38200  0.01710  0.19290  1.0000
  N   N97       1.0  0.95133  0.30177  0.47377  1.0000
  N   N98       1.0  0.69823  0.64957  0.47377  1.0000
  N   N99       1.0  0.35043  0.04867  0.47377  1.0000
  N   N100      1.0  0.96843  0.28467  0.85957  1.0000
  N   N101      1.0  0.31623  0.03157  0.85957  1.0000
  N   N102      1.0  0.71533  0.68377  0.85957  1.0000
  N   N103      1.0  0.28467  0.96843  0.14043  1.0000
  N   N104      1.0  0.03157  0.31623  0.14043  1.0000
  N   N105      1.0  0.68377  0.71533  0.14043  1.0000
  N   N106      1.0  0.30177  0.95133  0.52623  1.0000
  N   N107      1.0  0.64957  0.69823  0.52623  1.0000
  N   N108      1.0  0.04867  0.35043  0.52623  1.0000
  O   O1        1.0  0.50730  0.49270  0.36430  1.0000
  O   O2        1.0  0.50730  0.01460  0.36430  1.0000
  O   O3        1.0  0.98540  0.49270  0.36430  1.0000
  O   O4        1.0  0.49270  0.50730  0.63570  1.0000
  O   O5        1.0  0.01460  0.50730  0.63570  1.0000
  O   O6        1.0  0.49270  0.98540  0.63570  1.0000
  O   O7        1.0  0.17397  0.82603  0.69763  1.0000
  O   O8        1.0  0.17397  0.34793  0.69763  1.0000
  O   O9        1.0  0.65207  0.82603  0.69763  1.0000
  O   O10       1.0  0.15937  0.84063  0.96903  1.0000
  O   O11       1.0  0.68127  0.84063  0.96903  1.0000
  O   O12       1.0  0.15937  0.31873  0.96903  1.0000
  O   O13       1.0  0.84063  0.15937  0.03097  1.0000
  O   O14       1.0  0.84063  0.68127  0.03097  1.0000
  O   O15       1.0  0.31873  0.15937  0.03097  1.0000
  O   O16       1.0  0.82603  0.17397  0.30237  1.0000
  O   O17       1.0  0.34793  0.17397  0.30237  1.0000
  O   O18       1.0  0.82603  0.65207  0.30237  1.0000
  O   O19       1.0  0.52602  0.47398  0.20850  1.0000
  O   O20       1.0  0.52602  0.05204  0.20850  1.0000
  O   O21       1.0  0.94796  0.47398  0.20850  1.0000
  O   O22       1.0  0.47398  0.52602  0.79150  1.0000
  O   O23       1.0  0.05204  0.52602  0.79150  1.0000
  O   O24       1.0  0.47398  0.94796  0.79150  1.0000
  O   O25       1.0  0.19269  0.80731  0.54183  1.0000
  O   O26       1.0  0.19269  0.38537  0.54183  1.0000
  O   O27       1.0  0.61463  0.80731  0.54183  1.0000
  O   O28       1.0  0.14065  0.85935  0.12483  1.0000
  O   O29       1.0  0.71871  0.85935  0.12483  1.0000
  O   O30       1.0  0.14065  0.28129  0.12483  1.0000
  O   O31       1.0  0.85935  0.14065  0.87517  1.0000
  O   O32       1.0  0.85935  0.71871  0.87517  1.0000
  O   O33       1.0  0.28129  0.14065  0.87517  1.0000
  O   O34       1.0  0.80731  0.19269  0.45817  1.0000
  O   O35       1.0  0.38537  0.19269  0.45817  1.0000
  O   O36       1.0  0.80731  0.61463  0.45817  1.0000
  C   C1        1.0  0.47560  0.46040  0.31770  1.0000
  C   C2        1.0  0.53960  0.01520  0.31770  1.0000
  C   C3        1.0  0.98480  0.52440  0.31770  1.0000
  C   C4        1.0  0.46040  0.47560  0.68230  1.0000
  C   C5        1.0  0.01520  0.53960  0.68230  1.0000
  C   C6        1.0  0.52440  0.98480  0.68230  1.0000
  C   C7        1.0  0.14227  0.79373  0.65103  1.0000
  C   C8        1.0  0.20627  0.34853  0.65103  1.0000
  C   C9        1.0  0.65147  0.85773  0.65103  1.0000
  C   C10       1.0  0.12707  0.80893  0.01563  1.0000
  C   C11       1.0  0.68187  0.87293  0.01563  1.0000
  C   C12       1.0  0.19107  0.31813  0.01563  1.0000
  C   C13       1.0  0.80893  0.12707  0.98437  1.0000
  C   C14       1.0  0.87293  0.68187  0.98437  1.0000
  C   C15       1.0  0.31813  0.19107  0.98437  1.0000
  C   C16       1.0  0.79373  0.14227  0.34897  1.0000
  C   C17       1.0  0.34853  0.20627  0.34897  1.0000
  C   C18       1.0  0.85773  0.65147  0.34897  1.0000
  C   C19       1.0  0.52440  0.53960  0.68230  1.0000
  C   C20       1.0  0.46040  0.98480  0.68230  1.0000
  C   C21       1.0  0.01520  0.47560  0.68230  1.0000
  C   C22       1.0  0.53960  0.52440  0.31770  1.0000
  C   C23       1.0  0.98480  0.46040  0.31770  1.0000
  C   C24       1.0  0.47560  0.01520  0.31770  1.0000
  C   C25       1.0  0.85773  0.20627  0.34897  1.0000
  C   C26       1.0  0.79373  0.65147  0.34897  1.0000
  C   C27       1.0  0.34853  0.14227  0.34897  1.0000
  C   C28       1.0  0.87293  0.19107  0.98437  1.0000
  C   C29       1.0  0.31813  0.12707  0.98437  1.0000
  C   C30       1.0  0.80893  0.68187  0.98437  1.0000
  C   C31       1.0  0.19107  0.87293  0.01563  1.0000
  C   C32       1.0  0.12707  0.31813  0.01563  1.0000
  C   C33       1.0  0.68187  0.80893  0.01563  1.0000
  C   C34       1.0  0.20627  0.85773  0.65103  1.0000
  C   C35       1.0  0.65147  0.79373  0.65103  1.0000
  C   C36       1.0  0.14227  0.34853  0.65103  1.0000
  C   C37       1.0  0.43690  0.43930  0.35060  1.0000
  C   C38       1.0  0.56070  0.99760  0.35060  1.0000
  C   C39       1.0  0.00240  0.56310  0.35060  1.0000
  C   C40       1.0  0.43930  0.43690  0.64940  1.0000
  C   C41       1.0  0.99760  0.56070  0.64940  1.0000
  C   C42       1.0  0.56310  0.00240  0.64940  1.0000
  C   C43       1.0  0.10357  0.77263  0.68393  1.0000
  C   C44       1.0  0.22737  0.33093  0.68393  1.0000
  C   C45       1.0  0.66907  0.89643  0.68393  1.0000
  C   C46       1.0  0.10597  0.77023  0.98273  1.0000
  C   C47       1.0  0.66427  0.89403  0.98273  1.0000
  C   C48       1.0  0.22977  0.33573  0.98273  1.0000
  C   C49       1.0  0.77023  0.10597  0.01727  1.0000
  C   C50       1.0  0.89403  0.66427  0.01727  1.0000
  C   C51       1.0  0.33573  0.22977  0.01727  1.0000
  C   C52       1.0  0.77263  0.10357  0.31607  1.0000
  C   C53       1.0  0.33093  0.22737  0.31607  1.0000
  C   C54       1.0  0.89643  0.66907  0.31607  1.0000
  C   C55       1.0  0.56310  0.56070  0.64940  1.0000
  C   C56       1.0  0.43930  0.00240  0.64940  1.0000
  C   C57       1.0  0.99760  0.43690  0.64940  1.0000
  C   C58       1.0  0.56070  0.56310  0.35060  1.0000
  C   C59       1.0  0.00240  0.43930  0.35060  1.0000
  C   C60       1.0  0.43690  0.99760  0.35060  1.0000
  C   C61       1.0  0.89643  0.22737  0.31607  1.0000
  C   C62       1.0  0.77263  0.66907  0.31607  1.0000
  C   C63       1.0  0.33093  0.10357  0.31607  1.0000
  C   C64       1.0  0.89403  0.22977  0.01727  1.0000
  C   C65       1.0  0.33573  0.10597  0.01727  1.0000
  C   C66       1.0  0.77023  0.66427  0.01727  1.0000
  C   C67       1.0  0.22977  0.89403  0.98273  1.0000
  C   C68       1.0  0.10597  0.33573  0.98273  1.0000
  C   C69       1.0  0.66427  0.77023  0.98273  1.0000
  C   C70       1.0  0.22737  0.89643  0.68393  1.0000
  C   C71       1.0  0.66907  0.77263  0.68393  1.0000
  C   C72       1.0  0.10357  0.33093  0.68393  1.0000
  H   H1        1.0  0.43031  0.44645  0.40348  1.0000
  H   H2        1.0  0.55355  0.98386  0.40348  1.0000
  H   H3        1.0  0.01614  0.56969  0.40348  1.0000
  H   H4        1.0  0.44645  0.43031  0.59652  1.0000
  H   H5        1.0  0.98386  0.55355  0.59652  1.0000
  H   H6        1.0  0.56969  0.01614  0.59652  1.0000
  H   H7        1.0  0.09698  0.77978  0.73681  1.0000
  H   H8        1.0  0.22022  0.31719  0.73681  1.0000
  H   H9        1.0  0.68281  0.90302  0.73681  1.0000
  H   H10       1.0  0.11312  0.76364  0.92985  1.0000
  H   H11       1.0  0.65053  0.88688  0.92985  1.0000
  H   H12       1.0  0.23636  0.34947  0.92985  1.0000
  H   H13       1.0  0.76364  0.11312  0.07015  1.0000
  H   H14       1.0  0.88688  0.65053  0.07015  1.0000
  H   H15       1.0  0.34947  0.23636  0.07015  1.0000
  H   H16       1.0  0.77978  0.09698  0.26319  1.0000
  H   H17       1.0  0.31719  0.22022  0.26319  1.0000
  H   H18       1.0  0.90302  0.68281  0.26319  1.0000
  H   H19       1.0  0.56969  0.55355  0.59652  1.0000
  H   H20       1.0  0.44645  0.01614  0.59652  1.0000
  H   H21       1.0  0.98386  0.43031  0.59652  1.0000
  H   H22       1.0  0.55355  0.56969  0.40348  1.0000
  H   H23       1.0  0.01614  0.44645  0.40348  1.0000
  H   H24       1.0  0.43031  0.98386  0.40348  1.0000
  H   H25       1.0  0.90302  0.22022  0.26319  1.0000
  H   H26       1.0  0.77978  0.68281  0.26319  1.0000
  H   H27       1.0  0.31719  0.09698  0.26319  1.0000
  H   H28       1.0  0.88688  0.23636  0.07015  1.0000
  H   H29       1.0  0.34947  0.11312  0.07015  1.0000
  H   H30       1.0  0.76364  0.65053  0.07015  1.0000
  H   H31       1.0  0.23636  0.88688  0.92985  1.0000
  H   H32       1.0  0.11312  0.34947  0.92985  1.0000
  H   H33       1.0  0.65053  0.76364  0.92985  1.0000
  H   H34       1.0  0.22022  0.90302  0.73681  1.0000
  H   H35       1.0  0.68281  0.77978  0.73681  1.0000
  H   H36       1.0  0.09698  0.31719  0.73681  1.0000
  C   C73       1.0  0.40770  0.40710  0.30300  1.0000
  C   C74       1.0  0.59290  0.00060  0.30300  1.0000
  C   C75       1.0  0.99940  0.59230  0.30300  1.0000
  C   C76       1.0  0.40710  0.40770  0.69700  1.0000
  C   C77       1.0  0.00060  0.59290  0.69700  1.0000
  C   C78       1.0  0.59230  0.99940  0.69700  1.0000
  C   C79       1.0  0.07437  0.74043  0.63633  1.0000
  C   C80       1.0  0.25957  0.33393  0.63633  1.0000
  C   C81       1.0  0.66607  0.92563  0.63633  1.0000
  C   C82       1.0  0.07377  0.74103  0.03033  1.0000
  C   C83       1.0  0.66727  0.92623  0.03033  1.0000
  C   C84       1.0  0.25897  0.33273  0.03033  1.0000
  C   C85       1.0  0.74103  0.07377  0.96967  1.0000
  C   C86       1.0  0.92623  0.66727  0.96967  1.0000
  C   C87       1.0  0.33273  0.25897  0.96967  1.0000
  C   C88       1.0  0.74043  0.07437  0.36367  1.0000
  C   C89       1.0  0.33393  0.25957  0.36367  1.0000
  C   C90       1.0  0.92563  0.66607  0.36367  1.0000
  C   C91       1.0  0.59230  0.59290  0.69700  1.0000
  C   C92       1.0  0.40710  0.99940  0.69700  1.0000
  C   C93       1.0  0.00060  0.40770  0.69700  1.0000
  C   C94       1.0  0.59290  0.59230  0.30300  1.0000
  C   C95       1.0  0.99940  0.40710  0.30300  1.0000
  C   C96       1.0  0.40770  0.00060  0.30300  1.0000
  C   C97       1.0  0.92563  0.25957  0.36367  1.0000
  C   C98       1.0  0.74043  0.66607  0.36367  1.0000
  C   C99       1.0  0.33393  0.07437  0.36367  1.0000
  C   C100      1.0  0.92623  0.25897  0.96967  1.0000
  C   C101      1.0  0.33273  0.07377  0.96967  1.0000
  C   C102      1.0  0.74103  0.66727  0.96967  1.0000
  C   C103      1.0  0.25897  0.92623  0.03033  1.0000
  C   C104      1.0  0.07377  0.33273  0.03033  1.0000
  C   C105      1.0  0.66727  0.74103  0.03033  1.0000
  C   C106      1.0  0.25957  0.92563  0.63633  1.0000
  C   C107      1.0  0.66607  0.74043  0.63633  1.0000
  C   C108      1.0  0.07437  0.33393  0.63633  1.0000
  C   C109      1.0  0.41770  0.39770  0.22350  1.0000
  C   C110      1.0  0.60230  0.02000  0.22350  1.0000
  C   C111      1.0  0.98000  0.58230  0.22350  1.0000
  C   C112      1.0  0.39770  0.41770  0.77650  1.0000
  C   C113      1.0  0.02000  0.60230  0.77650  1.0000
  C   C114      1.0  0.58230  0.98000  0.77650  1.0000
  C   C115      1.0  0.08437  0.73103  0.55683  1.0000
  C   C116      1.0  0.26897  0.35333  0.55683  1.0000
  C   C117      1.0  0.64667  0.91563  0.55683  1.0000
  C   C118      1.0  0.06437  0.75103  0.10983  1.0000
  C   C119      1.0  0.68667  0.93563  0.10983  1.0000
  C   C120      1.0  0.24897  0.31333  0.10983  1.0000
  C   C121      1.0  0.75103  0.06437  0.89017  1.0000
  C   C122      1.0  0.93563  0.68667  0.89017  1.0000
  C   C123      1.0  0.31333  0.24897  0.89017  1.0000
  C   C124      1.0  0.73103  0.08437  0.44317  1.0000
  C   C125      1.0  0.35333  0.26897  0.44317  1.0000
  C   C126      1.0  0.91563  0.64667  0.44317  1.0000
  C   C127      1.0  0.58230  0.60230  0.77650  1.0000
  C   C128      1.0  0.39770  0.98000  0.77650  1.0000
  C   C129      1.0  0.02000  0.41770  0.77650  1.0000
  C   C130      1.0  0.60230  0.58230  0.22350  1.0000
  C   C131      1.0  0.98000  0.39770  0.22350  1.0000
  C   C132      1.0  0.41770  0.02000  0.22350  1.0000
  C   C133      1.0  0.91563  0.26897  0.44317  1.0000
  C   C134      1.0  0.73103  0.64667  0.44317  1.0000
  C   C135      1.0  0.35333  0.08437  0.44317  1.0000
  C   C136      1.0  0.93563  0.24897  0.89017  1.0000
  C   C137      1.0  0.31333  0.06437  0.89017  1.0000
  C   C138      1.0  0.75103  0.68667  0.89017  1.0000
  C   C139      1.0  0.24897  0.93563  0.10983  1.0000
  C   C140      1.0  0.06437  0.31333  0.10983  1.0000
  C   C141      1.0  0.68667  0.75103  0.10983  1.0000
  C   C142      1.0  0.26897  0.91563  0.55683  1.0000
  C   C143      1.0  0.64667  0.73103  0.55683  1.0000
  C   C144      1.0  0.08437  0.35333  0.55683  1.0000
  C   C145      1.0  0.45780  0.42040  0.19020  1.0000
  C   C146      1.0  0.57960  0.03740  0.19020  1.0000
  C   C147      1.0  0.96260  0.54220  0.19020  1.0000
  C   C148      1.0  0.42040  0.45780  0.80980  1.0000
  C   C149      1.0  0.03740  0.57960  0.80980  1.0000
  C   C150      1.0  0.54220  0.96260  0.80980  1.0000
  C   C151      1.0  0.12447  0.75373  0.52353  1.0000
  C   C152      1.0  0.24627  0.37073  0.52353  1.0000
  C   C153      1.0  0.62927  0.87553  0.52353  1.0000
  C   C154      1.0  0.08707  0.79113  0.14313  1.0000
  C   C155      1.0  0.70407  0.91293  0.14313  1.0000
  C   C156      1.0  0.20887  0.29593  0.14313  1.0000
  C   C157      1.0  0.79113  0.08707  0.85687  1.0000
  C   C158      1.0  0.91293  0.70407  0.85687  1.0000
  C   C159      1.0  0.29593  0.20887  0.85687  1.0000
  C   C160      1.0  0.75373  0.12447  0.47647  1.0000
  C   C161      1.0  0.37073  0.24627  0.47647  1.0000
  C   C162      1.0  0.87553  0.62927  0.47647  1.0000
  C   C163      1.0  0.54220  0.57960  0.80980  1.0000
  C   C164      1.0  0.42040  0.96260  0.80980  1.0000
  C   C165      1.0  0.03740  0.45780  0.80980  1.0000
  C   C166      1.0  0.57960  0.54220  0.19020  1.0000
  C   C167      1.0  0.96260  0.42040  0.19020  1.0000
  C   C168      1.0  0.45780  0.03740  0.19020  1.0000
  C   C169      1.0  0.87553  0.24627  0.47647  1.0000
  C   C170      1.0  0.75373  0.62927  0.47647  1.0000
  C   C171      1.0  0.37073  0.12447  0.47647  1.0000
  C   C172      1.0  0.91293  0.20887  0.85687  1.0000
  C   C173      1.0  0.29593  0.08707  0.85687  1.0000
  C   C174      1.0  0.79113  0.70407  0.85687  1.0000
  C   C175      1.0  0.20887  0.91293  0.14313  1.0000
  C   C176      1.0  0.08707  0.29593  0.14313  1.0000
  C   C177      1.0  0.70407  0.79113  0.14313  1.0000
  C   C178      1.0  0.24627  0.87553  0.52353  1.0000
  C   C179      1.0  0.62927  0.75373  0.52353  1.0000
  C   C180      1.0  0.12447  0.37073  0.52353  1.0000
  H   H37       1.0  0.46453  0.41425  0.13653  1.0000
  H   H38       1.0  0.58575  0.05028  0.13653  1.0000
  H   H39       1.0  0.94972  0.53547  0.13653  1.0000
  H   H40       1.0  0.41425  0.46453  0.86347  1.0000
  H   H41       1.0  0.05028  0.58575  0.86347  1.0000
  H   H42       1.0  0.53547  0.94972  0.86347  1.0000
  H   H43       1.0  0.13120  0.74758  0.46986  1.0000
  H   H44       1.0  0.25242  0.38361  0.46986  1.0000
  H   H45       1.0  0.61639  0.86880  0.46986  1.0000
  H   H46       1.0  0.08092  0.79786  0.19680  1.0000
  H   H47       1.0  0.71695  0.91908  0.19680  1.0000
  H   H48       1.0  0.20214  0.28305  0.19680  1.0000
  H   H49       1.0  0.79786  0.08092  0.80320  1.0000
  H   H50       1.0  0.91908  0.71695  0.80320  1.0000
  H   H51       1.0  0.28305  0.20214  0.80320  1.0000
  H   H52       1.0  0.74758  0.13120  0.53014  1.0000
  H   H53       1.0  0.38361  0.25242  0.53014  1.0000
  H   H54       1.0  0.86880  0.61639  0.53014  1.0000
  H   H55       1.0  0.53547  0.58575  0.86347  1.0000
  H   H56       1.0  0.41425  0.94972  0.86347  1.0000
  H   H57       1.0  0.05028  0.46453  0.86347  1.0000
  H   H58       1.0  0.58575  0.53547  0.13653  1.0000
  H   H59       1.0  0.94972  0.41425  0.13653  1.0000
  H   H60       1.0  0.46453  0.05028  0.13653  1.0000
  H   H61       1.0  0.86880  0.25242  0.53014  1.0000
  H   H62       1.0  0.74758  0.61639  0.53014  1.0000
  H   H63       1.0  0.38361  0.13120  0.53014  1.0000
  H   H64       1.0  0.91908  0.20214  0.80320  1.0000
  H   H65       1.0  0.28305  0.08092  0.80320  1.0000
  H   H66       1.0  0.79786  0.71695  0.80320  1.0000
  H   H67       1.0  0.20214  0.91908  0.19680  1.0000
  H   H68       1.0  0.08092  0.28305  0.19680  1.0000
  H   H69       1.0  0.71695  0.79786  0.19680  1.0000
  H   H70       1.0  0.25242  0.86880  0.46986  1.0000
  H   H71       1.0  0.61639  0.74758  0.46986  1.0000
  H   H72       1.0  0.13120  0.38361  0.46986  1.0000
  C   C181      1.0  0.48570  0.45080  0.23720  1.0000
  C   C182      1.0  0.54920  0.03490  0.23720  1.0000
  C   C183      1.0  0.96510  0.51430  0.23720  1.0000
  C   C184      1.0  0.45080  0.48570  0.76280  1.0000
  C   C185      1.0  0.03490  0.54920  0.76280  1.0000
  C   C186      1.0  0.51430  0.96510  0.76280  1.0000
  C   C187      1.0  0.15237  0.78413  0.57053  1.0000
  C   C188      1.0  0.21587  0.36823  0.57053  1.0000
  C   C189      1.0  0.63177  0.84763  0.57053  1.0000
  C   C190      1.0  0.11747  0.81903  0.09613  1.0000
  C   C191      1.0  0.70157  0.88253  0.09613  1.0000
  C   C192      1.0  0.18097  0.29843  0.09613  1.0000
  C   C193      1.0  0.81903  0.11747  0.90387  1.0000
  C   C194      1.0  0.88253  0.70157  0.90387  1.0000
  C   C195      1.0  0.29843  0.18097  0.90387  1.0000
  C   C196      1.0  0.78413  0.15237  0.42947  1.0000
  C   C197      1.0  0.36823  0.21587  0.42947  1.0000
  C   C198      1.0  0.84763  0.63177  0.42947  1.0000
  C   C199      1.0  0.51430  0.54920  0.76280  1.0000
  C   C200      1.0  0.45080  0.96510  0.76280  1.0000
  C   C201      1.0  0.03490  0.48570  0.76280  1.0000
  C   C202      1.0  0.54920  0.51430  0.23720  1.0000
  C   C203      1.0  0.96510  0.45080  0.23720  1.0000
  C   C204      1.0  0.48570  0.03490  0.23720  1.0000
  C   C205      1.0  0.84763  0.21587  0.42947  1.0000
  C   C206      1.0  0.78413  0.63177  0.42947  1.0000
  C   C207      1.0  0.36823  0.15237  0.42947  1.0000
  C   C208      1.0  0.88253  0.18097  0.90387  1.0000
  C   C209      1.0  0.29843  0.11747  0.90387  1.0000
  C   C210      1.0  0.81903  0.70157  0.90387  1.0000
  C   C211      1.0  0.18097  0.88253  0.09613  1.0000
  C   C212      1.0  0.11747  0.29843  0.09613  1.0000
  C   C213      1.0  0.70157  0.81903  0.09613  1.0000
  C   C214      1.0  0.21587  0.84763  0.57053  1.0000
  C   C215      1.0  0.63177  0.78413  0.57053  1.0000
  C   C216      1.0  0.15237  0.36823  0.57053  1.0000
