data_image0
_chemical_formula_structural       Mn2P6O26C2H8
_chemical_formula_sum              "Mn2 P6 O26 C2 H8"
_cell_length_a       9.747
_cell_length_b       9.751
_cell_length_c       7.689
_cell_angle_alpha    99.92
_cell_angle_beta     105.88
_cell_angle_gamma    100.08

_space_group_name_H-M_alt    "P 1"
_space_group_IT_number       1

loop_
  _space_group_symop_operation_xyz
  'x, y, z'

loop_
  _atom_site_type_symbol
  _atom_site_label
  _atom_site_symmetry_multiplicity
  _atom_site_fract_x
  _atom_site_fract_y
  _atom_site_fract_z
  _atom_site_occupancy
  Mn  Mn1       1.0  0.84208  0.11847  0.70887  1.0000
  Mn  Mn2       1.0  0.15792  0.88153  0.29113  1.0000
  P   P1        1.0  0.82919  0.59069  0.62303  1.0000
  P   P2        1.0  0.17081  0.40931  0.37697  1.0000
  P   P3        1.0  0.63293  0.78574  0.63010  1.0000
  P   P4        1.0  0.36707  0.21426  0.36990  1.0000
  P   P5        1.0  0.62508  0.35663  0.68290  1.0000
  P   P6        1.0  0.37492  0.64337  0.31710  1.0000
  O   O1        1.0  0.96060  0.58300  0.77150  1.0000
  O   O2        1.0  0.03940  0.41700  0.22850  1.0000
  O   O3        1.0  0.84640  0.61910  0.44620  1.0000
  O   O4        1.0  0.15360  0.38090  0.55380  1.0000
  O   O5        1.0  0.75750  0.70640  0.71690  1.0000
  O   O6        1.0  0.24250  0.29360  0.28310  1.0000
  O   O7        1.0  0.70600  0.44590  0.56850  1.0000
  O   O8        1.0  0.29400  0.55410  0.43150  1.0000
  O   O9        1.0  0.70290  0.91290  0.57610  1.0000
  O   O10       1.0  0.29710  0.08710  0.42390  1.0000
  O   O11       1.0  0.54590  0.80150  0.75830  1.0000
  O   O12       1.0  0.45410  0.19850  0.24170  1.0000
  O   O13       1.0  0.54190  0.66850  0.44080  1.0000
  O   O14       1.0  0.45810  0.33150  0.55920  1.0000
  O   O15       1.0  0.64090  0.44380  0.86820  1.0000
  O   O16       1.0  0.35910  0.55620  0.13180  1.0000
  O   O17       1.0  0.66610  0.21690  0.66990  1.0000
  O   O18       1.0  0.33390  0.78310  0.33010  1.0000
  O   O19       1.0  0.03480  0.02100  0.79360  1.0000
  O   O20       1.0  0.96520  0.97900  0.20640  1.0000
  O   O21       1.0  0.85490  0.08440  0.98990  1.0000
  O   O22       1.0  0.14510  0.91560  0.01010  1.0000
  O   O23       1.0  0.90750  0.16550  0.47500  1.0000
  O   O24       1.0  0.09250  0.83450  0.52500  1.0000
  O   O25       1.0  0.00200  0.32610  0.86130  1.0000
  O   O26       1.0  0.99800  0.67390  0.13870  1.0000
  C   C1        1.0  0.05240  0.98080  0.94360  1.0000
  C   C2        1.0  0.94760  0.01920  0.05640  1.0000
  H   H1        1.0  0.99000  0.23300  0.51000  1.0000
  H   H2        1.0  0.01000  0.76700  0.49000  1.0000
  H   H3        1.0  0.92500  0.10400  0.39800  1.0000
  H   H4        1.0  0.07500  0.89600  0.60200  1.0000
  H   H5        1.0  0.99900  0.34600  0.94300  1.0000
  H   H6        1.0  0.00100  0.65400  0.05700  1.0000
  H   H7        1.0  0.98500  0.39100  0.82100  1.0000
  H   H8        1.0  0.01500  0.60900  0.17900  1.0000
