data_image0
_chemical_formula_structural       Ag4C24H8C16H8C8N24O56
_chemical_formula_sum              "Ag4 C48 H16 N24 O56"
_cell_length_a       29.055
_cell_length_b       3.7258
_cell_length_c       22.972
_cell_angle_alpha    90
_cell_angle_beta     127.782
_cell_angle_gamma    90

_space_group_name_H-M_alt    "P 1"
_space_group_IT_number       1

loop_
  _space_group_symop_operation_xyz
  'x, y, z'

loop_
  _atom_site_type_symbol
  _atom_site_label
  _atom_site_symmetry_multiplicity
  _atom_site_fract_x
  _atom_site_fract_y
  _atom_site_fract_z
  _atom_site_occupancy
  Ag  Ag1       1.0  0.00000  0.58970  0.25000  1.0000
  Ag  Ag2       1.0  0.50000  0.08970  0.25000  1.0000
  Ag  Ag3       1.0  0.00000  0.41030  0.75000  1.0000
  Ag  Ag4       1.0  0.50000  0.91030  0.75000  1.0000
  C   C1        1.0  0.10740  0.12870  0.28860  1.0000
  C   C2        1.0  0.60740  0.62870  0.28860  1.0000
  C   C3        1.0  0.89260  0.12870  0.21140  1.0000
  C   C4        1.0  0.39260  0.62870  0.21140  1.0000
  C   C5        1.0  0.89260  0.87130  0.71140  1.0000
  C   C6        1.0  0.39260  0.37130  0.71140  1.0000
  C   C7        1.0  0.10740  0.87130  0.78860  1.0000
  C   C8        1.0  0.60740  0.37130  0.78860  1.0000
  C   C9        1.0  0.15890  0.02680  0.36020  1.0000
  C   C10       1.0  0.65890  0.52680  0.36020  1.0000
  C   C11       1.0  0.84110  0.02680  0.13980  1.0000
  C   C12       1.0  0.34110  0.52680  0.13980  1.0000
  C   C13       1.0  0.84110  0.97320  0.63980  1.0000
  C   C14       1.0  0.34110  0.47320  0.63980  1.0000
  C   C15       1.0  0.15890  0.97320  0.86020  1.0000
  C   C16       1.0  0.65890  0.47320  0.86020  1.0000
  C   C17       1.0  0.21480  0.06400  0.38290  1.0000
  C   C18       1.0  0.71480  0.56400  0.38290  1.0000
  C   C19       1.0  0.78520  0.06400  0.11710  1.0000
  C   C20       1.0  0.28520  0.56400  0.11710  1.0000
  C   C21       1.0  0.78520  0.93600  0.61710  1.0000
  C   C22       1.0  0.28520  0.43600  0.61710  1.0000
  C   C23       1.0  0.21480  0.93600  0.88290  1.0000
  C   C24       1.0  0.71480  0.43600  0.88290  1.0000
  H   H1        1.0  0.24710  0.98380  0.43020  1.0000
  H   H2        1.0  0.74710  0.48380  0.43020  1.0000
  H   H3        1.0  0.75290  0.98380  0.06980  1.0000
  H   H4        1.0  0.25290  0.48380  0.06980  1.0000
  H   H5        1.0  0.75290  0.01620  0.56980  1.0000
  H   H6        1.0  0.25290  0.51620  0.56980  1.0000
  H   H7        1.0  0.24710  0.01620  0.93020  1.0000
  H   H8        1.0  0.74710  0.51620  0.93020  1.0000
  C   C25       1.0  0.22310  0.22250  0.33500  1.0000
  C   C26       1.0  0.72310  0.72250  0.33500  1.0000
  C   C27       1.0  0.77690  0.22250  0.16500  1.0000
  C   C28       1.0  0.27690  0.72250  0.16500  1.0000
  C   C29       1.0  0.77690  0.77750  0.66500  1.0000
  C   C30       1.0  0.27690  0.27750  0.66500  1.0000
  C   C31       1.0  0.22310  0.77750  0.83500  1.0000
  C   C32       1.0  0.72310  0.27750  0.83500  1.0000
  C   C33       1.0  0.17670  0.33600  0.26530  1.0000
  C   C34       1.0  0.67670  0.83600  0.26530  1.0000
  C   C35       1.0  0.82330  0.33600  0.23470  1.0000
  C   C36       1.0  0.32330  0.83600  0.23470  1.0000
  C   C37       1.0  0.82330  0.66400  0.73470  1.0000
  C   C38       1.0  0.32330  0.16400  0.73470  1.0000
  C   C39       1.0  0.17670  0.66400  0.76530  1.0000
  C   C40       1.0  0.67670  0.16400  0.76530  1.0000
  H   H9        1.0  0.18310  0.44170  0.23320  1.0000
  H   H10       1.0  0.68310  0.94170  0.23320  1.0000
  H   H11       1.0  0.81690  0.44170  0.26680  1.0000
  H   H12       1.0  0.31690  0.94170  0.26680  1.0000
  H   H13       1.0  0.81690  0.55830  0.76680  1.0000
  H   H14       1.0  0.31690  0.05830  0.76680  1.0000
  H   H15       1.0  0.18310  0.55830  0.73320  1.0000
  H   H16       1.0  0.68310  0.05830  0.73320  1.0000
  C   C41       1.0  0.12070  0.29100  0.24320  1.0000
  C   C42       1.0  0.62070  0.79100  0.24320  1.0000
  C   C43       1.0  0.87930  0.29100  0.25680  1.0000
  C   C44       1.0  0.37930  0.79100  0.25680  1.0000
  C   C45       1.0  0.87930  0.70900  0.75680  1.0000
  C   C46       1.0  0.37930  0.20900  0.75680  1.0000
  C   C47       1.0  0.12070  0.70900  0.74320  1.0000
  C   C48       1.0  0.62070  0.20900  0.74320  1.0000
  N   N1        1.0  0.15280  0.88160  0.41390  1.0000
  N   N2        1.0  0.65280  0.38160  0.41390  1.0000
  N   N3        1.0  0.84720  0.88160  0.08610  1.0000
  N   N4        1.0  0.34720  0.38160  0.08610  1.0000
  N   N5        1.0  0.84720  0.11840  0.58610  1.0000
  N   N6        1.0  0.34720  0.61840  0.58610  1.0000
  N   N7        1.0  0.15280  0.11840  0.91390  1.0000
  N   N8        1.0  0.65280  0.61840  0.91390  1.0000
  N   N9        1.0  0.28220  0.25650  0.35850  1.0000
  N   N10       1.0  0.78220  0.75650  0.35850  1.0000
  N   N11       1.0  0.71780  0.25650  0.14150  1.0000
  N   N12       1.0  0.21780  0.75650  0.14150  1.0000
  N   N13       1.0  0.71780  0.74350  0.64150  1.0000
  N   N14       1.0  0.21780  0.24350  0.64150  1.0000
  N   N15       1.0  0.28220  0.74350  0.85850  1.0000
  N   N16       1.0  0.78220  0.24350  0.85850  1.0000
  N   N17       1.0  0.07420  0.43000  0.17020  1.0000
  N   N18       1.0  0.57420  0.93000  0.17020  1.0000
  N   N19       1.0  0.92580  0.43000  0.32980  1.0000
  N   N20       1.0  0.42580  0.93000  0.32980  1.0000
  N   N21       1.0  0.92580  0.57000  0.82980  1.0000
  N   N22       1.0  0.42580  0.07000  0.82980  1.0000
  N   N23       1.0  0.07420  0.57000  0.67020  1.0000
  N   N24       1.0  0.57420  0.07000  0.67020  1.0000
  O   O1        1.0  0.05680  0.08670  0.26900  1.0000
  O   O2        1.0  0.55680  0.58670  0.26900  1.0000
  O   O3        1.0  0.94320  0.08670  0.23100  1.0000
  O   O4        1.0  0.44320  0.58670  0.23100  1.0000
  O   O5        1.0  0.94320  0.91330  0.73100  1.0000
  O   O6        1.0  0.44320  0.41330  0.73100  1.0000
  O   O7        1.0  0.05680  0.91330  0.76900  1.0000
  O   O8        1.0  0.55680  0.41330  0.76900  1.0000
  O   O9        1.0  0.11070  0.69130  0.39290  1.0000
  O   O10       1.0  0.61070  0.19130  0.39290  1.0000
  O   O11       1.0  0.88930  0.69130  0.10710  1.0000
  O   O12       1.0  0.38930  0.19130  0.10710  1.0000
  O   O13       1.0  0.88930  0.30870  0.60710  1.0000
  O   O14       1.0  0.38930  0.80870  0.60710  1.0000
  O   O15       1.0  0.11070  0.30870  0.89290  1.0000
  O   O16       1.0  0.61070  0.80870  0.89290  1.0000
  O   O17       1.0  0.19100  0.95530  0.47910  1.0000
  O   O18       1.0  0.69100  0.45530  0.47910  1.0000
  O   O19       1.0  0.80900  0.95530  0.02090  1.0000
  O   O20       1.0  0.30900  0.45530  0.02090  1.0000
  O   O21       1.0  0.80900  0.04470  0.52090  1.0000
  O   O22       1.0  0.30900  0.54470  0.52090  1.0000
  O   O23       1.0  0.19100  0.04470  0.97910  1.0000
  O   O24       1.0  0.69100  0.54470  0.97910  1.0000
  O   O25       1.0  0.32130  0.10600  0.41640  1.0000
  O   O26       1.0  0.82130  0.60600  0.41640  1.0000
  O   O27       1.0  0.67870  0.10600  0.08360  1.0000
  O   O28       1.0  0.17870  0.60600  0.08360  1.0000
  O   O29       1.0  0.67870  0.89400  0.58360  1.0000
  O   O30       1.0  0.17870  0.39400  0.58360  1.0000
  O   O31       1.0  0.32130  0.89400  0.91640  1.0000
  O   O32       1.0  0.82130  0.39400  0.91640  1.0000
  O   O33       1.0  0.29000  0.43830  0.32060  1.0000
  O   O34       1.0  0.79000  0.93830  0.32060  1.0000
  O   O35       1.0  0.71000  0.43830  0.17940  1.0000
  O   O36       1.0  0.21000  0.93830  0.17940  1.0000
  O   O37       1.0  0.71000  0.56170  0.67940  1.0000
  O   O38       1.0  0.21000  0.06170  0.67940  1.0000
  O   O39       1.0  0.29000  0.56170  0.82060  1.0000
  O   O40       1.0  0.79000  0.06170  0.82060  1.0000
  O   O41       1.0  0.08610  0.53700  0.13050  1.0000
  O   O42       1.0  0.58610  0.03700  0.13050  1.0000
  O   O43       1.0  0.91390  0.53700  0.36950  1.0000
  O   O44       1.0  0.41390  0.03700  0.36950  1.0000
  O   O45       1.0  0.91390  0.46300  0.86950  1.0000
  O   O46       1.0  0.41390  0.96300  0.86950  1.0000
  O   O47       1.0  0.08610  0.46300  0.63050  1.0000
  O   O48       1.0  0.58610  0.96300  0.63050  1.0000
  O   O49       1.0  0.02460  0.43300  0.14920  1.0000
  O   O50       1.0  0.52460  0.93300  0.14920  1.0000
  O   O51       1.0  0.97540  0.43300  0.35080  1.0000
  O   O52       1.0  0.47540  0.93300  0.35080  1.0000
  O   O53       1.0  0.97540  0.56700  0.85080  1.0000
  O   O54       1.0  0.47540  0.06700  0.85080  1.0000
  O   O55       1.0  0.02460  0.56700  0.64920  1.0000
  O   O56       1.0  0.52460  0.06700  0.64920  1.0000
