data_image0
_chemical_formula_structural       Zn4Na4O8C24H8O8C8H8C16H8O8C8H8C8O8
_chemical_formula_sum              "Zn4 Na4 O32 C64 H32"
_cell_length_a       13.277
_cell_length_b       14.323
_cell_length_c       11.328
_cell_angle_alpha    90
_cell_angle_beta     111.73
_cell_angle_gamma    90

_space_group_name_H-M_alt    "P 1"
_space_group_IT_number       1

loop_
  _space_group_symop_operation_xyz
  'x, y, z'

loop_
  _atom_site_type_symbol
  _atom_site_label
  _atom_site_symmetry_multiplicity
  _atom_site_fract_x
  _atom_site_fract_y
  _atom_site_fract_z
  _atom_site_occupancy
  Zn  Zn1       1.0  0.00000  0.11497  0.75000  1.0000
  Zn  Zn2       1.0  0.50000  0.61497  0.75000  1.0000
  Zn  Zn3       1.0  0.00000  0.88503  0.25000  1.0000
  Zn  Zn4       1.0  0.50000  0.38503  0.25000  1.0000
  Na  Na1       1.0  0.00000  0.00000  0.00000  1.0000
  Na  Na2       1.0  0.50000  0.50000  0.00000  1.0000
  Na  Na3       1.0  0.00000  0.00000  0.50000  1.0000
  Na  Na4       1.0  0.50000  0.50000  0.50000  1.0000
  O   O1        1.0  0.10944  0.03402  0.87450  1.0000
  O   O2        1.0  0.60944  0.53402  0.87450  1.0000
  O   O3        1.0  0.89056  0.03402  0.62550  1.0000
  O   O4        1.0  0.39056  0.53402  0.62550  1.0000
  O   O5        1.0  0.89056  0.96598  0.12550  1.0000
  O   O6        1.0  0.39056  0.46598  0.12550  1.0000
  O   O7        1.0  0.10944  0.96598  0.37450  1.0000
  O   O8        1.0  0.60944  0.46598  0.37450  1.0000
  C   C1        1.0  0.15770  0.97910  0.82330  1.0000
  C   C2        1.0  0.65770  0.47910  0.82330  1.0000
  C   C3        1.0  0.84230  0.97910  0.67670  1.0000
  C   C4        1.0  0.34230  0.47910  0.67670  1.0000
  C   C5        1.0  0.84230  0.02090  0.17670  1.0000
  C   C6        1.0  0.34230  0.52090  0.17670  1.0000
  C   C7        1.0  0.15770  0.02090  0.32330  1.0000
  C   C8        1.0  0.65770  0.52090  0.32330  1.0000
  C   C9        1.0  0.24420  0.91800  0.91350  1.0000
  C   C10       1.0  0.74420  0.41800  0.91350  1.0000
  C   C11       1.0  0.75580  0.91800  0.58650  1.0000
  C   C12       1.0  0.25580  0.41800  0.58650  1.0000
  C   C13       1.0  0.75580  0.08200  0.08650  1.0000
  C   C14       1.0  0.25580  0.58200  0.08650  1.0000
  C   C15       1.0  0.24420  0.08200  0.41350  1.0000
  C   C16       1.0  0.74420  0.58200  0.41350  1.0000
  C   C17       1.0  0.29430  0.85100  0.86570  1.0000
  C   C18       1.0  0.79430  0.35100  0.86570  1.0000
  C   C19       1.0  0.70570  0.85100  0.63430  1.0000
  C   C20       1.0  0.20570  0.35100  0.63430  1.0000
  C   C21       1.0  0.70570  0.14900  0.13430  1.0000
  C   C22       1.0  0.20570  0.64900  0.13430  1.0000
  C   C23       1.0  0.29430  0.14900  0.36570  1.0000
  C   C24       1.0  0.79430  0.64900  0.36570  1.0000
  H   H1        1.0  0.27570  0.84580  0.77830  1.0000
  H   H2        1.0  0.77570  0.34580  0.77830  1.0000
  H   H3        1.0  0.72430  0.84580  0.72170  1.0000
  H   H4        1.0  0.22430  0.34580  0.72170  1.0000
  H   H5        1.0  0.72430  0.15420  0.22170  1.0000
  H   H6        1.0  0.22430  0.65420  0.22170  1.0000
  H   H7        1.0  0.27570  0.15420  0.27830  1.0000
  H   H8        1.0  0.77570  0.65420  0.27830  1.0000
  O   O9        1.0  0.13760  0.97500  0.70840  1.0000
  O   O10       1.0  0.63760  0.47500  0.70840  1.0000
  O   O11       1.0  0.86240  0.97500  0.79160  1.0000
  O   O12       1.0  0.36240  0.47500  0.79160  1.0000
  O   O13       1.0  0.86240  0.02500  0.29160  1.0000
  O   O14       1.0  0.36240  0.52500  0.29160  1.0000
  O   O15       1.0  0.13760  0.02500  0.20840  1.0000
  O   O16       1.0  0.63760  0.52500  0.20840  1.0000
  C   C25       1.0  0.27400  0.92660  0.04380  1.0000
  C   C26       1.0  0.77400  0.42660  0.04380  1.0000
  C   C27       1.0  0.72600  0.92660  0.45620  1.0000
  C   C28       1.0  0.22600  0.42660  0.45620  1.0000
  C   C29       1.0  0.72600  0.07340  0.95620  1.0000
  C   C30       1.0  0.22600  0.57340  0.95620  1.0000
  C   C31       1.0  0.27400  0.07340  0.54380  1.0000
  C   C32       1.0  0.77400  0.57340  0.54380  1.0000
  H   H9        1.0  0.24140  0.97160  0.07700  1.0000
  H   H10       1.0  0.74140  0.47160  0.07700  1.0000
  H   H11       1.0  0.75860  0.97160  0.42300  1.0000
  H   H12       1.0  0.25860  0.47160  0.42300  1.0000
  H   H13       1.0  0.75860  0.02840  0.92300  1.0000
  H   H14       1.0  0.25860  0.52840  0.92300  1.0000
  H   H15       1.0  0.24140  0.02840  0.57700  1.0000
  H   H16       1.0  0.74140  0.52840  0.57700  1.0000
  C   C33       1.0  0.37160  0.79190  0.94660  1.0000
  C   C34       1.0  0.87160  0.29190  0.94660  1.0000
  C   C35       1.0  0.62840  0.79190  0.55340  1.0000
  C   C36       1.0  0.12840  0.29190  0.55340  1.0000
  C   C37       1.0  0.62840  0.20810  0.05340  1.0000
  C   C38       1.0  0.12840  0.70810  0.05340  1.0000
  C   C39       1.0  0.37160  0.20810  0.44660  1.0000
  C   C40       1.0  0.87160  0.70810  0.44660  1.0000
  C   C41       1.0  0.35230  0.86800  0.12430  1.0000
  C   C42       1.0  0.85230  0.36800  0.12430  1.0000
  C   C43       1.0  0.64770  0.86800  0.37570  1.0000
  C   C44       1.0  0.14770  0.36800  0.37570  1.0000
  C   C45       1.0  0.64770  0.13200  0.87570  1.0000
  C   C46       1.0  0.14770  0.63200  0.87570  1.0000
  C   C47       1.0  0.35230  0.13200  0.62430  1.0000
  C   C48       1.0  0.85230  0.63200  0.62430  1.0000
  H   H17       1.0  0.37280  0.87420  0.21180  1.0000
  H   H18       1.0  0.87280  0.37420  0.21180  1.0000
  H   H19       1.0  0.62720  0.87420  0.28820  1.0000
  H   H20       1.0  0.12720  0.37420  0.28820  1.0000
  H   H21       1.0  0.62720  0.12580  0.78820  1.0000
  H   H22       1.0  0.12720  0.62580  0.78820  1.0000
  H   H23       1.0  0.37280  0.12580  0.71180  1.0000
  H   H24       1.0  0.87280  0.62580  0.71180  1.0000
  O   O17       1.0  0.39990  0.71370  0.77650  1.0000
  O   O18       1.0  0.89990  0.21370  0.77650  1.0000
  O   O19       1.0  0.60010  0.71370  0.72350  1.0000
  O   O20       1.0  0.10010  0.21370  0.72350  1.0000
  O   O21       1.0  0.60010  0.28630  0.22350  1.0000
  O   O22       1.0  0.10010  0.78630  0.22350  1.0000
  O   O23       1.0  0.39990  0.28630  0.27650  1.0000
  O   O24       1.0  0.89990  0.78630  0.27650  1.0000
  C   C49       1.0  0.40000  0.80070  0.07550  1.0000
  C   C50       1.0  0.90000  0.30070  0.07550  1.0000
  C   C51       1.0  0.60000  0.80070  0.42450  1.0000
  C   C52       1.0  0.10000  0.30070  0.42450  1.0000
  C   C53       1.0  0.60000  0.19930  0.92450  1.0000
  C   C54       1.0  0.10000  0.69930  0.92450  1.0000
  C   C55       1.0  0.40000  0.19930  0.57550  1.0000
  C   C56       1.0  0.90000  0.69930  0.57550  1.0000
  H   H25       1.0  0.45170  0.76090  0.13020  1.0000
  H   H26       1.0  0.95170  0.26090  0.13020  1.0000
  H   H27       1.0  0.54830  0.76090  0.36980  1.0000
  H   H28       1.0  0.04830  0.26090  0.36980  1.0000
  H   H29       1.0  0.54830  0.23910  0.86980  1.0000
  H   H30       1.0  0.04830  0.73910  0.86980  1.0000
  H   H31       1.0  0.45170  0.23910  0.63020  1.0000
  H   H32       1.0  0.95170  0.73910  0.63020  1.0000
  C   C57       1.0  0.42380  0.71810  0.89470  1.0000
  C   C58       1.0  0.92380  0.21810  0.89470  1.0000
  C   C59       1.0  0.57620  0.71810  0.60530  1.0000
  C   C60       1.0  0.07620  0.21810  0.60530  1.0000
  C   C61       1.0  0.57620  0.28190  0.10530  1.0000
  C   C62       1.0  0.07620  0.78190  0.10530  1.0000
  C   C63       1.0  0.42380  0.28190  0.39470  1.0000
  C   C64       1.0  0.92380  0.78190  0.39470  1.0000
  O   O25       1.0  0.49090  0.66460  0.96850  1.0000
  O   O26       1.0  0.99090  0.16460  0.96850  1.0000
  O   O27       1.0  0.50910  0.66460  0.53150  1.0000
  O   O28       1.0  0.00910  0.16460  0.53150  1.0000
  O   O29       1.0  0.50910  0.33540  0.03150  1.0000
  O   O30       1.0  0.00910  0.83540  0.03150  1.0000
  O   O31       1.0  0.49090  0.33540  0.46850  1.0000
  O   O32       1.0  0.99090  0.83540  0.46850  1.0000
