data_image0
_chemical_formula_structural       Cu2Mo8O27C2H2C2H2C2H2C2H2C2H2C2H2N4H2N4H2
_chemical_formula_sum              "Cu2 Mo8 O27 C12 H16 N8"
_cell_length_a       9.429
_cell_length_b       9.875
_cell_length_c       12.591
_cell_angle_alpha    71.427
_cell_angle_beta     81.358
_cell_angle_gamma    72.474

_space_group_name_H-M_alt    "P 1"
_space_group_IT_number       1

loop_
  _space_group_symop_operation_xyz
  'x, y, z'

loop_
  _atom_site_type_symbol
  _atom_site_label
  _atom_site_symmetry_multiplicity
  _atom_site_fract_x
  _atom_site_fract_y
  _atom_site_fract_z
  _atom_site_occupancy
  Cu  Cu1       1.0  0.71694  0.80304  0.29321  1.0000
  Cu  Cu2       1.0  0.28306  0.19696  0.70679  1.0000
  Mo  Mo1       1.0  0.89195  0.88519  0.01774  1.0000
  Mo  Mo2       1.0  0.10805  0.11481  0.98226  1.0000
  Mo  Mo3       1.0  0.78516  0.14024  0.14241  1.0000
  Mo  Mo4       1.0  0.21484  0.85976  0.85759  1.0000
  Mo  Mo5       1.0  0.90973  0.07246  0.73658  1.0000
  Mo  Mo6       1.0  0.09027  0.92754  0.26342  1.0000
  Mo  Mo7       1.0  0.58740  0.13455  0.88669  1.0000
  Mo  Mo8       1.0  0.41260  0.86545  0.11331  1.0000
  O   O1        1.0  0.51140  0.12830  0.77350  1.0000
  O   O2        1.0  0.48860  0.87170  0.22650  1.0000
  O   O3        1.0  0.48830  0.29700  0.91040  1.0000
  O   O4        1.0  0.51170  0.70300  0.08960  1.0000
  O   O5        1.0  0.50000  0.00000  0.00000  1.0000
  O   O6        1.0  0.78500  0.93190  0.89250  1.0000
  O   O7        1.0  0.21500  0.06810  0.10750  1.0000
  O   O8        1.0  0.74170  0.10000  0.01850  1.0000
  O   O9        1.0  0.25830  0.90000  0.98150  1.0000
  O   O10       1.0  0.04970  0.75190  0.98860  1.0000
  O   O11       1.0  0.95030  0.24810  0.01140  1.0000
  O   O12       1.0  0.79860  0.79090  0.13430  1.0000
  O   O13       1.0  0.20140  0.20910  0.86570  1.0000
  O   O14       1.0  0.01590  0.03380  0.89480  1.0000
  O   O15       1.0  0.98410  0.96620  0.10520  1.0000
  O   O16       1.0  0.69780  0.01950  0.24290  1.0000
  O   O17       1.0  0.30220  0.98050  0.75710  1.0000
  O   O18       1.0  0.67380  0.31280  0.13880  1.0000
  O   O19       1.0  0.32620  0.68720  0.86120  1.0000
  O   O20       1.0  0.93560  0.12160  0.23630  1.0000
  O   O21       1.0  0.06440  0.87840  0.76370  1.0000
  O   O22       1.0  0.82200  0.04270  0.64010  1.0000
  O   O23       1.0  0.17800  0.95730  0.35990  1.0000
  O   O24       1.0  0.01360  0.18940  0.66130  1.0000
  O   O25       1.0  0.98640  0.81060  0.33870  1.0000
  O   O26       1.0  0.75210  0.20880  0.79260  1.0000
  O   O27       1.0  0.24790  0.79120  0.20740  1.0000
  C   C1        1.0  0.69590  0.88970  0.49750  1.0000
  C   C2        1.0  0.30410  0.11030  0.50250  1.0000
  H   H1        1.0  0.76370  0.94530  0.46580  1.0000
  H   H2        1.0  0.23630  0.05470  0.53420  1.0000
  C   C3        1.0  0.54230  0.78580  0.61790  1.0000
  C   C4        1.0  0.45770  0.21420  0.38210  1.0000
  H   H3        1.0  0.48350  0.75570  0.68240  1.0000
  H   H4        1.0  0.51650  0.24430  0.31760  1.0000
  C   C5        1.0  0.55890  0.74590  0.52290  1.0000
  C   C6        1.0  0.44110  0.25410  0.47710  1.0000
  H   H5        1.0  0.51220  0.68220  0.51030  1.0000
  H   H6        1.0  0.48780  0.31780  0.48970  1.0000
  C   C7        1.0  0.83070  0.49130  0.43490  1.0000
  C   C8        1.0  0.16930  0.50870  0.56510  1.0000
  H   H7        1.0  0.85260  0.52020  0.49270  1.0000
  H   H8        1.0  0.14740  0.47980  0.50730  1.0000
  C   C9        1.0  0.86180  0.35040  0.43340  1.0000
  C   C10       1.0  0.13820  0.64960  0.56660  1.0000
  H   H9        1.0  0.90460  0.26550  0.48920  1.0000
  H   H10       1.0  0.09540  0.73450  0.51080  1.0000
  C   C11       1.0  0.75700  0.49930  0.28110  1.0000
  C   C12       1.0  0.24300  0.50070  0.71890  1.0000
  H   H11       1.0  0.71570  0.53290  0.21170  1.0000
  H   H12       1.0  0.28430  0.46710  0.78830  1.0000
  N   N1        1.0  0.65420  0.81310  0.44870  1.0000
  N   N2        1.0  0.34580  0.18690  0.55130  1.0000
  N   N3        1.0  0.62890  0.87870  0.59970  1.0000
  N   N4        1.0  0.37110  0.12130  0.40030  1.0000
  H   H13       1.0  0.63910  0.92280  0.64580  1.0000
  H   H14       1.0  0.36090  0.07720  0.35420  1.0000
  N   N5        1.0  0.76210  0.58810  0.33970  1.0000
  N   N6        1.0  0.23790  0.41190  0.66030  1.0000
  N   N7        1.0  0.81750  0.35710  0.33250  1.0000
  N   N8        1.0  0.18250  0.64290  0.66750  1.0000
  H   H15       1.0  0.82710  0.28320  0.30730  1.0000
  H   H16       1.0  0.17290  0.71680  0.69270  1.0000
