data_image0
_chemical_formula_structural       Mn4O4C4O8C4O8C4O4H12
_chemical_formula_sum              "Mn4 O24 C12 H12"
_cell_length_a       6.8568
_cell_length_b       9.3906
_cell_length_c       10.7307
_cell_angle_alpha    90
_cell_angle_beta     90
_cell_angle_gamma    90

_space_group_name_H-M_alt    "P 1"
_space_group_IT_number       1

loop_
  _space_group_symop_operation_xyz
  'x, y, z'

loop_
  _atom_site_type_symbol
  _atom_site_label
  _atom_site_symmetry_multiplicity
  _atom_site_fract_x
  _atom_site_fract_y
  _atom_site_fract_z
  _atom_site_occupancy
  Mn  Mn1       1.0  0.39466  0.49733  0.47030  1.0000
  Mn  Mn2       1.0  0.10534  0.99733  0.97030  1.0000
  Mn  Mn3       1.0  0.89466  0.00267  0.47030  1.0000
  Mn  Mn4       1.0  0.60534  0.50267  0.97030  1.0000
  O   O1        1.0  0.65090  0.59810  0.39200  1.0000
  O   O2        1.0  0.84910  0.09810  0.89200  1.0000
  O   O3        1.0  0.15090  0.90190  0.39200  1.0000
  O   O4        1.0  0.34910  0.40190  0.89200  1.0000
  C   C1        1.0  0.74970  0.70920  0.40480  1.0000
  C   C2        1.0  0.75030  0.20920  0.90480  1.0000
  C   C3        1.0  0.24970  0.79080  0.40480  1.0000
  C   C4        1.0  0.25030  0.29080  0.90480  1.0000
  O   O5        1.0  0.73110  0.80214  0.48770  1.0000
  O   O6        1.0  0.76890  0.30214  0.98770  1.0000
  O   O7        1.0  0.23110  0.69786  0.48770  1.0000
  O   O8        1.0  0.26890  0.19786  0.98770  1.0000
  O   O9        1.0  0.51020  0.53610  0.65710  1.0000
  O   O10       1.0  0.98980  0.03610  0.15710  1.0000
  O   O11       1.0  0.01020  0.96390  0.65710  1.0000
  O   O12       1.0  0.48980  0.46390  0.15710  1.0000
  C   C5        1.0  0.68400  0.53170  0.68580  1.0000
  C   C6        1.0  0.81600  0.03170  0.18580  1.0000
  C   C7        1.0  0.18400  0.96830  0.68580  1.0000
  C   C8        1.0  0.31600  0.46830  0.18580  1.0000
  O   O13       1.0  0.75300  0.54310  0.79370  1.0000
  O   O14       1.0  0.74700  0.04310  0.29370  1.0000
  O   O15       1.0  0.25300  0.95690  0.79370  1.0000
  O   O16       1.0  0.24700  0.45690  0.29370  1.0000
  O   O17       1.0  0.14920  0.40170  0.56810  1.0000
  O   O18       1.0  0.35080  0.90170  0.06810  1.0000
  O   O19       1.0  0.64920  0.09830  0.56810  1.0000
  O   O20       1.0  0.85080  0.59830  0.06810  1.0000
  C   C9        1.0  0.05170  0.29000  0.55430  1.0000
  C   C10       1.0  0.44830  0.79000  0.05430  1.0000
  C   C11       1.0  0.55170  0.21000  0.55430  1.0000
  C   C12       1.0  0.94830  0.71000  0.05430  1.0000
  O   O21       1.0  0.06270  0.20356  0.46510  1.0000
  O   O22       1.0  0.43730  0.70356  0.96510  1.0000
  O   O23       1.0  0.56270  0.29644  0.46510  1.0000
  O   O24       1.0  0.93730  0.79644  0.96510  1.0000
  H   H1        1.0  0.85110  0.72510  0.34490  1.0000
  H   H2        1.0  0.64890  0.22510  0.84490  1.0000
  H   H3        1.0  0.35110  0.77490  0.34490  1.0000
  H   H4        1.0  0.14890  0.27490  0.84490  1.0000
  H   H5        1.0  0.77670  0.51860  0.61820  1.0000
  H   H6        1.0  0.72330  0.01860  0.11820  1.0000
  H   H7        1.0  0.27670  0.98140  0.61820  1.0000
  H   H8        1.0  0.22330  0.48140  0.11820  1.0000
  H   H9        1.0  0.96010  0.26710  0.61920  1.0000
  H   H10       1.0  0.53990  0.76710  0.11920  1.0000
  H   H11       1.0  0.46010  0.23290  0.61920  1.0000
  H   H12       1.0  0.03990  0.73290  0.11920  1.0000
