data_image0
_chemical_formula_structural       Mn2O12C10O2H4O2H2O2H2O2H2Mn2O4C2H2
_chemical_formula_sum              "Mn4 O24 C12 H12"
_cell_length_a       6.714
_cell_length_b       7.119
_cell_length_c       14.031
_cell_angle_alpha    90
_cell_angle_beta     89.99
_cell_angle_gamma    90

_space_group_name_H-M_alt    "P 1"
_space_group_IT_number       1

loop_
  _space_group_symop_operation_xyz
  'x, y, z'

loop_
  _atom_site_type_symbol
  _atom_site_label
  _atom_site_symmetry_multiplicity
  _atom_site_fract_x
  _atom_site_fract_y
  _atom_site_fract_z
  _atom_site_occupancy
  Mn  Mn1       1.0  0.63400  0.70780  0.85010  1.0000
  Mn  Mn2       1.0  0.36600  0.20780  0.14990  1.0000
  O   O1        1.0  0.36200  0.57600  0.86440  1.0000
  O   O2        1.0  0.63800  0.07600  0.13560  1.0000
  O   O3        1.0  0.72900  0.59600  0.98350  1.0000
  O   O4        1.0  0.27100  0.09600  0.01650  1.0000
  O   O5        1.0  0.77600  0.47400  0.77000  1.0000
  O   O6        1.0  0.22400  0.97400  0.23000  1.0000
  O   O7        1.0  0.91200  0.85400  0.85740  1.0000
  O   O8        1.0  0.08800  0.35400  0.14260  1.0000
  O   O9        1.0  0.57000  0.86100  0.71820  1.0000
  O   O10       1.0  0.43000  0.36100  0.28180  1.0000
  O   O11       1.0  0.48800  0.94800  0.92800  1.0000
  O   O12       1.0  0.51200  0.44800  0.07200  1.0000
  C   C1        1.0  0.25300  0.47300  0.81600  1.0000
  C   C2        1.0  0.74700  0.97300  0.18400  1.0000
  C   C3        1.0  0.61600  0.58300  0.04000  1.0000
  C   C4        1.0  0.38400  0.08300  0.96000  1.0000
  C   C5        1.0  0.76200  0.42300  0.69200  1.0000
  C   C6        1.0  0.23800  0.92300  0.30800  1.0000
  C   C7        1.0  0.01900  0.91300  0.80100  1.0000
  C   C8        1.0  0.98100  0.41300  0.19900  1.0000
  C   C9        1.0  0.52300  0.01400  0.70500  1.0000
  C   C10       1.0  0.47700  0.51400  0.29500  1.0000
  O   O13       1.0  0.27600  0.45200  0.72970  1.0000
  O   O14       1.0  0.72400  0.95200  0.27030  1.0000
  H   H1        1.0  0.14615  0.40681  0.84724  1.0000
  H   H2        1.0  0.85385  0.90681  0.15276  1.0000
  H   H3        1.0  0.59009  0.69933  0.07271  1.0000
  H   H4        1.0  0.40991  0.19933  0.92729  1.0000
  O   O15       1.0  0.84200  0.33300  0.63280  1.0000
  O   O16       1.0  0.15800  0.83300  0.36720  1.0000
  H   H5        1.0  0.63890  0.46957  0.66622  1.0000
  H   H6        1.0  0.36110  0.96957  0.33378  1.0000
  O   O17       1.0  0.06900  0.07500  0.78190  1.0000
  O   O18       1.0  0.93100  0.57500  0.21810  1.0000
  H   H7        1.0  0.08037  0.81858  0.76112  1.0000
  H   H8        1.0  0.91963  0.31858  0.23888  1.0000
  O   O19       1.0  0.41900  0.08700  0.63370  1.0000
  O   O20       1.0  0.58100  0.58700  0.36630  1.0000
  H   H9        1.0  0.56506  0.10200  0.75307  1.0000
  H   H10       1.0  0.43494  0.60200  0.24693  1.0000
  Mn  Mn3       1.0  0.13360  0.22020  0.65010  1.0000
  Mn  Mn4       1.0  0.86640  0.72020  0.34990  1.0000
  O   O21       1.0  0.98600  0.01800  0.56630  1.0000
  O   O22       1.0  0.01400  0.51800  0.43370  1.0000
  O   O23       1.0  0.23500  0.35200  0.51220  1.0000
  O   O24       1.0  0.76500  0.85200  0.48780  1.0000
  C   C11       1.0  0.90600  0.86200  0.55100  1.0000
  C   C12       1.0  0.09400  0.36200  0.44900  1.0000
  H   H11       1.0  0.94823  0.75189  0.58585  1.0000
  H   H12       1.0  0.05177  0.25189  0.41415  1.0000
