data_image0
_chemical_formula_structural       Mn2O12C6H6
_chemical_formula_sum              "Mn2 O12 C6 H6"
_cell_length_a       6.443
_cell_length_b       8.496
_cell_length_c       7.372
_cell_angle_alpha    90
_cell_angle_beta     115.64
_cell_angle_gamma    90

_space_group_name_H-M_alt    "P 1"
_space_group_IT_number       1

loop_
  _space_group_symop_operation_xyz
  'x, y, z'

loop_
  _atom_site_type_symbol
  _atom_site_label
  _atom_site_symmetry_multiplicity
  _atom_site_fract_x
  _atom_site_fract_y
  _atom_site_fract_z
  _atom_site_occupancy
  Mn  Mn1       1.0  0.66260  0.25000  0.32476  1.0000
  Mn  Mn2       1.0  0.33740  0.75000  0.67524  1.0000
  O   O1        1.0  0.87540  0.09910  0.56890  1.0000
  O   O2        1.0  0.12460  0.59910  0.43110  1.0000
  O   O3        1.0  0.35930  0.11990  0.29230  1.0000
  O   O4        1.0  0.64070  0.61990  0.70770  1.0000
  O   O5        1.0  0.70100  0.09880  0.10260  1.0000
  O   O6        1.0  0.29900  0.59880  0.89740  1.0000
  O   O7        1.0  0.06850  0.87880  0.70880  1.0000
  O   O8        1.0  0.93150  0.37880  0.29120  1.0000
  O   O9        1.0  0.31330  0.90020  0.43070  1.0000
  O   O10       1.0  0.68670  0.40020  0.56930  1.0000
  O   O11       1.0  0.59620  0.90190  0.89510  1.0000
  O   O12       1.0  0.40380  0.40190  0.10490  1.0000
  C   C1        1.0  0.92800  0.96170  0.56800  1.0000
  C   C2        1.0  0.07200  0.46170  0.43200  1.0000
  C   C3        1.0  0.35830  0.04430  0.42870  1.0000
  C   C4        1.0  0.64170  0.54430  0.57130  1.0000
  C   C5        1.0  0.56000  0.00450  0.99900  1.0000
  C   C6        1.0  0.44000  0.50450  0.00100  1.0000
  H   H1        1.0  0.85116  0.90890  0.44086  1.0000
  H   H2        1.0  0.14884  0.40890  0.55914  1.0000
  H   H3        1.0  0.39649  0.10042  0.55207  1.0000
  H   H4        1.0  0.60351  0.60042  0.44793  1.0000
  H   H5        1.0  0.41002  0.00852  0.99648  1.0000
  H   H6        1.0  0.58998  0.50852  0.00352  1.0000
