data_image0
_chemical_formula_structural       Co2O12C6H6
_chemical_formula_sum              "Co2 O12 C6 H6"
_cell_length_a       7.3058
_cell_length_b       7.3058
_cell_length_c       8.1897
_cell_angle_alpha    90
_cell_angle_beta     90
_cell_angle_gamma    120

_space_group_name_H-M_alt    "P 1"
_space_group_IT_number       1

loop_
  _space_group_symop_operation_xyz
  'x, y, z'

loop_
  _atom_site_type_symbol
  _atom_site_label
  _atom_site_symmetry_multiplicity
  _atom_site_fract_x
  _atom_site_fract_y
  _atom_site_fract_z
  _atom_site_occupancy
  Co  Co1       1.0  0.66670  0.33330  0.75000  1.0000
  Co  Co2       1.0  0.33330  0.66670  0.25000  1.0000
  O   O1        1.0  0.89045  0.30738  0.89444  1.0000
  O   O2        1.0  0.69262  0.58307  0.89444  1.0000
  O   O3        1.0  0.41693  0.10955  0.89444  1.0000
  O   O4        1.0  0.10955  0.69262  0.39444  1.0000
  O   O5        1.0  0.30738  0.41693  0.39444  1.0000
  O   O6        1.0  0.58307  0.89045  0.39444  1.0000
  O   O7        1.0  0.30738  0.89045  0.10556  1.0000
  O   O8        1.0  0.58307  0.69262  0.10556  1.0000
  O   O9        1.0  0.10955  0.41693  0.10556  1.0000
  O   O10       1.0  0.69262  0.10955  0.60556  1.0000
  O   O11       1.0  0.41693  0.30738  0.60556  1.0000
  O   O12       1.0  0.89045  0.58307  0.60556  1.0000
  C   C1        1.0  0.00000  0.43900  0.00000  1.0000
  C   C2        1.0  0.56100  0.56100  0.00000  1.0000
  C   C3        1.0  0.43900  0.00000  0.00000  1.0000
  C   C4        1.0  0.00000  0.56100  0.50000  1.0000
  C   C5        1.0  0.43900  0.43900  0.50000  1.0000
  C   C6        1.0  0.56100  0.00000  0.50000  1.0000
  H   H1        1.0  0.00000  0.59200  0.00000  1.0000
  H   H2        1.0  0.40800  0.40800  0.00000  1.0000
  H   H3        1.0  0.59200  0.00000  0.00000  1.0000
  H   H4        1.0  0.00000  0.40800  0.50000  1.0000
  H   H5        1.0  0.59200  0.59200  0.50000  1.0000
  H   H6        1.0  0.40800  0.00000  0.50000  1.0000
