data_image0
_chemical_formula_structural       Mn2O12C6H6
_chemical_formula_sum              "Mn2 O12 C6 H6"
_cell_length_a       6.537
_cell_length_b       8.4865
_cell_length_c       7.405
_cell_angle_alpha    90
_cell_angle_beta     116.09
_cell_angle_gamma    90

_space_group_name_H-M_alt    "P 1"
_space_group_IT_number       1

loop_
  _space_group_symop_operation_xyz
  'x, y, z'

loop_
  _atom_site_type_symbol
  _atom_site_label
  _atom_site_symmetry_multiplicity
  _atom_site_fract_x
  _atom_site_fract_y
  _atom_site_fract_z
  _atom_site_occupancy
  Mn  Mn1       1.0  0.66261  0.25000  0.32416  1.0000
  Mn  Mn2       1.0  0.33739  0.75000  0.67584  1.0000
  O   O1        1.0  0.87540  0.09900  0.56880  1.0000
  O   O2        1.0  0.12460  0.59900  0.43120  1.0000
  O   O3        1.0  0.36580  0.11700  0.29400  1.0000
  O   O4        1.0  0.63420  0.61700  0.70600  1.0000
  O   O5        1.0  0.29920  0.60030  0.89650  1.0000
  O   O6        1.0  0.70080  0.10030  0.10350  1.0000
  O   O7        1.0  0.07100  0.88190  0.70700  1.0000
  O   O8        1.0  0.92900  0.38190  0.29300  1.0000
  O   O9        1.0  0.31090  0.89820  0.42940  1.0000
  O   O10       1.0  0.68910  0.39820  0.57060  1.0000
  O   O11       1.0  0.40610  0.39940  0.10490  1.0000
  O   O12       1.0  0.59390  0.89940  0.89510  1.0000
  C   C1        1.0  0.92910  0.95980  0.56480  1.0000
  C   C2        1.0  0.07090  0.45980  0.43520  1.0000
  C   C3        1.0  0.36580  0.03780  0.43600  1.0000
  C   C4        1.0  0.63420  0.53780  0.56400  1.0000
  C   C5        1.0  0.44050  0.50030  0.00210  1.0000
  C   C6        1.0  0.55950  0.00030  0.99790  1.0000
  H   H1        1.0  0.85323  0.90607  0.43836  1.0000
  H   H2        1.0  0.14677  0.40607  0.56164  1.0000
  H   H3        1.0  0.41324  0.09070  0.56268  1.0000
  H   H4        1.0  0.58676  0.59070  0.43732  1.0000
  H   H5        1.0  0.58797  0.50204  0.00348  1.0000
  H   H6        1.0  0.41203  0.00204  0.99652  1.0000
