data_image0
_chemical_formula_structural       Mn8O48C24H24
_chemical_formula_sum              "Mn8 O48 C24 H24"
_cell_length_a       12.3309
_cell_length_b       12.331
_cell_length_c       12.331
_cell_angle_alpha    90
_cell_angle_beta     90
_cell_angle_gamma    90

_space_group_name_H-M_alt    "P 1"
_space_group_IT_number       1

loop_
  _space_group_symop_operation_xyz
  'x, y, z'

loop_
  _atom_site_type_symbol
  _atom_site_label
  _atom_site_symmetry_multiplicity
  _atom_site_fract_x
  _atom_site_fract_y
  _atom_site_fract_z
  _atom_site_occupancy
  Mn  Mn1       1.0  0.25000  0.25000  0.25000  1.0000
  Mn  Mn2       1.0  0.75000  0.75000  0.25000  1.0000
  Mn  Mn3       1.0  0.25000  0.75000  0.75000  1.0000
  Mn  Mn4       1.0  0.75000  0.25000  0.75000  1.0000
  Mn  Mn5       1.0  0.75000  0.75000  0.75000  1.0000
  Mn  Mn6       1.0  0.25000  0.25000  0.75000  1.0000
  Mn  Mn7       1.0  0.75000  0.25000  0.25000  1.0000
  Mn  Mn8       1.0  0.25000  0.75000  0.25000  1.0000
  O   O1        1.0  0.41010  0.20230  0.31030  1.0000
  O   O2        1.0  0.58990  0.79770  0.31030  1.0000
  O   O3        1.0  0.41010  0.79770  0.68970  1.0000
  O   O4        1.0  0.58990  0.20230  0.68970  1.0000
  O   O5        1.0  0.20230  0.31030  0.41010  1.0000
  O   O6        1.0  0.79770  0.68970  0.41010  1.0000
  O   O7        1.0  0.20230  0.68970  0.58990  1.0000
  O   O8        1.0  0.79770  0.31030  0.58990  1.0000
  O   O9        1.0  0.31030  0.41010  0.20230  1.0000
  O   O10       1.0  0.68970  0.41010  0.79770  1.0000
  O   O11       1.0  0.68970  0.58990  0.20230  1.0000
  O   O12       1.0  0.31030  0.58990  0.79770  1.0000
  O   O13       1.0  0.91010  0.70230  0.81030  1.0000
  O   O14       1.0  0.08990  0.29770  0.81030  1.0000
  O   O15       1.0  0.91010  0.29770  0.18970  1.0000
  O   O16       1.0  0.08990  0.70230  0.18970  1.0000
  O   O17       1.0  0.70230  0.81030  0.91010  1.0000
  O   O18       1.0  0.29770  0.18970  0.91010  1.0000
  O   O19       1.0  0.70230  0.18970  0.08990  1.0000
  O   O20       1.0  0.29770  0.81030  0.08990  1.0000
  O   O21       1.0  0.81030  0.91010  0.70230  1.0000
  O   O22       1.0  0.18970  0.91010  0.29770  1.0000
  O   O23       1.0  0.18970  0.08990  0.70230  1.0000
  O   O24       1.0  0.81030  0.08990  0.29770  1.0000
  O   O25       1.0  0.58990  0.79770  0.68970  1.0000
  O   O26       1.0  0.41010  0.20230  0.68970  1.0000
  O   O27       1.0  0.58990  0.20230  0.31030  1.0000
  O   O28       1.0  0.41010  0.79770  0.31030  1.0000
  O   O29       1.0  0.79770  0.68970  0.58990  1.0000
  O   O30       1.0  0.20230  0.31030  0.58990  1.0000
  O   O31       1.0  0.79770  0.31030  0.41010  1.0000
  O   O32       1.0  0.20230  0.68970  0.41010  1.0000
  O   O33       1.0  0.68970  0.58990  0.79770  1.0000
  O   O34       1.0  0.31030  0.58990  0.20230  1.0000
  O   O35       1.0  0.31030  0.41010  0.79770  1.0000
  O   O36       1.0  0.68970  0.41010  0.20230  1.0000
  O   O37       1.0  0.08990  0.29770  0.18970  1.0000
  O   O38       1.0  0.91010  0.70230  0.18970  1.0000
  O   O39       1.0  0.08990  0.70230  0.81030  1.0000
  O   O40       1.0  0.91010  0.29770  0.81030  1.0000
  O   O41       1.0  0.29770  0.18970  0.08990  1.0000
  O   O42       1.0  0.70230  0.81030  0.08990  1.0000
  O   O43       1.0  0.29770  0.81030  0.91010  1.0000
  O   O44       1.0  0.70230  0.18970  0.91010  1.0000
  O   O45       1.0  0.18970  0.08990  0.29770  1.0000
  O   O46       1.0  0.81030  0.08990  0.70230  1.0000
  O   O47       1.0  0.81030  0.91010  0.29770  1.0000
  O   O48       1.0  0.18970  0.91010  0.70230  1.0000
  C   C1        1.0  0.50000  0.22690  0.27370  1.0000
  C   C2        1.0  0.50000  0.77310  0.27370  1.0000
  C   C3        1.0  0.50000  0.77310  0.72630  1.0000
  C   C4        1.0  0.50000  0.22690  0.72630  1.0000
  C   C5        1.0  0.22690  0.27370  0.50000  1.0000
  C   C6        1.0  0.77310  0.72630  0.50000  1.0000
  C   C7        1.0  0.22690  0.72630  0.50000  1.0000
  C   C8        1.0  0.77310  0.27370  0.50000  1.0000
  C   C9        1.0  0.27370  0.50000  0.22690  1.0000
  C   C10       1.0  0.72630  0.50000  0.77310  1.0000
  C   C11       1.0  0.72630  0.50000  0.22690  1.0000
  C   C12       1.0  0.27370  0.50000  0.77310  1.0000
  C   C13       1.0  0.00000  0.72690  0.77370  1.0000
  C   C14       1.0  0.00000  0.27310  0.77370  1.0000
  C   C15       1.0  0.00000  0.27310  0.22630  1.0000
  C   C16       1.0  0.00000  0.72690  0.22630  1.0000
  C   C17       1.0  0.72690  0.77370  0.00000  1.0000
  C   C18       1.0  0.27310  0.22630  0.00000  1.0000
  C   C19       1.0  0.72690  0.22630  0.00000  1.0000
  C   C20       1.0  0.27310  0.77370  0.00000  1.0000
  C   C21       1.0  0.77370  0.00000  0.72690  1.0000
  C   C22       1.0  0.22630  0.00000  0.27310  1.0000
  C   C23       1.0  0.22630  0.00000  0.72690  1.0000
  C   C24       1.0  0.77370  0.00000  0.27310  1.0000
  H   H1        1.0  0.50000  0.26890  0.21100  1.0000
  H   H2        1.0  0.50000  0.73110  0.21100  1.0000
  H   H3        1.0  0.50000  0.73110  0.78900  1.0000
  H   H4        1.0  0.50000  0.26890  0.78900  1.0000
  H   H5        1.0  0.26890  0.21100  0.50000  1.0000
  H   H6        1.0  0.73110  0.78900  0.50000  1.0000
  H   H7        1.0  0.26890  0.78900  0.50000  1.0000
  H   H8        1.0  0.73110  0.21100  0.50000  1.0000
  H   H9        1.0  0.21100  0.50000  0.26890  1.0000
  H   H10       1.0  0.78900  0.50000  0.73110  1.0000
  H   H11       1.0  0.78900  0.50000  0.26890  1.0000
  H   H12       1.0  0.21100  0.50000  0.73110  1.0000
  H   H13       1.0  0.00000  0.76890  0.71100  1.0000
  H   H14       1.0  0.00000  0.23110  0.71100  1.0000
  H   H15       1.0  0.00000  0.23110  0.28900  1.0000
  H   H16       1.0  0.00000  0.76890  0.28900  1.0000
  H   H17       1.0  0.76890  0.71100  0.00000  1.0000
  H   H18       1.0  0.23110  0.28900  0.00000  1.0000
  H   H19       1.0  0.76890  0.28900  0.00000  1.0000
  H   H20       1.0  0.23110  0.71100  0.00000  1.0000
  H   H21       1.0  0.71100  0.00000  0.76890  1.0000
  H   H22       1.0  0.28900  0.00000  0.23110  1.0000
  H   H23       1.0  0.28900  0.00000  0.76890  1.0000
  H   H24       1.0  0.71100  0.00000  0.23110  1.0000
