data_image0
_chemical_formula_structural       Co6O36C6H6C6H6C6H6
_chemical_formula_sum              "Co6 O36 C18 H18"
_cell_length_a       12.5871
_cell_length_b       12.5871
_cell_length_c       8.2237
_cell_angle_alpha    90
_cell_angle_beta     90
_cell_angle_gamma    120

_space_group_name_H-M_alt    "P 1"
_space_group_IT_number       1

loop_
  _space_group_symop_operation_xyz
  'x, y, z'

loop_
  _atom_site_type_symbol
  _atom_site_label
  _atom_site_symmetry_multiplicity
  _atom_site_fract_x
  _atom_site_fract_y
  _atom_site_fract_z
  _atom_site_occupancy
  Co  Co1       1.0  0.33511  0.33154  0.58625  1.0000
  Co  Co2       1.0  0.66846  0.00357  0.58625  1.0000
  Co  Co3       1.0  0.99643  0.66489  0.58625  1.0000
  Co  Co4       1.0  0.66489  0.66846  0.08625  1.0000
  Co  Co5       1.0  0.33154  0.99643  0.08625  1.0000
  Co  Co6       1.0  0.00357  0.33511  0.08625  1.0000
  O   O1        1.0  0.42487  0.26344  0.44289  1.0000
  O   O2        1.0  0.73656  0.16143  0.44289  1.0000
  O   O3        1.0  0.83857  0.57513  0.44289  1.0000
  O   O4        1.0  0.57513  0.73656  0.94289  1.0000
  O   O5        1.0  0.26344  0.83857  0.94289  1.0000
  O   O6        1.0  0.16143  0.42487  0.94289  1.0000
  O   O7        1.0  0.42658  0.15479  0.23060  1.0000
  O   O8        1.0  0.84521  0.27179  0.23060  1.0000
  O   O9        1.0  0.72821  0.57342  0.23060  1.0000
  O   O10       1.0  0.57342  0.84521  0.73060  1.0000
  O   O11       1.0  0.15479  0.72821  0.73060  1.0000
  O   O12       1.0  0.27179  0.42658  0.73060  1.0000
  O   O13       1.0  0.39985  0.48893  0.44138  1.0000
  O   O14       1.0  0.51107  0.91092  0.44138  1.0000
  O   O15       1.0  0.08908  0.60015  0.44138  1.0000
  O   O16       1.0  0.60015  0.51107  0.94138  1.0000
  O   O17       1.0  0.48893  0.08908  0.94138  1.0000
  O   O18       1.0  0.91092  0.39985  0.94138  1.0000
  O   O19       1.0  0.50599  0.60178  0.22870  1.0000
  O   O20       1.0  0.39822  0.90421  0.22870  1.0000
  O   O21       1.0  0.09579  0.49401  0.22870  1.0000
  O   O22       1.0  0.49401  0.39822  0.72870  1.0000
  O   O23       1.0  0.60178  0.09579  0.72870  1.0000
  O   O24       1.0  0.90421  0.50599  0.72870  1.0000
  O   O25       1.0  0.17592  0.23653  0.44527  1.0000
  O   O26       1.0  0.76347  0.93939  0.44527  1.0000
  O   O27       1.0  0.06061  0.82408  0.44527  1.0000
  O   O28       1.0  0.82408  0.76347  0.94527  1.0000
  O   O29       1.0  0.23653  0.06061  0.94527  1.0000
  O   O30       1.0  0.93939  0.17592  0.94527  1.0000
  O   O31       1.0  0.07078  0.24529  0.23311  1.0000
  O   O32       1.0  0.75471  0.82549  0.23311  1.0000
  O   O33       1.0  0.17451  0.92922  0.23311  1.0000
  O   O34       1.0  0.92922  0.75471  0.73311  1.0000
  O   O35       1.0  0.24529  0.17451  0.73311  1.0000
  O   O36       1.0  0.82549  0.07078  0.73311  1.0000
  C   C1        1.0  0.37330  0.18530  0.33250  1.0000
  C   C2        1.0  0.81470  0.18800  0.33250  1.0000
  C   C3        1.0  0.81200  0.62670  0.33250  1.0000
  C   C4        1.0  0.62670  0.81470  0.83250  1.0000
  C   C5        1.0  0.18530  0.81200  0.83250  1.0000
  C   C6        1.0  0.18800  0.37330  0.83250  1.0000
  H   H1        1.0  0.28650  0.14600  0.32610  1.0000
  H   H2        1.0  0.85400  0.14050  0.32610  1.0000
  H   H3        1.0  0.85950  0.71350  0.32610  1.0000
  H   H4        1.0  0.71350  0.85400  0.82610  1.0000
  H   H5        1.0  0.14600  0.85950  0.82610  1.0000
  H   H6        1.0  0.14050  0.28650  0.82610  1.0000
  C   C7        1.0  0.47360  0.51390  0.32520  1.0000
  C   C8        1.0  0.48610  0.95970  0.32520  1.0000
  C   C9        1.0  0.04030  0.52640  0.32520  1.0000
  C   C10       1.0  0.52640  0.48610  0.82520  1.0000
  C   C11       1.0  0.51390  0.04030  0.82520  1.0000
  C   C12       1.0  0.95970  0.47360  0.82520  1.0000
  H   H7        1.0  0.50740  0.46200  0.30940  1.0000
  H   H8        1.0  0.53800  0.04540  0.30940  1.0000
  H   H9        1.0  0.95460  0.49260  0.30940  1.0000
  H   H10       1.0  0.49260  0.53800  0.80940  1.0000
  H   H11       1.0  0.46200  0.95460  0.80940  1.0000
  H   H12       1.0  0.04540  0.50740  0.80940  1.0000
  C   C13       1.0  0.14230  0.29310  0.35150  1.0000
  C   C14       1.0  0.70690  0.84920  0.35150  1.0000
  C   C15       1.0  0.15080  0.85770  0.35150  1.0000
  C   C16       1.0  0.85770  0.70690  0.85150  1.0000
  C   C17       1.0  0.29310  0.15080  0.85150  1.0000
  C   C18       1.0  0.84920  0.14230  0.85150  1.0000
  H   H13       1.0  0.17320  0.37790  0.37160  1.0000
  H   H14       1.0  0.62210  0.79530  0.37160  1.0000
  H   H15       1.0  0.20470  0.82680  0.37160  1.0000
  H   H16       1.0  0.82680  0.62210  0.87160  1.0000
  H   H17       1.0  0.37790  0.20470  0.87160  1.0000
  H   H18       1.0  0.79530  0.17320  0.87160  1.0000
