data_image0
_chemical_formula_structural       Ni2O4C2O4C2O4C2H6
_chemical_formula_sum              "Ni2 O12 C6 H6"
_cell_length_a       6.373
_cell_length_b       8.036
_cell_length_c       7.247
_cell_angle_alpha    90
_cell_angle_beta     115.83
_cell_angle_gamma    90

_space_group_name_H-M_alt    "P 1"
_space_group_IT_number       1

loop_
  _space_group_symop_operation_xyz
  'x, y, z'

loop_
  _atom_site_type_symbol
  _atom_site_label
  _atom_site_symmetry_multiplicity
  _atom_site_fract_x
  _atom_site_fract_y
  _atom_site_fract_z
  _atom_site_occupancy
  Ni  Ni1       1.0  0.66090  0.25350  0.31770  1.0000
  Ni  Ni2       1.0  0.33910  0.75350  0.68230  1.0000
  O   O1        1.0  0.40510  0.40040  0.11030  1.0000
  O   O2        1.0  0.59490  0.90040  0.88970  1.0000
  O   O3        1.0  0.67310  0.39490  0.55620  1.0000
  O   O4        1.0  0.32690  0.89490  0.44380  1.0000
  C   C1        1.0  0.94400  0.97110  0.54700  1.0000
  C   C2        1.0  0.05600  0.47110  0.45300  1.0000
  O   O5        1.0  0.30260  0.60820  0.89100  1.0000
  O   O6        1.0  0.69740  0.10820  0.10900  1.0000
  O   O7        1.0  0.61770  0.61310  0.70490  1.0000
  O   O8        1.0  0.38230  0.11310  0.29510  1.0000
  C   C3        1.0  0.60800  0.53780  0.54900  1.0000
  C   C4        1.0  0.39200  0.03780  0.45100  1.0000
  O   O9        1.0  0.88070  0.11130  0.55310  1.0000
  O   O10       1.0  0.11930  0.61130  0.44690  1.0000
  O   O11       1.0  0.08270  0.89160  0.70860  1.0000
  O   O12       1.0  0.91730  0.39160  0.29140  1.0000
  C   C5        1.0  0.44400  0.50100  0.99900  1.0000
  C   C6        1.0  0.55600  0.00100  0.00100  1.0000
  H   H1        1.0  0.59321  0.49639  0.99552  1.0000
  H   H2        1.0  0.40679  0.99639  0.00448  1.0000
  H   H3        1.0  0.54616  0.59517  0.41985  1.0000
  H   H4        1.0  0.45384  0.09517  0.58015  1.0000
  H   H5        1.0  0.88768  0.91615  0.41682  1.0000
  H   H6        1.0  0.11232  0.41615  0.58318  1.0000
