data_image0
_chemical_formula_structural       Ni2O4C2O4C2O4C2H6
_chemical_formula_sum              "Ni2 O12 C6 H6"
_cell_length_a       6.426
_cell_length_b       8.0477
_cell_length_c       7.255
_cell_angle_alpha    90
_cell_angle_beta     116.12
_cell_angle_gamma    90

_space_group_name_H-M_alt    "P 1"
_space_group_IT_number       1

loop_
  _space_group_symop_operation_xyz
  'x, y, z'

loop_
  _atom_site_type_symbol
  _atom_site_label
  _atom_site_symmetry_multiplicity
  _atom_site_fract_x
  _atom_site_fract_y
  _atom_site_fract_z
  _atom_site_occupancy
  Ni  Ni1       1.0  0.66070  0.25360  0.31888  1.0000
  Ni  Ni2       1.0  0.33930  0.75360  0.68112  1.0000
  O   O1        1.0  0.40580  0.39860  0.10740  1.0000
  O   O2        1.0  0.59420  0.89860  0.89260  1.0000
  O   O3        1.0  0.67680  0.39400  0.55730  1.0000
  O   O4        1.0  0.32320  0.89400  0.44270  1.0000
  C   C1        1.0  0.95100  0.97400  0.55300  1.0000
  C   C2        1.0  0.04900  0.47400  0.44700  1.0000
  O   O5        1.0  0.29960  0.60810  0.89180  1.0000
  O   O6        1.0  0.70040  0.10810  0.10820  1.0000
  O   O7        1.0  0.61640  0.61560  0.70660  1.0000
  O   O8        1.0  0.38360  0.11560  0.29340  1.0000
  C   C3        1.0  0.60100  0.53460  0.55100  1.0000
  C   C4        1.0  0.39900  0.03460  0.44900  1.0000
  O   O9        1.0  0.87780  0.11200  0.55560  1.0000
  O   O10       1.0  0.12220  0.61200  0.44440  1.0000
  O   O11       1.0  0.08640  0.89250  0.70880  1.0000
  O   O12       1.0  0.91360  0.39250  0.29120  1.0000
  C   C5        1.0  0.45000  0.50300  0.99500  1.0000
  C   C6        1.0  0.55000  0.00300  0.00500  1.0000
  H   H1        1.0  0.59642  0.50030  0.99017  1.0000
  H   H2        1.0  0.40358  0.00030  0.00983  1.0000
  H   H3        1.0  0.52486  0.58734  0.41930  1.0000
  H   H4        1.0  0.47514  0.08734  0.58070  1.0000
  H   H5        1.0  0.90219  0.92192  0.42164  1.0000
  H   H6        1.0  0.09781  0.42192  0.57836  1.0000
