data_image0
_chemical_formula_structural       C2H2C2H2C2H2C2H2C2H2C2H2C2H2C2H2C2H2C6H2C2H2C6H2C2H2C2H2C2H6C2H6C6H2C2H2Cu6N14O2H2O14
_chemical_formula_sum              "C48 H46 Cu6 N14 O16"
_cell_length_a       10.6498
_cell_length_b       12.5501
_cell_length_c       16.9471
_cell_angle_alpha    99.125
_cell_angle_beta     97.698
_cell_angle_gamma    98.722

_space_group_name_H-M_alt    "P 1"
_space_group_IT_number       1

loop_
  _space_group_symop_operation_xyz
  'x, y, z'

loop_
  _atom_site_type_symbol
  _atom_site_label
  _atom_site_symmetry_multiplicity
  _atom_site_fract_x
  _atom_site_fract_y
  _atom_site_fract_z
  _atom_site_occupancy
  C   C1        1.0  0.50470  0.01890  0.89610  1.0000
  C   C2        1.0  0.49530  0.98110  0.10390  1.0000
  H   H1        1.0  0.44470  0.96450  0.90830  1.0000
  H   H2        1.0  0.55530  0.03550  0.09170  1.0000
  C   C3        1.0  0.63350  0.04220  0.92840  1.0000
  C   C4        1.0  0.36650  0.95780  0.07160  1.0000
  H   H3        1.0  0.67680  0.00770  0.96560  1.0000
  H   H4        1.0  0.32320  0.99230  0.03440  1.0000
  C   C5        1.0  0.68440  0.12750  0.89390  1.0000
  C   C6        1.0  0.31560  0.87250  0.10610  1.0000
  H   H5        1.0  0.77020  0.16180  0.90420  1.0000
  H   H6        1.0  0.22980  0.83820  0.09580  1.0000
  C   C7        1.0  0.69470  0.42600  0.67490  1.0000
  C   C8        1.0  0.30530  0.57400  0.32510  1.0000
  H   H7        1.0  0.77950  0.44030  0.70130  1.0000
  H   H8        1.0  0.22050  0.55970  0.29870  1.0000
  C   C9        1.0  0.64750  0.47790  0.61490  1.0000
  C   C10       1.0  0.35250  0.52210  0.38510  1.0000
  H   H9        1.0  0.69210  0.53270  0.59300  1.0000
  H   H10       1.0  0.30790  0.46730  0.40700  1.0000
  C   C11       1.0  0.51960  0.43080  0.59440  1.0000
  C   C12       1.0  0.48040  0.56920  0.40560  1.0000
  H   H11       1.0  0.46120  0.44910  0.55510  1.0000
  H   H12       1.0  0.53880  0.55090  0.44490  1.0000
  C   C13       1.0  0.06420  0.13370  0.59080  1.0000
  C   C14       1.0  0.93580  0.86630  0.40920  1.0000
  H   H13       1.0  0.04490  0.16430  0.54510  1.0000
  H   H14       1.0  0.95510  0.83570  0.45490  1.0000
  C   C15       1.0  0.98000  0.06010  0.61860  1.0000
  C   C16       1.0  0.02000  0.93990  0.38140  1.0000
  H   H15       1.0  0.89460  0.03140  0.59640  1.0000
  H   H16       1.0  0.10540  0.96860  0.40360  1.0000
  C   C17       1.0  0.04930  0.03840  0.68610  1.0000
  C   C18       1.0  0.95070  0.96160  0.31390  1.0000
  H   H17       1.0  0.01780  0.99080  0.71850  1.0000
  H   H18       1.0  0.98220  0.00920  0.28150  1.0000
  C   C19       1.0  0.15860  0.09410  0.89235  1.0000
  C   C20       1.0  0.84140  0.90590  0.10765  1.0000
  C   C21       1.0  0.07580  0.04500  0.94785  1.0000
  C   C22       1.0  0.92420  0.95500  0.05215  1.0000
  C   C23       1.0  0.02250  0.11110  0.00211  1.0000
  C   C24       1.0  0.97750  0.88890  0.99789  1.0000
  H   H19       1.0  0.03730  0.18660  0.00420  1.0000
  H   H20       1.0  0.96270  0.81340  0.99580  1.0000
  C   C25       1.0  0.05250  0.93270  0.94658  1.0000
  C   C26       1.0  0.94750  0.06730  0.05342  1.0000
  H   H21       1.0  0.08800  0.88650  0.91070  1.0000
  H   H22       1.0  0.91200  0.11350  0.08930  1.0000
  C   C27       1.0  0.75970  0.40570  0.89273  1.0000
  C   C28       1.0  0.24030  0.59430  0.10727  1.0000
  C   C29       1.0  0.88460  0.45440  0.94775  1.0000
  C   C30       1.0  0.11540  0.54560  0.05225  1.0000
  C   C31       1.0  0.99290  0.40600  0.94290  1.0000
  C   C32       1.0  0.00710  0.59400  0.05710  1.0000
  H   H23       1.0  0.98870  0.34300  0.90480  1.0000
  H   H24       1.0  0.01130  0.65700  0.09520  1.0000
  C   C33       1.0  0.10720  0.45140  0.99478  1.0000
  C   C34       1.0  0.89280  0.54860  0.00522  1.0000
  H   H25       1.0  0.17930  0.41840  0.99110  1.0000
  H   H26       1.0  0.82070  0.58160  0.00890  1.0000
  C   C35       1.0  0.29230  0.88650  0.62480  1.0000
  C   C36       1.0  0.70770  0.11350  0.37520  1.0000
  H   H27       1.0  0.25330  0.93710  0.60030  1.0000
  H   H28       1.0  0.74670  0.06290  0.39970  1.0000
  C   C37       1.0  0.24770  0.77060  0.49260  1.0000
  C   C38       1.0  0.75230  0.22940  0.50740  1.0000
  H   H29       1.0  0.20580  0.82930  0.47900  1.0000
  H   H30       1.0  0.79420  0.17070  0.52100  1.0000
  H   H31       1.0  0.18680  0.70310  0.47980  1.0000
  H   H32       1.0  0.81320  0.29690  0.52020  1.0000
  H   H33       1.0  0.31680  0.76420  0.46200  1.0000
  H   H34       1.0  0.68320  0.23580  0.53800  1.0000
  C   C39       1.0  0.35940  0.71140  0.61120  1.0000
  C   C40       1.0  0.64060  0.28860  0.38880  1.0000
  H   H35       1.0  0.29520  0.64940  0.61250  1.0000
  H   H36       1.0  0.70480  0.35060  0.38750  1.0000
  H   H37       1.0  0.40350  0.74160  0.66510  1.0000
  H   H38       1.0  0.59650  0.25840  0.33490  1.0000
  H   H39       1.0  0.42010  0.68850  0.57780  1.0000
  H   H40       1.0  0.57990  0.31150  0.42220  1.0000
  C   C41       1.0  0.17290  0.40510  0.60480  1.0000
  C   C42       1.0  0.82710  0.59490  0.39520  1.0000
  C   C43       1.0  0.08300  0.45360  0.54977  1.0000
  C   C44       1.0  0.91700  0.54640  0.45023  1.0000
  C   C45       1.0  0.02010  0.53460  0.58237  1.0000
  C   C46       1.0  0.97990  0.46540  0.41763  1.0000
  H   H41       1.0  0.03310  0.55810  0.63820  1.0000
  H   H42       1.0  0.96690  0.44190  0.36180  1.0000
  C   C47       1.0  0.06170  0.41890  0.46690  1.0000
  C   C48       1.0  0.93830  0.58110  0.53310  1.0000
  H   H43       1.0  0.10260  0.36400  0.44410  1.0000
  H   H44       1.0  0.89740  0.63600  0.55590  1.0000
  Cu  Cu1       1.0  0.59753  0.25984  0.77175  1.0000
  Cu  Cu2       1.0  0.40247  0.74016  0.22825  1.0000
  Cu  Cu3       1.0  0.33103  0.26032  0.64186  1.0000
  Cu  Cu4       1.0  0.66897  0.73968  0.35814  1.0000
  Cu  Cu5       1.0  0.31930  0.08906  0.77502  1.0000
  Cu  Cu6       1.0  0.68070  0.91094  0.22498  1.0000
  N   N1        1.0  0.47890  0.08567  0.84472  1.0000
  N   N2        1.0  0.52110  0.91433  0.15528  1.0000
  N   N3        1.0  0.59060  0.15370  0.84305  1.0000
  N   N4        1.0  0.40940  0.84630  0.15695  1.0000
  N   N5        1.0  0.60150  0.35198  0.68996  1.0000
  N   N6        1.0  0.39850  0.64802  0.31004  1.0000
  N   N7        1.0  0.49170  0.35492  0.63939  1.0000
  N   N8        1.0  0.50830  0.64508  0.36061  1.0000
  N   N9        1.0  0.17740  0.15460  0.63886  1.0000
  N   N10       1.0  0.82260  0.84540  0.36114  1.0000
  N   N11       1.0  0.16820  0.09500  0.69862  1.0000
  N   N12       1.0  0.83180  0.90500  0.30138  1.0000
  N   N13       1.0  0.29880  0.79320  0.57830  1.0000
  N   N14       1.0  0.70120  0.20680  0.42170  1.0000
  O   O1        1.0  0.42813  0.17794  0.71165  1.0000
  O   O2        1.0  0.57187  0.82206  0.28835  1.0000
  H   H45       1.0  0.45100  0.12900  0.68050  1.0000
  H   H46       1.0  0.54900  0.87100  0.31950  1.0000
  O   O3        1.0  0.21320  0.02802  0.84981  1.0000
  O   O4        1.0  0.78680  0.97198  0.15019  1.0000
  O   O5        1.0  0.16990  0.19382  0.89276  1.0000
  O   O6        1.0  0.83010  0.80618  0.10724  1.0000
  O   O7        1.0  0.76615  0.33602  0.83047  1.0000
  O   O8        1.0  0.23385  0.66398  0.16953  1.0000
  O   O9        1.0  0.65810  0.43304  0.90958  1.0000
  O   O10       1.0  0.34190  0.56696  0.09042  1.0000
  O   O11       1.0  0.23460  0.33781  0.56970  1.0000
  O   O12       1.0  0.76540  0.66219  0.43030  1.0000
  O   O13       1.0  0.18210  0.43240  0.67836  1.0000
  O   O14       1.0  0.81790  0.56760  0.32164  1.0000
  O   O15       1.0  0.33360  0.91180  0.69745  1.0000
  O   O16       1.0  0.66640  0.08820  0.30255  1.0000
