data_image0
_chemical_formula_structural       U4O40C12H4C4H8C4H8C12H12C4H12C4H12C4H4C4H4
_chemical_formula_sum              "U4 O40 C48 H64"
_cell_length_a       9.1167
_cell_length_b       18.4978
_cell_length_c       19.5856
_cell_angle_alpha    90
_cell_angle_beta     90
_cell_angle_gamma    90

_space_group_name_H-M_alt    "P 1"
_space_group_IT_number       1

loop_
  _space_group_symop_operation_xyz
  'x, y, z'

loop_
  _atom_site_type_symbol
  _atom_site_label
  _atom_site_symmetry_multiplicity
  _atom_site_fract_x
  _atom_site_fract_y
  _atom_site_fract_z
  _atom_site_occupancy
  U   U1        1.0  0.71119  0.50320  0.33835  1.0000
  U   U2        1.0  0.78881  0.49680  0.83835  1.0000
  U   U3        1.0  0.28881  0.00320  0.16165  1.0000
  U   U4        1.0  0.21119  0.99680  0.66165  1.0000
  O   O1        1.0  0.87500  0.49930  0.38740  1.0000
  O   O2        1.0  0.62500  0.50070  0.88740  1.0000
  O   O3        1.0  0.12500  0.99930  0.11260  1.0000
  O   O4        1.0  0.37500  0.00070  0.61260  1.0000
  O   O5        1.0  0.54590  0.50650  0.29000  1.0000
  O   O6        1.0  0.95410  0.49350  0.79000  1.0000
  O   O7        1.0  0.45410  0.00650  0.21000  1.0000
  O   O8        1.0  0.04590  0.99350  0.71000  1.0000
  O   O9        1.0  0.60410  0.56880  0.43700  1.0000
  O   O10       1.0  0.89590  0.43120  0.93700  1.0000
  O   O11       1.0  0.39590  0.06880  0.06300  1.0000
  O   O12       1.0  0.10410  0.93120  0.56300  1.0000
  O   O13       1.0  0.55400  0.45510  0.43410  1.0000
  O   O14       1.0  0.94600  0.54490  0.93410  1.0000
  O   O15       1.0  0.44600  0.95510  0.06590  1.0000
  O   O16       1.0  0.05400  0.04490  0.56590  1.0000
  O   O17       1.0  0.68050  0.56330  0.74060  1.0000
  O   O18       1.0  0.81950  0.43670  0.24060  1.0000
  O   O19       1.0  0.31950  0.06330  0.75940  1.0000
  O   O20       1.0  0.18050  0.93670  0.25940  1.0000
  O   O21       1.0  0.62820  0.44860  0.74430  1.0000
  O   O22       1.0  0.87180  0.55140  0.24430  1.0000
  O   O23       1.0  0.37180  0.94860  0.75570  1.0000
  O   O24       1.0  0.12820  0.05140  0.25570  1.0000
  O   O25       1.0  0.69500  0.37350  0.34540  1.0000
  O   O26       1.0  0.80500  0.62650  0.84540  1.0000
  O   O27       1.0  0.30500  0.87350  0.15460  1.0000
  O   O28       1.0  0.19500  0.12650  0.65460  1.0000
  O   O29       1.0  0.79260  0.26700  0.37520  1.0000
  O   O30       1.0  0.70740  0.73300  0.87520  1.0000
  O   O31       1.0  0.20740  0.76700  0.12480  1.0000
  O   O32       1.0  0.29260  0.23300  0.62480  1.0000
  O   O33       1.0  0.70570  0.63280  0.32840  1.0000
  O   O34       1.0  0.79430  0.36720  0.82840  1.0000
  O   O35       1.0  0.29430  0.13280  0.17160  1.0000
  O   O36       1.0  0.20570  0.86720  0.67160  1.0000
  O   O37       1.0  0.77680  0.73840  0.37360  1.0000
  O   O38       1.0  0.72320  0.26160  0.87360  1.0000
  O   O39       1.0  0.22320  0.23840  0.12640  1.0000
  O   O40       1.0  0.27680  0.76160  0.62640  1.0000
  C   C1        1.0  0.46880  0.51980  0.53370  1.0000
  C   C2        1.0  0.03120  0.48020  0.03370  1.0000
  C   C3        1.0  0.53120  0.01980  0.96630  1.0000
  C   C4        1.0  0.96880  0.98020  0.46630  1.0000
  C   C5        1.0  0.56570  0.48140  0.59020  1.0000
  C   C6        1.0  0.93430  0.51860  0.09020  1.0000
  C   C7        1.0  0.43430  0.98140  0.90980  1.0000
  C   C8        1.0  0.06570  0.01860  0.40980  1.0000
  C   C9        1.0  0.51200  0.51990  0.65570  1.0000
  C   C10       1.0  0.98800  0.48010  0.15570  1.0000
  C   C11       1.0  0.48800  0.01990  0.84430  1.0000
  C   C12       1.0  0.01200  0.98010  0.34430  1.0000
  H   H1        1.0  0.41190  0.50160  0.66760  1.0000
  H   H2        1.0  0.08810  0.49840  0.16760  1.0000
  H   H3        1.0  0.58810  0.00160  0.83240  1.0000
  H   H4        1.0  0.91190  0.99840  0.33240  1.0000
  C   C13       1.0  0.50050  0.60080  0.63460  1.0000
  C   C14       1.0  0.99950  0.39920  0.13460  1.0000
  C   C15       1.0  0.49950  0.10080  0.86540  1.0000
  C   C16       1.0  0.00050  0.89920  0.36540  1.0000
  H   H5        1.0  0.42600  0.62620  0.66250  1.0000
  H   H6        1.0  0.07400  0.37380  0.16250  1.0000
  H   H7        1.0  0.57400  0.12620  0.83750  1.0000
  H   H8        1.0  0.92600  0.87380  0.33750  1.0000
  H   H9        1.0  0.59610  0.62550  0.64040  1.0000
  H   H10       1.0  0.90390  0.37450  0.14040  1.0000
  H   H11       1.0  0.40390  0.12550  0.85960  1.0000
  H   H12       1.0  0.09610  0.87450  0.35960  1.0000
  C   C17       1.0  0.45550  0.59940  0.55960  1.0000
  C   C18       1.0  0.04450  0.40060  0.05960  1.0000
  C   C19       1.0  0.54450  0.09940  0.94040  1.0000
  C   C20       1.0  0.95550  0.90060  0.44040  1.0000
  H   H13       1.0  0.52020  0.63150  0.53260  1.0000
  H   H14       1.0  0.97980  0.36850  0.03260  1.0000
  H   H15       1.0  0.47980  0.13150  0.96740  1.0000
  H   H16       1.0  0.02020  0.86850  0.46740  1.0000
  H   H17       1.0  0.35320  0.61660  0.55460  1.0000
  H   H18       1.0  0.14680  0.38340  0.05460  1.0000
  H   H19       1.0  0.64680  0.11660  0.94540  1.0000
  H   H20       1.0  0.85320  0.88340  0.44540  1.0000
  C   C21       1.0  0.54660  0.51440  0.46430  1.0000
  C   C22       1.0  0.95340  0.48560  0.96430  1.0000
  C   C23       1.0  0.45340  0.01440  0.03570  1.0000
  C   C24       1.0  0.04660  0.98560  0.53570  1.0000
  C   C25       1.0  0.61230  0.51010  0.71700  1.0000
  C   C26       1.0  0.88770  0.48990  0.21700  1.0000
  C   C27       1.0  0.38770  0.01010  0.78300  1.0000
  C   C28       1.0  0.11230  0.98990  0.28300  1.0000
  C   C29       1.0  0.31590  0.48720  0.52790  1.0000
  C   C30       1.0  0.18410  0.51280  0.02790  1.0000
  C   C31       1.0  0.68410  0.98720  0.97210  1.0000
  C   C32       1.0  0.81590  0.01280  0.47210  1.0000
  H   H21       1.0  0.25660  0.51640  0.49660  1.0000
  H   H22       1.0  0.24340  0.48360  0.99660  1.0000
  H   H23       1.0  0.74340  0.01640  0.00340  1.0000
  H   H24       1.0  0.75660  0.98360  0.50340  1.0000
  H   H25       1.0  0.26950  0.48650  0.57300  1.0000
  H   H26       1.0  0.23050  0.51350  0.07300  1.0000
  H   H27       1.0  0.73050  0.98650  0.92700  1.0000
  H   H28       1.0  0.76950  0.01350  0.42700  1.0000
  H   H29       1.0  0.32330  0.43770  0.51040  1.0000
  H   H30       1.0  0.17670  0.56230  0.01040  1.0000
  H   H31       1.0  0.67670  0.93770  0.98960  1.0000
  H   H32       1.0  0.82330  0.06230  0.48960  1.0000
  C   C33       1.0  0.73010  0.49900  0.57810  1.0000
  C   C34       1.0  0.76990  0.50100  0.07810  1.0000
  C   C35       1.0  0.26990  0.99900  0.92190  1.0000
  C   C36       1.0  0.23010  0.00100  0.42190  1.0000
  H   H33       1.0  0.78840  0.48060  0.61630  1.0000
  H   H34       1.0  0.71160  0.51940  0.11630  1.0000
  H   H35       1.0  0.21160  0.98060  0.88370  1.0000
  H   H36       1.0  0.28840  0.01940  0.38370  1.0000
  H   H37       1.0  0.74280  0.55150  0.57460  1.0000
  H   H38       1.0  0.75720  0.44850  0.07460  1.0000
  H   H39       1.0  0.25720  0.05150  0.92540  1.0000
  H   H40       1.0  0.24280  0.94850  0.42540  1.0000
  H   H41       1.0  0.76280  0.47610  0.53560  1.0000
  H   H42       1.0  0.73720  0.52390  0.03560  1.0000
  H   H43       1.0  0.23720  0.97610  0.96440  1.0000
  H   H44       1.0  0.26280  0.02390  0.46440  1.0000
  C   C37       1.0  0.54330  0.40100  0.59410  1.0000
  C   C38       1.0  0.95670  0.59900  0.09410  1.0000
  C   C39       1.0  0.45670  0.90100  0.90590  1.0000
  C   C40       1.0  0.04330  0.09900  0.40590  1.0000
  H   H45       1.0  0.61750  0.37970  0.62420  1.0000
  H   H46       1.0  0.88250  0.62030  0.12420  1.0000
  H   H47       1.0  0.38250  0.87970  0.87580  1.0000
  H   H48       1.0  0.11750  0.12030  0.37580  1.0000
  H   H49       1.0  0.55250  0.38000  0.54830  1.0000
  H   H50       1.0  0.94750  0.62000  0.04830  1.0000
  H   H51       1.0  0.44750  0.88000  0.95170  1.0000
  H   H52       1.0  0.05250  0.12000  0.45170  1.0000
  H   H53       1.0  0.44530  0.39070  0.61220  1.0000
  H   H54       1.0  0.05470  0.60930  0.11220  1.0000
  H   H55       1.0  0.55470  0.89070  0.88780  1.0000
  H   H56       1.0  0.94530  0.10930  0.38780  1.0000
  C   C41       1.0  0.79870  0.33230  0.36400  1.0000
  C   C42       1.0  0.70130  0.66770  0.86400  1.0000
  C   C43       1.0  0.20130  0.83230  0.13600  1.0000
  C   C44       1.0  0.29870  0.16770  0.63600  1.0000
  H   H57       1.0  0.89180  0.35440  0.37010  1.0000
  H   H58       1.0  0.60820  0.64560  0.87010  1.0000
  H   H59       1.0  0.10820  0.85440  0.12990  1.0000
  H   H60       1.0  0.39180  0.14560  0.62990  1.0000
  C   C45       1.0  0.79030  0.67270  0.36380  1.0000
  C   C46       1.0  0.70970  0.32730  0.86380  1.0000
  C   C47       1.0  0.20970  0.17270  0.13620  1.0000
  C   C48       1.0  0.29030  0.82730  0.63620  1.0000
  H   H61       1.0  0.87190  0.64970  0.38470  1.0000
  H   H62       1.0  0.62810  0.35030  0.88470  1.0000
  H   H63       1.0  0.12810  0.14970  0.11530  1.0000
  H   H64       1.0  0.37190  0.85030  0.61530  1.0000
