data_image0
_chemical_formula_structural       Sn4S4O20C76H124
_chemical_formula_sum              "Sn4 S4 O20 C76 H124"
_cell_length_a       14.445
_cell_length_b       14.904
_cell_length_c       16.723
_cell_angle_alpha    90
_cell_angle_beta     101.09
_cell_angle_gamma    90

_space_group_name_H-M_alt    "P 1"
_space_group_IT_number       1

loop_
  _space_group_symop_operation_xyz
  'x, y, z'

loop_
  _atom_site_type_symbol
  _atom_site_label
  _atom_site_symmetry_multiplicity
  _atom_site_fract_x
  _atom_site_fract_y
  _atom_site_fract_z
  _atom_site_occupancy
  Sn  Sn1       1.0  0.27229  0.64342  0.35551  1.0000
  Sn  Sn2       1.0  0.22771  0.14342  0.14449  1.0000
  Sn  Sn3       1.0  0.72771  0.35658  0.64449  1.0000
  Sn  Sn4       1.0  0.77229  0.85658  0.85551  1.0000
  S   S1        1.0  0.12300  0.37090  0.14530  1.0000
  S   S2        1.0  0.37700  0.87090  0.35470  1.0000
  S   S3        1.0  0.87700  0.62910  0.85470  1.0000
  S   S4        1.0  0.62300  0.12910  0.64530  1.0000
  O   O1        1.0  0.18850  0.52190  0.34850  1.0000
  O   O2        1.0  0.31150  0.02190  0.15150  1.0000
  O   O3        1.0  0.81150  0.47810  0.65150  1.0000
  O   O4        1.0  0.68850  0.97810  0.84850  1.0000
  O   O5        1.0  0.10710  0.56860  0.22780  1.0000
  O   O6        1.0  0.39290  0.06860  0.27220  1.0000
  O   O7        1.0  0.89290  0.43140  0.77220  1.0000
  O   O8        1.0  0.60710  0.93140  0.72780  1.0000
  O   O9        1.0  0.21480  0.39760  0.18770  1.0000
  O   O10       1.0  0.28520  0.89760  0.31230  1.0000
  O   O11       1.0  0.78520  0.60240  0.81230  1.0000
  O   O12       1.0  0.71480  0.10240  0.68770  1.0000
  O   O13       1.0  0.07970  0.43420  0.08230  1.0000
  O   O14       1.0  0.42030  0.93420  0.41770  1.0000
  O   O15       1.0  0.92030  0.56580  0.91770  1.0000
  O   O16       1.0  0.57970  0.06580  0.58230  1.0000
  O   O17       1.0  0.11670  0.27930  0.11250  1.0000
  O   O18       1.0  0.38330  0.77930  0.38750  1.0000
  O   O19       1.0  0.88330  0.72070  0.88750  1.0000
  O   O20       1.0  0.61670  0.22070  0.61250  1.0000
  C   C1        1.0  0.12410  0.51350  0.28350  1.0000
  C   C2        1.0  0.37590  0.01350  0.21650  1.0000
  C   C3        1.0  0.87590  0.48650  0.71650  1.0000
  C   C4        1.0  0.62410  0.98650  0.78350  1.0000
  C   C5        1.0  0.06070  0.43350  0.28270  1.0000
  C   C6        1.0  0.43930  0.93350  0.21730  1.0000
  C   C7        1.0  0.93930  0.56650  0.71730  1.0000
  C   C8        1.0  0.56070  0.06650  0.78270  1.0000
  C   C9        1.0  0.05090  0.36850  0.21930  1.0000
  C   C10       1.0  0.44910  0.86850  0.28070  1.0000
  C   C11       1.0  0.94910  0.63150  0.78070  1.0000
  C   C12       1.0  0.55090  0.13150  0.71930  1.0000
  C   C13       1.0  0.98240  0.30180  0.21570  1.0000
  C   C14       1.0  0.51760  0.80180  0.28430  1.0000
  C   C15       1.0  0.01760  0.69820  0.78430  1.0000
  C   C16       1.0  0.48240  0.19820  0.71570  1.0000
  C   C17       1.0  0.92630  0.29940  0.27340  1.0000
  C   C18       1.0  0.57370  0.79940  0.22660  1.0000
  C   C19       1.0  0.07370  0.70060  0.72660  1.0000
  C   C20       1.0  0.42630  0.20060  0.77340  1.0000
  C   C21       1.0  0.93700  0.36030  0.33650  1.0000
  C   C22       1.0  0.56300  0.86030  0.16350  1.0000
  C   C23       1.0  0.06300  0.63970  0.66350  1.0000
  C   C24       1.0  0.43700  0.13970  0.83650  1.0000
  C   C25       1.0  0.00470  0.42590  0.33980  1.0000
  C   C26       1.0  0.49530  0.92590  0.16020  1.0000
  C   C27       1.0  0.99530  0.57410  0.66020  1.0000
  C   C28       1.0  0.50470  0.07410  0.83980  1.0000
  C   C29       1.0  0.36470  0.58860  0.46070  1.0000
  C   C30       1.0  0.13530  0.08860  0.03930  1.0000
  C   C31       1.0  0.63530  0.41140  0.53930  1.0000
  C   C32       1.0  0.86470  0.91140  0.96070  1.0000
  C   C33       1.0  0.31100  0.55580  0.52610  1.0000
  C   C34       1.0  0.18900  0.05580  0.97390  1.0000
  C   C35       1.0  0.68900  0.44420  0.47390  1.0000
  C   C36       1.0  0.81100  0.94420  0.02610  1.0000
  C   C37       1.0  0.37670  0.51050  0.59670  1.0000
  C   C38       1.0  0.12330  0.01050  0.90330  1.0000
  C   C39       1.0  0.62330  0.48950  0.40330  1.0000
  C   C40       1.0  0.87670  0.98950  0.09670  1.0000
  C   C41       1.0  0.32070  0.47460  0.65970  1.0000
  C   C42       1.0  0.17930  0.97460  0.84030  1.0000
  C   C43       1.0  0.67930  0.52540  0.34030  1.0000
  C   C44       1.0  0.82070  0.02540  0.15970  1.0000
  C   C45       1.0  0.32370  0.63290  0.24270  1.0000
  C   C46       1.0  0.17630  0.13290  0.25730  1.0000
  C   C47       1.0  0.67630  0.36710  0.75730  1.0000
  C   C48       1.0  0.82370  0.86710  0.74270  1.0000
  C   C49       1.0  0.40260  0.56620  0.24650  1.0000
  C   C50       1.0  0.09740  0.06620  0.25350  1.0000
  C   C51       1.0  0.59740  0.43380  0.75350  1.0000
  C   C52       1.0  0.90260  0.93380  0.74650  1.0000
  C   C53       1.0  0.44400  0.56150  0.17100  1.0000
  C   C54       1.0  0.05600  0.06150  0.32900  1.0000
  C   C55       1.0  0.55600  0.43850  0.82900  1.0000
  C   C56       1.0  0.94400  0.93850  0.67100  1.0000
  C   C57       1.0  0.38010  0.53360  0.09670  1.0000
  C   C58       1.0  0.11990  0.03360  0.40330  1.0000
  C   C59       1.0  0.61990  0.46640  0.90330  1.0000
  C   C60       1.0  0.88010  0.96640  0.59670  1.0000
  C   C61       1.0  0.16480  0.73450  0.37620  1.0000
  C   C62       1.0  0.33520  0.23450  0.12380  1.0000
  C   C63       1.0  0.83520  0.26550  0.62380  1.0000
  C   C64       1.0  0.66480  0.76550  0.87620  1.0000
  C   C65       1.0  0.07620  0.69380  0.39710  1.0000
  C   C66       1.0  0.42380  0.19380  0.10290  1.0000
  C   C67       1.0  0.92380  0.30620  0.60290  1.0000
  C   C68       1.0  0.57620  0.80620  0.89710  1.0000
  C   C69       1.0  0.00530  0.76670  0.41200  1.0000
  C   C70       1.0  0.49470  0.26670  0.08800  1.0000
  C   C71       1.0  0.99470  0.23330  0.58800  1.0000
  C   C72       1.0  0.50530  0.73330  0.91200  1.0000
  C   C73       1.0  0.91860  0.72640  0.42470  1.0000
  C   C74       1.0  0.58140  0.22640  0.07530  1.0000
  C   C75       1.0  0.08140  0.27360  0.57530  1.0000
  C   C76       1.0  0.41860  0.77360  0.92470  1.0000
  H   H1        1.0  0.97400  0.25730  0.17260  1.0000
  H   H2        1.0  0.52600  0.75730  0.32740  1.0000
  H   H3        1.0  0.02600  0.74270  0.82740  1.0000
  H   H4        1.0  0.47400  0.24270  0.67260  1.0000
  H   H5        1.0  0.87750  0.25390  0.26960  1.0000
  H   H6        1.0  0.62250  0.75390  0.23040  1.0000
  H   H7        1.0  0.12250  0.74610  0.73040  1.0000
  H   H8        1.0  0.37750  0.24610  0.76960  1.0000
  H   H9        1.0  0.89800  0.35720  0.37730  1.0000
  H   H10       1.0  0.60200  0.85720  0.12270  1.0000
  H   H11       1.0  0.10200  0.64280  0.62270  1.0000
  H   H12       1.0  0.39800  0.14280  0.87730  1.0000
  H   H13       1.0  0.01370  0.46860  0.38430  1.0000
  H   H14       1.0  0.48630  0.96860  0.11570  1.0000
  H   H15       1.0  0.98630  0.53140  0.61570  1.0000
  H   H16       1.0  0.51370  0.03140  0.88430  1.0000
  H   H17       1.0  0.40850  0.63490  0.48440  1.0000
  H   H18       1.0  0.09150  0.13490  0.01560  1.0000
  H   H19       1.0  0.59150  0.36510  0.51560  1.0000
  H   H20       1.0  0.90850  0.86510  0.98440  1.0000
  H   H21       1.0  0.39850  0.53860  0.44350  1.0000
  H   H22       1.0  0.10150  0.03860  0.05650  1.0000
  H   H23       1.0  0.60150  0.46140  0.55650  1.0000
  H   H24       1.0  0.89850  0.96140  0.94350  1.0000
  H   H25       1.0  0.26380  0.51320  0.50150  1.0000
  H   H26       1.0  0.23620  0.01320  0.99850  1.0000
  H   H27       1.0  0.73620  0.48680  0.49850  1.0000
  H   H28       1.0  0.76380  0.98680  0.00150  1.0000
  H   H29       1.0  0.28140  0.60690  0.54660  1.0000
  H   H30       1.0  0.21860  0.10690  0.95340  1.0000
  H   H31       1.0  0.71860  0.39310  0.45340  1.0000
  H   H32       1.0  0.78140  0.89310  0.04660  1.0000
  H   H33       1.0  0.40880  0.46100  0.57610  1.0000
  H   H34       1.0  0.09120  0.96100  0.92390  1.0000
  H   H35       1.0  0.59120  0.53900  0.42390  1.0000
  H   H36       1.0  0.90880  0.03900  0.07610  1.0000
  H   H37       1.0  0.42280  0.55390  0.62290  1.0000
  H   H38       1.0  0.07720  0.05390  0.87710  1.0000
  H   H39       1.0  0.57720  0.44610  0.37710  1.0000
  H   H40       1.0  0.92280  0.94610  0.12290  1.0000
  H   H41       1.0  0.36420  0.44620  0.70390  1.0000
  H   H42       1.0  0.13580  0.94620  0.79610  1.0000
  H   H43       1.0  0.63580  0.55380  0.29610  1.0000
  H   H44       1.0  0.86420  0.05380  0.20390  1.0000
  H   H45       1.0  0.27520  0.43110  0.63350  1.0000
  H   H46       1.0  0.22480  0.93110  0.86650  1.0000
  H   H47       1.0  0.72480  0.56890  0.36650  1.0000
  H   H48       1.0  0.77520  0.06890  0.13350  1.0000
  H   H49       1.0  0.28920  0.52390  0.68030  1.0000
  H   H50       1.0  0.21080  0.02390  0.81970  1.0000
  H   H51       1.0  0.71080  0.47610  0.31970  1.0000
  H   H52       1.0  0.78920  0.97610  0.18030  1.0000
  H   H53       1.0  0.34650  0.69120  0.23030  1.0000
  H   H54       1.0  0.15350  0.19120  0.26970  1.0000
  H   H55       1.0  0.65350  0.30880  0.76970  1.0000
  H   H56       1.0  0.84650  0.80880  0.73030  1.0000
  H   H57       1.0  0.27180  0.61470  0.20030  1.0000
  H   H58       1.0  0.22820  0.11470  0.29970  1.0000
  H   H59       1.0  0.72820  0.38530  0.79970  1.0000
  H   H60       1.0  0.77180  0.88530  0.70030  1.0000
  H   H61       1.0  0.37790  0.50740  0.25590  1.0000
  H   H62       1.0  0.12210  0.00740  0.24410  1.0000
  H   H63       1.0  0.62210  0.49260  0.74410  1.0000
  H   H64       1.0  0.87790  0.99260  0.75590  1.0000
  H   H65       1.0  0.45220  0.58240  0.29160  1.0000
  H   H66       1.0  0.04780  0.08240  0.20840  1.0000
  H   H67       1.0  0.54780  0.41760  0.70840  1.0000
  H   H68       1.0  0.95220  0.91760  0.79160  1.0000
  H   H69       1.0  0.49570  0.51920  0.18130  1.0000
  H   H70       1.0  0.00430  0.01920  0.31870  1.0000
  H   H71       1.0  0.50430  0.48080  0.81870  1.0000
  H   H72       1.0  0.99570  0.98080  0.68130  1.0000
  H   H73       1.0  0.46710  0.62060  0.16170  1.0000
  H   H74       1.0  0.03290  0.12060  0.33830  1.0000
  H   H75       1.0  0.53290  0.37940  0.83830  1.0000
  H   H76       1.0  0.96710  0.87940  0.66170  1.0000
  H   H77       1.0  0.41420  0.53290  0.05210  1.0000
  H   H78       1.0  0.08580  0.03290  0.44790  1.0000
  H   H79       1.0  0.58580  0.46710  0.94790  1.0000
  H   H80       1.0  0.91420  0.96710  0.55210  1.0000
  H   H81       1.0  0.32800  0.57530  0.08480  1.0000
  H   H82       1.0  0.17200  0.07530  0.41520  1.0000
  H   H83       1.0  0.67200  0.42470  0.91520  1.0000
  H   H84       1.0  0.82800  0.92470  0.58480  1.0000
  H   H85       1.0  0.35660  0.47390  0.10440  1.0000
  H   H86       1.0  0.14340  0.97390  0.39560  1.0000
  H   H87       1.0  0.64340  0.52610  0.89560  1.0000
  H   H88       1.0  0.85660  0.02610  0.60440  1.0000
  H   H89       1.0  0.14570  0.76920  0.32700  1.0000
  H   H90       1.0  0.35430  0.26920  0.17300  1.0000
  H   H91       1.0  0.85430  0.23080  0.67300  1.0000
  H   H92       1.0  0.64570  0.73080  0.82700  1.0000
  H   H93       1.0  0.19250  0.77340  0.42070  1.0000
  H   H94       1.0  0.30750  0.27340  0.07930  1.0000
  H   H95       1.0  0.80750  0.22660  0.57930  1.0000
  H   H96       1.0  0.69250  0.72660  0.92070  1.0000
  H   H97       1.0  0.04750  0.65410  0.35360  1.0000
  H   H98       1.0  0.45250  0.15410  0.14640  1.0000
  H   H99       1.0  0.95250  0.34590  0.64640  1.0000
  H   H100      1.0  0.54750  0.84590  0.85360  1.0000
  H   H101      1.0  0.09340  0.66030  0.44740  1.0000
  H   H102      1.0  0.40660  0.16030  0.05260  1.0000
  H   H103      1.0  0.90660  0.33970  0.55260  1.0000
  H   H104      1.0  0.59340  0.83970  0.94740  1.0000
  H   H105      1.0  0.98890  0.80170  0.36160  1.0000
  H   H106      1.0  0.51110  0.30170  0.13840  1.0000
  H   H107      1.0  0.01110  0.19830  0.63840  1.0000
  H   H108      1.0  0.48890  0.69830  0.86160  1.0000
  H   H109      1.0  0.03250  0.80570  0.45600  1.0000
  H   H110      1.0  0.46750  0.30570  0.04400  1.0000
  H   H111      1.0  0.96750  0.19430  0.54400  1.0000
  H   H112      1.0  0.53250  0.69430  0.95600  1.0000
  H   H113      1.0  0.87340  0.77210  0.43300  1.0000
  H   H114      1.0  0.62660  0.27210  0.06700  1.0000
  H   H115      1.0  0.12660  0.22790  0.56700  1.0000
  H   H116      1.0  0.37340  0.72790  0.93300  1.0000
  H   H117      1.0  0.93560  0.69150  0.47530  1.0000
  H   H118      1.0  0.56440  0.19150  0.02470  1.0000
  H   H119      1.0  0.06440  0.30850  0.52470  1.0000
  H   H120      1.0  0.43560  0.80850  0.97530  1.0000
  H   H121      1.0  0.89200  0.68750  0.38090  1.0000
  H   H122      1.0  0.60800  0.18750  0.11910  1.0000
  H   H123      1.0  0.10800  0.31250  0.61910  1.0000
  H   H124      1.0  0.39200  0.81250  0.88090  1.0000
