data_image0
_chemical_formula_structural       Cd24O16C16O16N16C16O32C48H16C64H16C16H16C16H16C16H16C16H16C32H16C16H16C16H16C16H16C16H16C16H16O32C32O16C16O16C16H16C16H16
_chemical_formula_sum              "Cd24 O128 C400 N16 H224"
_cell_length_a       35.4231
_cell_length_b       27.2363
_cell_length_c       23.8741
_cell_angle_alpha    90
_cell_angle_beta     90
_cell_angle_gamma    90

_space_group_name_H-M_alt    "P 1"
_space_group_IT_number       1

loop_
  _space_group_symop_operation_xyz
  'x, y, z'

loop_
  _atom_site_type_symbol
  _atom_site_label
  _atom_site_symmetry_multiplicity
  _atom_site_fract_x
  _atom_site_fract_y
  _atom_site_fract_z
  _atom_site_occupancy
  Cd  Cd1       1.0  0.15763  0.11298  0.20645  1.0000
  Cd  Cd2       1.0  0.84237  0.38702  0.70645  1.0000
  Cd  Cd3       1.0  0.15763  0.88702  0.79355  1.0000
  Cd  Cd4       1.0  0.34237  0.11298  0.29355  1.0000
  Cd  Cd5       1.0  0.65763  0.61298  0.20645  1.0000
  Cd  Cd6       1.0  0.34237  0.88702  0.70645  1.0000
  Cd  Cd7       1.0  0.65763  0.38702  0.79355  1.0000
  Cd  Cd8       1.0  0.84237  0.61298  0.29355  1.0000
  Cd  Cd9       1.0  0.84237  0.88702  0.79355  1.0000
  Cd  Cd10      1.0  0.15763  0.61298  0.29355  1.0000
  Cd  Cd11      1.0  0.84237  0.11298  0.20645  1.0000
  Cd  Cd12      1.0  0.65763  0.88702  0.70645  1.0000
  Cd  Cd13      1.0  0.34237  0.38702  0.79355  1.0000
  Cd  Cd14      1.0  0.65763  0.11298  0.29355  1.0000
  Cd  Cd15      1.0  0.34237  0.61298  0.20645  1.0000
  Cd  Cd16      1.0  0.15763  0.38702  0.70645  1.0000
  Cd  Cd17      1.0  0.25000  0.13449  0.25000  1.0000
  Cd  Cd18      1.0  0.75000  0.36551  0.75000  1.0000
  Cd  Cd19      1.0  0.25000  0.86551  0.75000  1.0000
  Cd  Cd20      1.0  0.75000  0.63449  0.25000  1.0000
  Cd  Cd21      1.0  0.75000  0.86551  0.75000  1.0000
  Cd  Cd22      1.0  0.25000  0.63449  0.25000  1.0000
  Cd  Cd23      1.0  0.75000  0.13449  0.25000  1.0000
  Cd  Cd24      1.0  0.25000  0.36551  0.75000  1.0000
  O   O1        1.0  0.18957  0.13379  0.28568  1.0000
  O   O2        1.0  0.81043  0.36621  0.78568  1.0000
  O   O3        1.0  0.18957  0.86621  0.71432  1.0000
  O   O4        1.0  0.31043  0.13379  0.21432  1.0000
  O   O5        1.0  0.68957  0.63379  0.28568  1.0000
  O   O6        1.0  0.31043  0.86621  0.78568  1.0000
  O   O7        1.0  0.68957  0.36621  0.71432  1.0000
  O   O8        1.0  0.81043  0.63379  0.21432  1.0000
  O   O9        1.0  0.81043  0.86621  0.71432  1.0000
  O   O10       1.0  0.18957  0.63379  0.21432  1.0000
  O   O11       1.0  0.81043  0.13379  0.28568  1.0000
  O   O12       1.0  0.68957  0.86621  0.78568  1.0000
  O   O13       1.0  0.31043  0.36621  0.71432  1.0000
  O   O14       1.0  0.68957  0.13379  0.21432  1.0000
  O   O15       1.0  0.31043  0.63379  0.28568  1.0000
  O   O16       1.0  0.18957  0.36621  0.78568  1.0000
  C   C1        1.0  0.20202  0.29588  0.66404  1.0000
  C   C2        1.0  0.79798  0.20412  0.16404  1.0000
  C   C3        1.0  0.20202  0.70412  0.33596  1.0000
  C   C4        1.0  0.29798  0.29588  0.83596  1.0000
  C   C5        1.0  0.70202  0.79588  0.66404  1.0000
  C   C6        1.0  0.29798  0.70412  0.16404  1.0000
  C   C7        1.0  0.70202  0.20412  0.33596  1.0000
  C   C8        1.0  0.79798  0.79588  0.83596  1.0000
  C   C9        1.0  0.79798  0.70412  0.33596  1.0000
  C   C10       1.0  0.20202  0.79588  0.83596  1.0000
  C   C11       1.0  0.79798  0.29588  0.66404  1.0000
  C   C12       1.0  0.70202  0.70412  0.16404  1.0000
  C   C13       1.0  0.29798  0.20412  0.33596  1.0000
  C   C14       1.0  0.70202  0.29588  0.83596  1.0000
  C   C15       1.0  0.29798  0.79588  0.66404  1.0000
  C   C16       1.0  0.20202  0.20412  0.16404  1.0000
  O   O17       1.0  0.15680  0.06701  0.30040  1.0000
  O   O18       1.0  0.84320  0.43299  0.80040  1.0000
  O   O19       1.0  0.15680  0.93299  0.69960  1.0000
  O   O20       1.0  0.34320  0.06701  0.19960  1.0000
  O   O21       1.0  0.65680  0.56701  0.30040  1.0000
  O   O22       1.0  0.34320  0.93299  0.80040  1.0000
  O   O23       1.0  0.65680  0.43299  0.69960  1.0000
  O   O24       1.0  0.84320  0.56701  0.19960  1.0000
  O   O25       1.0  0.84320  0.93299  0.69960  1.0000
  O   O26       1.0  0.15680  0.56701  0.19960  1.0000
  O   O27       1.0  0.84320  0.06701  0.30040  1.0000
  O   O28       1.0  0.65680  0.93299  0.80040  1.0000
  O   O29       1.0  0.34320  0.43299  0.69960  1.0000
  O   O30       1.0  0.65680  0.06701  0.19960  1.0000
  O   O31       1.0  0.34320  0.56701  0.30040  1.0000
  O   O32       1.0  0.15680  0.43299  0.80040  1.0000
  N   N1        1.0  0.21431  0.11245  0.54883  1.0000
  N   N2        1.0  0.78569  0.38755  0.04883  1.0000
  N   N3        1.0  0.21431  0.88755  0.45117  1.0000
  N   N4        1.0  0.28569  0.11245  0.95117  1.0000
  N   N5        1.0  0.71431  0.61245  0.54883  1.0000
  N   N6        1.0  0.28569  0.88755  0.04883  1.0000
  N   N7        1.0  0.71431  0.38755  0.45117  1.0000
  N   N8        1.0  0.78569  0.61245  0.95117  1.0000
  N   N9        1.0  0.78569  0.88755  0.45117  1.0000
  N   N10       1.0  0.21431  0.61245  0.95117  1.0000
  N   N11       1.0  0.78569  0.11245  0.54883  1.0000
  N   N12       1.0  0.71431  0.88755  0.04883  1.0000
  N   N13       1.0  0.28569  0.38755  0.45117  1.0000
  N   N14       1.0  0.71431  0.11245  0.95117  1.0000
  N   N15       1.0  0.28569  0.61245  0.54883  1.0000
  N   N16       1.0  0.21431  0.38755  0.04883  1.0000
  C   C17       1.0  0.20495  0.24773  0.63363  1.0000
  C   C18       1.0  0.79505  0.25227  0.13363  1.0000
  C   C19       1.0  0.20495  0.75227  0.36637  1.0000
  C   C20       1.0  0.29505  0.24773  0.86637  1.0000
  C   C21       1.0  0.70495  0.74773  0.63363  1.0000
  C   C22       1.0  0.29505  0.75227  0.13363  1.0000
  C   C23       1.0  0.70495  0.25227  0.36637  1.0000
  C   C24       1.0  0.79505  0.74773  0.86637  1.0000
  C   C25       1.0  0.79505  0.75227  0.36637  1.0000
  C   C26       1.0  0.20495  0.74773  0.86637  1.0000
  C   C27       1.0  0.79505  0.24773  0.63363  1.0000
  C   C28       1.0  0.70495  0.75227  0.13363  1.0000
  C   C29       1.0  0.29505  0.25227  0.36637  1.0000
  C   C30       1.0  0.70495  0.24773  0.86637  1.0000
  C   C31       1.0  0.29505  0.74773  0.63363  1.0000
  C   C32       1.0  0.20495  0.25227  0.13363  1.0000
  O   O33       1.0  0.31892  0.94292  0.64889  1.0000
  O   O34       1.0  0.68108  0.55708  0.14889  1.0000
  O   O35       1.0  0.31892  0.05708  0.35111  1.0000
  O   O36       1.0  0.18108  0.94292  0.85111  1.0000
  O   O37       1.0  0.81892  0.44292  0.64889  1.0000
  O   O38       1.0  0.18108  0.05708  0.14889  1.0000
  O   O39       1.0  0.81892  0.55708  0.35111  1.0000
  O   O40       1.0  0.68108  0.44292  0.85111  1.0000
  O   O41       1.0  0.68108  0.05708  0.35111  1.0000
  O   O42       1.0  0.31892  0.44292  0.85111  1.0000
  O   O43       1.0  0.68108  0.94292  0.64889  1.0000
  O   O44       1.0  0.81892  0.05708  0.14889  1.0000
  O   O45       1.0  0.18108  0.55708  0.35111  1.0000
  O   O46       1.0  0.81892  0.94292  0.85111  1.0000
  O   O47       1.0  0.18108  0.44292  0.64889  1.0000
  O   O48       1.0  0.31892  0.55708  0.14889  1.0000
  O   O49       1.0  0.17208  0.31944  0.65965  1.0000
  O   O50       1.0  0.82792  0.18056  0.15965  1.0000
  O   O51       1.0  0.17208  0.68056  0.34035  1.0000
  O   O52       1.0  0.32792  0.31944  0.84035  1.0000
  O   O53       1.0  0.67208  0.81944  0.65965  1.0000
  O   O54       1.0  0.32792  0.68056  0.15965  1.0000
  O   O55       1.0  0.67208  0.18056  0.34035  1.0000
  O   O56       1.0  0.82792  0.81944  0.84035  1.0000
  O   O57       1.0  0.82792  0.68056  0.34035  1.0000
  O   O58       1.0  0.17208  0.81944  0.84035  1.0000
  O   O59       1.0  0.82792  0.31944  0.65965  1.0000
  O   O60       1.0  0.67208  0.68056  0.15965  1.0000
  O   O61       1.0  0.32792  0.18056  0.34035  1.0000
  O   O62       1.0  0.67208  0.31944  0.84035  1.0000
  O   O63       1.0  0.32792  0.81944  0.65965  1.0000
  O   O64       1.0  0.17208  0.18056  0.15965  1.0000
  C   C33       1.0  0.18813  0.10316  0.37887  1.0000
  C   C34       1.0  0.81187  0.39684  0.87887  1.0000
  C   C35       1.0  0.18813  0.89684  0.62113  1.0000
  C   C36       1.0  0.31187  0.10316  0.12113  1.0000
  C   C37       1.0  0.68813  0.60316  0.37887  1.0000
  C   C38       1.0  0.31187  0.89684  0.87887  1.0000
  C   C39       1.0  0.68813  0.39684  0.62113  1.0000
  C   C40       1.0  0.81187  0.60316  0.12113  1.0000
  C   C41       1.0  0.81187  0.89684  0.62113  1.0000
  C   C42       1.0  0.18813  0.60316  0.12113  1.0000
  C   C43       1.0  0.81187  0.10316  0.37887  1.0000
  C   C44       1.0  0.68813  0.89684  0.87887  1.0000
  C   C45       1.0  0.31187  0.39684  0.62113  1.0000
  C   C46       1.0  0.68813  0.10316  0.12113  1.0000
  C   C47       1.0  0.31187  0.60316  0.37887  1.0000
  C   C48       1.0  0.18813  0.39684  0.87887  1.0000
  C   C49       1.0  0.26631  0.99387  0.63064  1.0000
  C   C50       1.0  0.73369  0.50613  0.13064  1.0000
  C   C51       1.0  0.26631  0.00613  0.36936  1.0000
  C   C52       1.0  0.23369  0.99387  0.86936  1.0000
  C   C53       1.0  0.76631  0.49387  0.63064  1.0000
  C   C54       1.0  0.23369  0.00613  0.13064  1.0000
  C   C55       1.0  0.76631  0.50613  0.36936  1.0000
  C   C56       1.0  0.73369  0.49387  0.86936  1.0000
  C   C57       1.0  0.73369  0.00613  0.36936  1.0000
  C   C58       1.0  0.26631  0.49387  0.86936  1.0000
  C   C59       1.0  0.73369  0.99387  0.63064  1.0000
  C   C60       1.0  0.76631  0.00613  0.13064  1.0000
  C   C61       1.0  0.23369  0.50613  0.36936  1.0000
  C   C62       1.0  0.76631  0.99387  0.86936  1.0000
  C   C63       1.0  0.23369  0.49387  0.63064  1.0000
  C   C64       1.0  0.26631  0.50613  0.13064  1.0000
  C   C65       1.0  0.23571  0.01677  0.65362  1.0000
  C   C66       1.0  0.76429  0.48323  0.15362  1.0000
  C   C67       1.0  0.23571  0.98323  0.34638  1.0000
  C   C68       1.0  0.26429  0.01677  0.84638  1.0000
  C   C69       1.0  0.73571  0.51677  0.65362  1.0000
  C   C70       1.0  0.26429  0.98323  0.15362  1.0000
  C   C71       1.0  0.73571  0.48323  0.34638  1.0000
  C   C72       1.0  0.76429  0.51677  0.84638  1.0000
  C   C73       1.0  0.76429  0.98323  0.34638  1.0000
  C   C74       1.0  0.23571  0.51677  0.84638  1.0000
  C   C75       1.0  0.76429  0.01677  0.65362  1.0000
  C   C76       1.0  0.73571  0.98323  0.15362  1.0000
  C   C77       1.0  0.26429  0.48323  0.34638  1.0000
  C   C78       1.0  0.73571  0.01677  0.84638  1.0000
  C   C79       1.0  0.26429  0.51677  0.65362  1.0000
  C   C80       1.0  0.23571  0.48323  0.15362  1.0000
  H   H1        1.0  0.22648  0.00588  0.68790  1.0000
  H   H2        1.0  0.77352  0.49412  0.18790  1.0000
  H   H3        1.0  0.22648  0.99412  0.31210  1.0000
  H   H4        1.0  0.27352  0.00588  0.81210  1.0000
  H   H5        1.0  0.72648  0.50588  0.68790  1.0000
  H   H6        1.0  0.27352  0.99412  0.18790  1.0000
  H   H7        1.0  0.72648  0.49412  0.31210  1.0000
  H   H8        1.0  0.77352  0.50588  0.81210  1.0000
  H   H9        1.0  0.77352  0.99412  0.31210  1.0000
  H   H10       1.0  0.22648  0.50588  0.81210  1.0000
  H   H11       1.0  0.77352  0.00588  0.68790  1.0000
  H   H12       1.0  0.72648  0.99412  0.18790  1.0000
  H   H13       1.0  0.27352  0.49412  0.31210  1.0000
  H   H14       1.0  0.72648  0.00588  0.81210  1.0000
  H   H15       1.0  0.27352  0.50588  0.68790  1.0000
  H   H16       1.0  0.22648  0.49412  0.18790  1.0000
  C   C81       1.0  0.20551  0.10915  0.49231  1.0000
  C   C82       1.0  0.79449  0.39085  0.99231  1.0000
  C   C83       1.0  0.20551  0.89085  0.50769  1.0000
  C   C84       1.0  0.29449  0.10915  0.00769  1.0000
  C   C85       1.0  0.70551  0.60915  0.49231  1.0000
  C   C86       1.0  0.29449  0.89085  0.99231  1.0000
  C   C87       1.0  0.70551  0.39085  0.50769  1.0000
  C   C88       1.0  0.79449  0.60915  0.00769  1.0000
  C   C89       1.0  0.79449  0.89085  0.50769  1.0000
  C   C90       1.0  0.20551  0.60915  0.00769  1.0000
  C   C91       1.0  0.79449  0.10915  0.49231  1.0000
  C   C92       1.0  0.70551  0.89085  0.99231  1.0000
  C   C93       1.0  0.29449  0.39085  0.50769  1.0000
  C   C94       1.0  0.70551  0.10915  0.00769  1.0000
  C   C95       1.0  0.29449  0.60915  0.49231  1.0000
  C   C96       1.0  0.20551  0.39085  0.99231  1.0000
  C   C97       1.0  0.21139  0.15796  0.57766  1.0000
  C   C98       1.0  0.78861  0.34204  0.07766  1.0000
  C   C99       1.0  0.21139  0.84204  0.42234  1.0000
  C   C100      1.0  0.28861  0.15796  0.92234  1.0000
  C   C101      1.0  0.71139  0.65796  0.57766  1.0000
  C   C102      1.0  0.28861  0.84204  0.07766  1.0000
  C   C103      1.0  0.71139  0.34204  0.42234  1.0000
  C   C104      1.0  0.78861  0.65796  0.92234  1.0000
  C   C105      1.0  0.78861  0.84204  0.42234  1.0000
  C   C106      1.0  0.21139  0.65796  0.92234  1.0000
  C   C107      1.0  0.78861  0.15796  0.57766  1.0000
  C   C108      1.0  0.71139  0.84204  0.07766  1.0000
  C   C109      1.0  0.28861  0.34204  0.42234  1.0000
  C   C110      1.0  0.71139  0.15796  0.92234  1.0000
  C   C111      1.0  0.28861  0.65796  0.57766  1.0000
  C   C112      1.0  0.21139  0.34204  0.07766  1.0000
  C   C113      1.0  0.17670  0.10029  0.31806  1.0000
  C   C114      1.0  0.82330  0.39971  0.81806  1.0000
  C   C115      1.0  0.17670  0.89971  0.68194  1.0000
  C   C116      1.0  0.32330  0.10029  0.18194  1.0000
  C   C117      1.0  0.67670  0.60029  0.31806  1.0000
  C   C118      1.0  0.32330  0.89971  0.81806  1.0000
  C   C119      1.0  0.67670  0.39971  0.68194  1.0000
  C   C120      1.0  0.82330  0.60029  0.18194  1.0000
  C   C121      1.0  0.82330  0.89971  0.68194  1.0000
  C   C122      1.0  0.17670  0.60029  0.18194  1.0000
  C   C123      1.0  0.82330  0.10029  0.31806  1.0000
  C   C124      1.0  0.67670  0.89971  0.81806  1.0000
  C   C125      1.0  0.32330  0.39971  0.68194  1.0000
  C   C126      1.0  0.67670  0.10029  0.18194  1.0000
  C   C127      1.0  0.32330  0.60029  0.31806  1.0000
  C   C128      1.0  0.17670  0.39971  0.81806  1.0000
  C   C129      1.0  0.21482  0.14712  0.45460  1.0000
  C   C130      1.0  0.78518  0.35288  0.95460  1.0000
  C   C131      1.0  0.21482  0.85288  0.54540  1.0000
  C   C132      1.0  0.28518  0.14712  0.04540  1.0000
  C   C133      1.0  0.71482  0.64712  0.45460  1.0000
  C   C134      1.0  0.28518  0.85288  0.95460  1.0000
  C   C135      1.0  0.71482  0.35288  0.54540  1.0000
  C   C136      1.0  0.78518  0.64712  0.04540  1.0000
  C   C137      1.0  0.78518  0.85288  0.54540  1.0000
  C   C138      1.0  0.21482  0.64712  0.04540  1.0000
  C   C139      1.0  0.78518  0.14712  0.45460  1.0000
  C   C140      1.0  0.71482  0.85288  0.95460  1.0000
  C   C141      1.0  0.28518  0.35288  0.54540  1.0000
  C   C142      1.0  0.71482  0.14712  0.04540  1.0000
  C   C143      1.0  0.28518  0.64712  0.45460  1.0000
  C   C144      1.0  0.21482  0.35288  0.95460  1.0000
  H   H17       1.0  0.22712  0.17504  0.46763  1.0000
  H   H18       1.0  0.77288  0.32496  0.96763  1.0000
  H   H19       1.0  0.22712  0.82496  0.53237  1.0000
  H   H20       1.0  0.27288  0.17504  0.03237  1.0000
  H   H21       1.0  0.72712  0.67504  0.46763  1.0000
  H   H22       1.0  0.27288  0.82496  0.96763  1.0000
  H   H23       1.0  0.72712  0.32496  0.53237  1.0000
  H   H24       1.0  0.77288  0.67504  0.03237  1.0000
  H   H25       1.0  0.77288  0.82496  0.53237  1.0000
  H   H26       1.0  0.22712  0.67504  0.03237  1.0000
  H   H27       1.0  0.77288  0.17504  0.46763  1.0000
  H   H28       1.0  0.72712  0.82496  0.96763  1.0000
  H   H29       1.0  0.27288  0.32496  0.53237  1.0000
  H   H30       1.0  0.72712  0.17504  0.03237  1.0000
  H   H31       1.0  0.27288  0.67504  0.46763  1.0000
  H   H32       1.0  0.22712  0.32496  0.96763  1.0000
  C   C145      1.0  0.21817  0.05556  0.62732  1.0000
  C   C146      1.0  0.78183  0.44444  0.12732  1.0000
  C   C147      1.0  0.21817  0.94444  0.37268  1.0000
  C   C148      1.0  0.28183  0.05556  0.87268  1.0000
  C   C149      1.0  0.71817  0.55556  0.62732  1.0000
  C   C150      1.0  0.28183  0.94444  0.12732  1.0000
  C   C151      1.0  0.71817  0.44444  0.37268  1.0000
  C   C152      1.0  0.78183  0.55556  0.87268  1.0000
  C   C153      1.0  0.78183  0.94444  0.37268  1.0000
  C   C154      1.0  0.21817  0.55556  0.87268  1.0000
  C   C155      1.0  0.78183  0.05556  0.62732  1.0000
  C   C156      1.0  0.71817  0.94444  0.12732  1.0000
  C   C157      1.0  0.28183  0.44444  0.37268  1.0000
  C   C158      1.0  0.71817  0.05556  0.87268  1.0000
  C   C159      1.0  0.28183  0.55556  0.62732  1.0000
  C   C160      1.0  0.21817  0.44444  0.12732  1.0000
  H   H33       1.0  0.19738  0.07066  0.64374  1.0000
  H   H34       1.0  0.80262  0.42934  0.14374  1.0000
  H   H35       1.0  0.19738  0.92934  0.35626  1.0000
  H   H36       1.0  0.30262  0.07066  0.85626  1.0000
  H   H37       1.0  0.69738  0.57066  0.64374  1.0000
  H   H38       1.0  0.30262  0.92934  0.14374  1.0000
  H   H39       1.0  0.69738  0.42934  0.35626  1.0000
  H   H40       1.0  0.80262  0.57066  0.85626  1.0000
  H   H41       1.0  0.80262  0.92934  0.35626  1.0000
  H   H42       1.0  0.19738  0.57066  0.85626  1.0000
  H   H43       1.0  0.80262  0.07066  0.64374  1.0000
  H   H44       1.0  0.69738  0.92934  0.14374  1.0000
  H   H45       1.0  0.30262  0.42934  0.35626  1.0000
  H   H46       1.0  0.69738  0.07066  0.85626  1.0000
  H   H47       1.0  0.30262  0.57066  0.64374  1.0000
  H   H48       1.0  0.19738  0.42934  0.14374  1.0000
  C   C161      1.0  0.20597  0.14326  0.39936  1.0000
  C   C162      1.0  0.79403  0.35674  0.89936  1.0000
  C   C163      1.0  0.20597  0.85674  0.60064  1.0000
  C   C164      1.0  0.29403  0.14326  0.10064  1.0000
  C   C165      1.0  0.70597  0.64326  0.39936  1.0000
  C   C166      1.0  0.29403  0.85674  0.89936  1.0000
  C   C167      1.0  0.70597  0.35674  0.60064  1.0000
  C   C168      1.0  0.79403  0.64326  0.10064  1.0000
  C   C169      1.0  0.79403  0.85674  0.60064  1.0000
  C   C170      1.0  0.20597  0.64326  0.10064  1.0000
  C   C171      1.0  0.79403  0.14326  0.39936  1.0000
  C   C172      1.0  0.70597  0.85674  0.89936  1.0000
  C   C173      1.0  0.29403  0.35674  0.60064  1.0000
  C   C174      1.0  0.70597  0.14326  0.10064  1.0000
  C   C175      1.0  0.29403  0.64326  0.39936  1.0000
  C   C176      1.0  0.20597  0.35674  0.89936  1.0000
  H   H49       1.0  0.21231  0.16871  0.37515  1.0000
  H   H50       1.0  0.78769  0.33129  0.87515  1.0000
  H   H51       1.0  0.21231  0.83129  0.62485  1.0000
  H   H52       1.0  0.28769  0.16871  0.12485  1.0000
  H   H53       1.0  0.71231  0.66871  0.37515  1.0000
  H   H54       1.0  0.28769  0.83129  0.87515  1.0000
  H   H55       1.0  0.71231  0.33129  0.62485  1.0000
  H   H56       1.0  0.78769  0.66871  0.12485  1.0000
  H   H57       1.0  0.78769  0.83129  0.62485  1.0000
  H   H58       1.0  0.21231  0.66871  0.12485  1.0000
  H   H59       1.0  0.78769  0.16871  0.37515  1.0000
  H   H60       1.0  0.71231  0.83129  0.87515  1.0000
  H   H61       1.0  0.28769  0.33129  0.62485  1.0000
  H   H62       1.0  0.71231  0.16871  0.12485  1.0000
  H   H63       1.0  0.28769  0.66871  0.37515  1.0000
  H   H64       1.0  0.21231  0.33129  0.87515  1.0000
  C   C177      1.0  0.23574  0.21683  0.64187  1.0000
  C   C178      1.0  0.76426  0.28317  0.14187  1.0000
  C   C179      1.0  0.23574  0.78317  0.35813  1.0000
  C   C180      1.0  0.26426  0.21683  0.85813  1.0000
  C   C181      1.0  0.73574  0.71683  0.64187  1.0000
  C   C182      1.0  0.26426  0.78317  0.14187  1.0000
  C   C183      1.0  0.73574  0.28317  0.35813  1.0000
  C   C184      1.0  0.76426  0.71683  0.85813  1.0000
  C   C185      1.0  0.76426  0.78317  0.35813  1.0000
  C   C186      1.0  0.23574  0.71683  0.85813  1.0000
  C   C187      1.0  0.76426  0.21683  0.64187  1.0000
  C   C188      1.0  0.73574  0.78317  0.14187  1.0000
  C   C189      1.0  0.26426  0.28317  0.35813  1.0000
  C   C190      1.0  0.73574  0.21683  0.85813  1.0000
  C   C191      1.0  0.26426  0.71683  0.64187  1.0000
  C   C192      1.0  0.23574  0.28317  0.14187  1.0000
  H   H65       1.0  0.25465  0.22637  0.66661  1.0000
  H   H66       1.0  0.74535  0.27363  0.16661  1.0000
  H   H67       1.0  0.25465  0.77363  0.33339  1.0000
  H   H68       1.0  0.24535  0.22637  0.83339  1.0000
  H   H69       1.0  0.75465  0.72637  0.66661  1.0000
  H   H70       1.0  0.24535  0.77363  0.16661  1.0000
  H   H71       1.0  0.75465  0.27363  0.33339  1.0000
  H   H72       1.0  0.74535  0.72637  0.83339  1.0000
  H   H73       1.0  0.74535  0.77363  0.33339  1.0000
  H   H74       1.0  0.25465  0.72637  0.83339  1.0000
  H   H75       1.0  0.74535  0.22637  0.66661  1.0000
  H   H76       1.0  0.75465  0.77363  0.16661  1.0000
  H   H77       1.0  0.24535  0.27363  0.33339  1.0000
  H   H78       1.0  0.75465  0.22637  0.83339  1.0000
  H   H79       1.0  0.24535  0.72637  0.66661  1.0000
  H   H80       1.0  0.25465  0.27363  0.16661  1.0000
  C   C193      1.0  0.17761  0.23232  0.59679  1.0000
  C   C194      1.0  0.82239  0.26768  0.09679  1.0000
  C   C195      1.0  0.17761  0.76768  0.40321  1.0000
  C   C196      1.0  0.32239  0.23232  0.90321  1.0000
  C   C197      1.0  0.67761  0.73232  0.59679  1.0000
  C   C198      1.0  0.32239  0.76768  0.09679  1.0000
  C   C199      1.0  0.67761  0.26768  0.40321  1.0000
  C   C200      1.0  0.82239  0.73232  0.90321  1.0000
  C   C201      1.0  0.82239  0.76768  0.40321  1.0000
  C   C202      1.0  0.17761  0.73232  0.90321  1.0000
  C   C203      1.0  0.82239  0.23232  0.59679  1.0000
  C   C204      1.0  0.67761  0.76768  0.09679  1.0000
  C   C205      1.0  0.32239  0.26768  0.40321  1.0000
  C   C206      1.0  0.67761  0.23232  0.90321  1.0000
  C   C207      1.0  0.32239  0.73232  0.59679  1.0000
  C   C208      1.0  0.17761  0.26768  0.09679  1.0000
  H   H81       1.0  0.15669  0.25217  0.59037  1.0000
  H   H82       1.0  0.84331  0.24783  0.09037  1.0000
  H   H83       1.0  0.15669  0.74783  0.40963  1.0000
  H   H84       1.0  0.34331  0.25217  0.90963  1.0000
  H   H85       1.0  0.65669  0.75217  0.59037  1.0000
  H   H86       1.0  0.34331  0.74783  0.09037  1.0000
  H   H87       1.0  0.65669  0.24783  0.40963  1.0000
  H   H88       1.0  0.84331  0.75217  0.90963  1.0000
  H   H89       1.0  0.84331  0.74783  0.40963  1.0000
  H   H90       1.0  0.15669  0.75217  0.90963  1.0000
  H   H91       1.0  0.84331  0.25217  0.59037  1.0000
  H   H92       1.0  0.65669  0.74783  0.09037  1.0000
  H   H93       1.0  0.34331  0.24783  0.40963  1.0000
  H   H94       1.0  0.65669  0.25217  0.90963  1.0000
  H   H95       1.0  0.34331  0.75217  0.59037  1.0000
  H   H96       1.0  0.15669  0.24783  0.09037  1.0000
  C   C209      1.0  0.23176  0.07190  0.57620  1.0000
  C   C210      1.0  0.76824  0.42810  0.07620  1.0000
  C   C211      1.0  0.23176  0.92810  0.42380  1.0000
  C   C212      1.0  0.26824  0.07190  0.92380  1.0000
  C   C213      1.0  0.73176  0.57190  0.57620  1.0000
  C   C214      1.0  0.26824  0.92810  0.07620  1.0000
  C   C215      1.0  0.73176  0.42810  0.42380  1.0000
  C   C216      1.0  0.76824  0.57190  0.92380  1.0000
  C   C217      1.0  0.76824  0.92810  0.42380  1.0000
  C   C218      1.0  0.23176  0.57190  0.92380  1.0000
  C   C219      1.0  0.76824  0.07190  0.57620  1.0000
  C   C220      1.0  0.73176  0.92810  0.07620  1.0000
  C   C221      1.0  0.26824  0.42810  0.42380  1.0000
  C   C222      1.0  0.73176  0.07190  0.92380  1.0000
  C   C223      1.0  0.26824  0.57190  0.57620  1.0000
  C   C224      1.0  0.23176  0.42810  0.07620  1.0000
  C   C225      1.0  0.27934  0.00964  0.57991  1.0000
  C   C226      1.0  0.72066  0.49036  0.07991  1.0000
  C   C227      1.0  0.27934  0.99036  0.42009  1.0000
  C   C228      1.0  0.22066  0.00964  0.92009  1.0000
  C   C229      1.0  0.77934  0.50964  0.57991  1.0000
  C   C230      1.0  0.22066  0.99036  0.07991  1.0000
  C   C231      1.0  0.77934  0.49036  0.42009  1.0000
  C   C232      1.0  0.72066  0.50964  0.92009  1.0000
  C   C233      1.0  0.72066  0.99036  0.42009  1.0000
  C   C234      1.0  0.27934  0.50964  0.92009  1.0000
  C   C235      1.0  0.72066  0.00964  0.57991  1.0000
  C   C236      1.0  0.77934  0.99036  0.07991  1.0000
  C   C237      1.0  0.22066  0.49036  0.42009  1.0000
  C   C238      1.0  0.77934  0.00964  0.92009  1.0000
  C   C239      1.0  0.22066  0.50964  0.57991  1.0000
  C   C240      1.0  0.27934  0.49036  0.07991  1.0000
  H   H97       1.0  0.30006  0.99432  0.56360  1.0000
  H   H98       1.0  0.69994  0.50568  0.06360  1.0000
  H   H99       1.0  0.30006  0.00568  0.43640  1.0000
  H   H100      1.0  0.19994  0.99432  0.93640  1.0000
  H   H101      1.0  0.80006  0.49432  0.56360  1.0000
  H   H102      1.0  0.19994  0.00568  0.06360  1.0000
  H   H103      1.0  0.80006  0.50568  0.43640  1.0000
  H   H104      1.0  0.69994  0.49432  0.93640  1.0000
  H   H105      1.0  0.69994  0.00568  0.43640  1.0000
  H   H106      1.0  0.30006  0.49432  0.93640  1.0000
  H   H107      1.0  0.69994  0.99432  0.56360  1.0000
  H   H108      1.0  0.80006  0.00568  0.06360  1.0000
  H   H109      1.0  0.19994  0.50568  0.43640  1.0000
  H   H110      1.0  0.80006  0.99432  0.93640  1.0000
  H   H111      1.0  0.19994  0.49432  0.56360  1.0000
  H   H112      1.0  0.30006  0.50568  0.06360  1.0000
  C   C241      1.0  0.17862  0.06520  0.41476  1.0000
  C   C242      1.0  0.82138  0.43480  0.91476  1.0000
  C   C243      1.0  0.17862  0.93480  0.58524  1.0000
  C   C244      1.0  0.32138  0.06520  0.08524  1.0000
  C   C245      1.0  0.67862  0.56520  0.41476  1.0000
  C   C246      1.0  0.32138  0.93480  0.91476  1.0000
  C   C247      1.0  0.67862  0.43480  0.58524  1.0000
  C   C248      1.0  0.82138  0.56520  0.08524  1.0000
  C   C249      1.0  0.82138  0.93480  0.58524  1.0000
  C   C250      1.0  0.17862  0.56520  0.08524  1.0000
  C   C251      1.0  0.82138  0.06520  0.41476  1.0000
  C   C252      1.0  0.67862  0.93480  0.91476  1.0000
  C   C253      1.0  0.32138  0.43480  0.58524  1.0000
  C   C254      1.0  0.67862  0.06520  0.08524  1.0000
  C   C255      1.0  0.32138  0.56520  0.41476  1.0000
  C   C256      1.0  0.17862  0.43480  0.91476  1.0000
  H   H113      1.0  0.16638  0.03743  0.40119  1.0000
  H   H114      1.0  0.83362  0.46257  0.90119  1.0000
  H   H115      1.0  0.16638  0.96257  0.59881  1.0000
  H   H116      1.0  0.33362  0.03743  0.09881  1.0000
  H   H117      1.0  0.66638  0.53743  0.40119  1.0000
  H   H118      1.0  0.33362  0.96257  0.90119  1.0000
  H   H119      1.0  0.66638  0.46257  0.59881  1.0000
  H   H120      1.0  0.83362  0.53743  0.09881  1.0000
  H   H121      1.0  0.83362  0.96257  0.59881  1.0000
  H   H122      1.0  0.16638  0.53743  0.09881  1.0000
  H   H123      1.0  0.83362  0.03743  0.40119  1.0000
  H   H124      1.0  0.66638  0.96257  0.90119  1.0000
  H   H125      1.0  0.33362  0.46257  0.59881  1.0000
  H   H126      1.0  0.66638  0.03743  0.09881  1.0000
  H   H127      1.0  0.33362  0.53743  0.40119  1.0000
  H   H128      1.0  0.16638  0.46257  0.90119  1.0000
  C   C257      1.0  0.18758  0.06900  0.47133  1.0000
  C   C258      1.0  0.81242  0.43100  0.97133  1.0000
  C   C259      1.0  0.18758  0.93100  0.52867  1.0000
  C   C260      1.0  0.31242  0.06900  0.02867  1.0000
  C   C261      1.0  0.68758  0.56900  0.47133  1.0000
  C   C262      1.0  0.31242  0.93100  0.97133  1.0000
  C   C263      1.0  0.68758  0.43100  0.52867  1.0000
  C   C264      1.0  0.81242  0.56900  0.02867  1.0000
  C   C265      1.0  0.81242  0.93100  0.52867  1.0000
  C   C266      1.0  0.18758  0.56900  0.02867  1.0000
  C   C267      1.0  0.81242  0.06900  0.47133  1.0000
  C   C268      1.0  0.68758  0.93100  0.97133  1.0000
  C   C269      1.0  0.31242  0.43100  0.52867  1.0000
  C   C270      1.0  0.68758  0.06900  0.02867  1.0000
  C   C271      1.0  0.31242  0.56900  0.47133  1.0000
  C   C272      1.0  0.18758  0.43100  0.97133  1.0000
  H   H129      1.0  0.18114  0.04348  0.49538  1.0000
  H   H130      1.0  0.81886  0.45652  0.99538  1.0000
  H   H131      1.0  0.18114  0.95652  0.50462  1.0000
  H   H132      1.0  0.31886  0.04348  0.00462  1.0000
  H   H133      1.0  0.68114  0.54348  0.49538  1.0000
  H   H134      1.0  0.31886  0.95652  0.99538  1.0000
  H   H135      1.0  0.68114  0.45652  0.50462  1.0000
  H   H136      1.0  0.81886  0.54348  0.00462  1.0000
  H   H137      1.0  0.81886  0.95652  0.50462  1.0000
  H   H138      1.0  0.18114  0.54348  0.00462  1.0000
  H   H139      1.0  0.81886  0.04348  0.49538  1.0000
  H   H140      1.0  0.68114  0.95652  0.99538  1.0000
  H   H141      1.0  0.31886  0.45652  0.50462  1.0000
  H   H142      1.0  0.68114  0.04348  0.00462  1.0000
  H   H143      1.0  0.31886  0.54348  0.49538  1.0000
  H   H144      1.0  0.18114  0.45652  0.99538  1.0000
  C   C273      1.0  0.18053  0.18816  0.56921  1.0000
  C   C274      1.0  0.81947  0.31184  0.06921  1.0000
  C   C275      1.0  0.18053  0.81184  0.43079  1.0000
  C   C276      1.0  0.31947  0.18816  0.93079  1.0000
  C   C277      1.0  0.68053  0.68816  0.56921  1.0000
  C   C278      1.0  0.31947  0.81184  0.06921  1.0000
  C   C279      1.0  0.68053  0.31184  0.43079  1.0000
  C   C280      1.0  0.81947  0.68816  0.93079  1.0000
  C   C281      1.0  0.81947  0.81184  0.43079  1.0000
  C   C282      1.0  0.18053  0.68816  0.93079  1.0000
  C   C283      1.0  0.81947  0.18816  0.56921  1.0000
  C   C284      1.0  0.68053  0.81184  0.06921  1.0000
  C   C285      1.0  0.31947  0.31184  0.43079  1.0000
  C   C286      1.0  0.68053  0.18816  0.93079  1.0000
  C   C287      1.0  0.31947  0.68816  0.56921  1.0000
  C   C288      1.0  0.18053  0.31184  0.06921  1.0000
  H   H145      1.0  0.16156  0.17850  0.54463  1.0000
  H   H146      1.0  0.83844  0.32150  0.04463  1.0000
  H   H147      1.0  0.16156  0.82150  0.45537  1.0000
  H   H148      1.0  0.33844  0.17850  0.95537  1.0000
  H   H149      1.0  0.66156  0.67850  0.54463  1.0000
  H   H150      1.0  0.33844  0.82150  0.04463  1.0000
  H   H151      1.0  0.66156  0.32150  0.45537  1.0000
  H   H152      1.0  0.83844  0.67850  0.95537  1.0000
  H   H153      1.0  0.83844  0.82150  0.45537  1.0000
  H   H154      1.0  0.16156  0.67850  0.95537  1.0000
  H   H155      1.0  0.83844  0.17850  0.54463  1.0000
  H   H156      1.0  0.66156  0.82150  0.04463  1.0000
  H   H157      1.0  0.33844  0.32150  0.45537  1.0000
  H   H158      1.0  0.66156  0.17850  0.95537  1.0000
  H   H159      1.0  0.33844  0.67850  0.54463  1.0000
  H   H160      1.0  0.16156  0.32150  0.04463  1.0000
  C   C289      1.0  0.26156  0.04902  0.55212  1.0000
  C   C290      1.0  0.73844  0.45098  0.05212  1.0000
  C   C291      1.0  0.26156  0.95098  0.44788  1.0000
  C   C292      1.0  0.23844  0.04902  0.94788  1.0000
  C   C293      1.0  0.76156  0.54902  0.55212  1.0000
  C   C294      1.0  0.23844  0.95098  0.05212  1.0000
  C   C295      1.0  0.76156  0.45098  0.44788  1.0000
  C   C296      1.0  0.73844  0.54902  0.94788  1.0000
  C   C297      1.0  0.73844  0.95098  0.44788  1.0000
  C   C298      1.0  0.26156  0.54902  0.94788  1.0000
  C   C299      1.0  0.73844  0.04902  0.55212  1.0000
  C   C300      1.0  0.76156  0.95098  0.05212  1.0000
  C   C301      1.0  0.23844  0.45098  0.44788  1.0000
  C   C302      1.0  0.76156  0.04902  0.94788  1.0000
  C   C303      1.0  0.23844  0.54902  0.55212  1.0000
  C   C304      1.0  0.26156  0.45098  0.05212  1.0000
  H   H161      1.0  0.27028  0.05926  0.51729  1.0000
  H   H162      1.0  0.72972  0.44074  0.01729  1.0000
  H   H163      1.0  0.27028  0.94074  0.48271  1.0000
  H   H164      1.0  0.22972  0.05926  0.98271  1.0000
  H   H165      1.0  0.77028  0.55926  0.51729  1.0000
  H   H166      1.0  0.22972  0.94074  0.01729  1.0000
  H   H167      1.0  0.77028  0.44074  0.48271  1.0000
  H   H168      1.0  0.72972  0.55926  0.98271  1.0000
  H   H169      1.0  0.72972  0.94074  0.48271  1.0000
  H   H170      1.0  0.27028  0.55926  0.98271  1.0000
  H   H171      1.0  0.72972  0.05926  0.51729  1.0000
  H   H172      1.0  0.77028  0.94074  0.01729  1.0000
  H   H173      1.0  0.22972  0.44074  0.48271  1.0000
  H   H174      1.0  0.77028  0.05926  0.98271  1.0000
  H   H175      1.0  0.22972  0.55926  0.51729  1.0000
  H   H176      1.0  0.27028  0.44074  0.01729  1.0000
  C   C305      1.0  0.23899  0.17316  0.61482  1.0000
  C   C306      1.0  0.76101  0.32684  0.11482  1.0000
  C   C307      1.0  0.23899  0.82684  0.38518  1.0000
  C   C308      1.0  0.26101  0.17316  0.88518  1.0000
  C   C309      1.0  0.73899  0.67316  0.61482  1.0000
  C   C310      1.0  0.26101  0.82684  0.11482  1.0000
  C   C311      1.0  0.73899  0.32684  0.38518  1.0000
  C   C312      1.0  0.76101  0.67316  0.88518  1.0000
  C   C313      1.0  0.76101  0.82684  0.38518  1.0000
  C   C314      1.0  0.23899  0.67316  0.88518  1.0000
  C   C315      1.0  0.76101  0.17316  0.61482  1.0000
  C   C316      1.0  0.73899  0.82684  0.11482  1.0000
  C   C317      1.0  0.26101  0.32684  0.38518  1.0000
  C   C318      1.0  0.73899  0.17316  0.88518  1.0000
  C   C319      1.0  0.26101  0.67316  0.61482  1.0000
  C   C320      1.0  0.23899  0.32684  0.11482  1.0000
  H   H177      1.0  0.25991  0.15334  0.62133  1.0000
  H   H178      1.0  0.74009  0.34666  0.12133  1.0000
  H   H179      1.0  0.25991  0.84666  0.37867  1.0000
  H   H180      1.0  0.24009  0.15334  0.87867  1.0000
  H   H181      1.0  0.75991  0.65334  0.62133  1.0000
  H   H182      1.0  0.24009  0.84666  0.12133  1.0000
  H   H183      1.0  0.75991  0.34666  0.37867  1.0000
  H   H184      1.0  0.74009  0.65334  0.87867  1.0000
  H   H185      1.0  0.74009  0.84666  0.37867  1.0000
  H   H186      1.0  0.25991  0.65334  0.87867  1.0000
  H   H187      1.0  0.74009  0.15334  0.62133  1.0000
  H   H188      1.0  0.75991  0.84666  0.12133  1.0000
  H   H189      1.0  0.24009  0.34666  0.37867  1.0000
  H   H190      1.0  0.75991  0.15334  0.87867  1.0000
  H   H191      1.0  0.24009  0.65334  0.62133  1.0000
  H   H192      1.0  0.25991  0.34666  0.12133  1.0000
  O   O65       1.0  0.23004  0.30843  0.69232  1.0000
  O   O66       1.0  0.76996  0.19157  0.19232  1.0000
  O   O67       1.0  0.23004  0.69157  0.30768  1.0000
  O   O68       1.0  0.26996  0.30843  0.80768  1.0000
  O   O69       1.0  0.73004  0.80843  0.69232  1.0000
  O   O70       1.0  0.26996  0.69157  0.19232  1.0000
  O   O71       1.0  0.73004  0.19157  0.30768  1.0000
  O   O72       1.0  0.76996  0.80843  0.80768  1.0000
  O   O73       1.0  0.76996  0.69157  0.30768  1.0000
  O   O74       1.0  0.23004  0.80843  0.80768  1.0000
  O   O75       1.0  0.76996  0.30843  0.69232  1.0000
  O   O76       1.0  0.73004  0.69157  0.19232  1.0000
  O   O77       1.0  0.26996  0.19157  0.30768  1.0000
  O   O78       1.0  0.73004  0.30843  0.80768  1.0000
  O   O79       1.0  0.26996  0.80843  0.69232  1.0000
  O   O80       1.0  0.23004  0.19157  0.19232  1.0000
  O   O81       1.0  0.26717  0.92932  0.69591  1.0000
  O   O82       1.0  0.73283  0.57068  0.19591  1.0000
  O   O83       1.0  0.26717  0.07068  0.30409  1.0000
  O   O84       1.0  0.23283  0.92932  0.80409  1.0000
  O   O85       1.0  0.76717  0.42932  0.69591  1.0000
  O   O86       1.0  0.23283  0.07068  0.19591  1.0000
  O   O87       1.0  0.76717  0.57068  0.30409  1.0000
  O   O88       1.0  0.73283  0.42932  0.80409  1.0000
  O   O89       1.0  0.73283  0.07068  0.30409  1.0000
  O   O90       1.0  0.26717  0.42932  0.80409  1.0000
  O   O91       1.0  0.73283  0.92932  0.69591  1.0000
  O   O92       1.0  0.76717  0.07068  0.19591  1.0000
  O   O93       1.0  0.23283  0.57068  0.30409  1.0000
  O   O94       1.0  0.76717  0.92932  0.80409  1.0000
  O   O95       1.0  0.23283  0.42932  0.69591  1.0000
  O   O96       1.0  0.26717  0.57068  0.19591  1.0000
  C   C321      1.0  0.28588  0.95181  0.65971  1.0000
  C   C322      1.0  0.71412  0.54819  0.15971  1.0000
  C   C323      1.0  0.28588  0.04819  0.34029  1.0000
  C   C324      1.0  0.21412  0.95181  0.84029  1.0000
  C   C325      1.0  0.78588  0.45181  0.65971  1.0000
  C   C326      1.0  0.21412  0.04819  0.15971  1.0000
  C   C327      1.0  0.78588  0.54819  0.34029  1.0000
  C   C328      1.0  0.71412  0.45181  0.84029  1.0000
  C   C329      1.0  0.71412  0.04819  0.34029  1.0000
  C   C330      1.0  0.28588  0.45181  0.84029  1.0000
  C   C331      1.0  0.71412  0.95181  0.65971  1.0000
  C   C332      1.0  0.78588  0.04819  0.15971  1.0000
  C   C333      1.0  0.21412  0.54819  0.34029  1.0000
  C   C334      1.0  0.78588  0.95181  0.84029  1.0000
  C   C335      1.0  0.21412  0.45181  0.65971  1.0000
  C   C336      1.0  0.28588  0.54819  0.15971  1.0000
  C   C337      1.0  0.08201  0.11750  0.20700  1.0000
  C   C338      1.0  0.91799  0.38250  0.70700  1.0000
  C   C339      1.0  0.08201  0.88250  0.79300  1.0000
  C   C340      1.0  0.41799  0.11750  0.29300  1.0000
  C   C341      1.0  0.58201  0.61750  0.20700  1.0000
  C   C342      1.0  0.41799  0.88250  0.70700  1.0000
  C   C343      1.0  0.58201  0.38250  0.79300  1.0000
  C   C344      1.0  0.91799  0.61750  0.29300  1.0000
  C   C345      1.0  0.91799  0.88250  0.79300  1.0000
  C   C346      1.0  0.08201  0.61750  0.29300  1.0000
  C   C347      1.0  0.91799  0.11750  0.20700  1.0000
  C   C348      1.0  0.58201  0.88250  0.70700  1.0000
  C   C349      1.0  0.41799  0.38250  0.79300  1.0000
  C   C350      1.0  0.58201  0.11750  0.29300  1.0000
  C   C351      1.0  0.41799  0.61750  0.20700  1.0000
  C   C352      1.0  0.08201  0.38250  0.70700  1.0000
  O   O97       1.0  0.09870  0.14684  0.23650  1.0000
  O   O98       1.0  0.90130  0.35316  0.73650  1.0000
  O   O99       1.0  0.09870  0.85316  0.76350  1.0000
  O   O100      1.0  0.40130  0.14684  0.26350  1.0000
  O   O101      1.0  0.59870  0.64684  0.23650  1.0000
  O   O102      1.0  0.40130  0.85316  0.73650  1.0000
  O   O103      1.0  0.59870  0.35316  0.76350  1.0000
  O   O104      1.0  0.90130  0.64684  0.26350  1.0000
  O   O105      1.0  0.90130  0.85316  0.76350  1.0000
  O   O106      1.0  0.09870  0.64684  0.26350  1.0000
  O   O107      1.0  0.90130  0.14684  0.23650  1.0000
  O   O108      1.0  0.59870  0.85316  0.73650  1.0000
  O   O109      1.0  0.40130  0.35316  0.76350  1.0000
  O   O110      1.0  0.59870  0.14684  0.26350  1.0000
  O   O111      1.0  0.40130  0.64684  0.23650  1.0000
  O   O112      1.0  0.09870  0.35316  0.73650  1.0000
  C   C353      1.0  0.04060  0.11870  0.20680  1.0000
  C   C354      1.0  0.95940  0.38130  0.70680  1.0000
  C   C355      1.0  0.04060  0.88130  0.79320  1.0000
  C   C356      1.0  0.45940  0.11870  0.29320  1.0000
  C   C357      1.0  0.54060  0.61870  0.20680  1.0000
  C   C358      1.0  0.45940  0.88130  0.70680  1.0000
  C   C359      1.0  0.54060  0.38130  0.79320  1.0000
  C   C360      1.0  0.95940  0.61870  0.29320  1.0000
  C   C361      1.0  0.95940  0.88130  0.79320  1.0000
  C   C362      1.0  0.04060  0.61870  0.29320  1.0000
  C   C363      1.0  0.95940  0.11870  0.20680  1.0000
  C   C364      1.0  0.54060  0.88130  0.70680  1.0000
  C   C365      1.0  0.45940  0.38130  0.79320  1.0000
  C   C366      1.0  0.54060  0.11870  0.29320  1.0000
  C   C367      1.0  0.45940  0.61870  0.20680  1.0000
  C   C368      1.0  0.04060  0.38130  0.70680  1.0000
  O   O113      1.0  0.09857  0.08780  0.18070  1.0000
  O   O114      1.0  0.90143  0.41220  0.68070  1.0000
  O   O115      1.0  0.09857  0.91220  0.81930  1.0000
  O   O116      1.0  0.40143  0.08780  0.31930  1.0000
  O   O117      1.0  0.59857  0.58780  0.18070  1.0000
  O   O118      1.0  0.40143  0.91220  0.68070  1.0000
  O   O119      1.0  0.59857  0.41220  0.81930  1.0000
  O   O120      1.0  0.90143  0.58780  0.31930  1.0000
  O   O121      1.0  0.90143  0.91220  0.81930  1.0000
  O   O122      1.0  0.09857  0.58780  0.31930  1.0000
  O   O123      1.0  0.90143  0.08780  0.18070  1.0000
  O   O124      1.0  0.59857  0.91220  0.68070  1.0000
  O   O125      1.0  0.40143  0.41220  0.81930  1.0000
  O   O126      1.0  0.59857  0.08780  0.31930  1.0000
  O   O127      1.0  0.40143  0.58780  0.18070  1.0000
  O   O128      1.0  0.09857  0.41220  0.68070  1.0000
  C   C369      1.0  0.02023  0.14820  0.23730  1.0000
  C   C370      1.0  0.97977  0.35180  0.73730  1.0000
  C   C371      1.0  0.02023  0.85180  0.76270  1.0000
  C   C372      1.0  0.47977  0.14820  0.26270  1.0000
  C   C373      1.0  0.52023  0.64820  0.23730  1.0000
  C   C374      1.0  0.47977  0.85180  0.73730  1.0000
  C   C375      1.0  0.52023  0.35180  0.76270  1.0000
  C   C376      1.0  0.97977  0.64820  0.26270  1.0000
  C   C377      1.0  0.97977  0.85180  0.76270  1.0000
  C   C378      1.0  0.02023  0.64820  0.26270  1.0000
  C   C379      1.0  0.97977  0.14820  0.23730  1.0000
  C   C380      1.0  0.52023  0.85180  0.73730  1.0000
  C   C381      1.0  0.47977  0.35180  0.76270  1.0000
  C   C382      1.0  0.52023  0.14820  0.26270  1.0000
  C   C383      1.0  0.47977  0.64820  0.23730  1.0000
  C   C384      1.0  0.02023  0.35180  0.73730  1.0000
  H   H193      1.0  0.03262  0.17046  0.26037  1.0000
  H   H194      1.0  0.96738  0.32954  0.76037  1.0000
  H   H195      1.0  0.03262  0.82954  0.73963  1.0000
  H   H196      1.0  0.46738  0.17046  0.23963  1.0000
  H   H197      1.0  0.53262  0.67046  0.26037  1.0000
  H   H198      1.0  0.46738  0.82954  0.76037  1.0000
  H   H199      1.0  0.53262  0.32954  0.73963  1.0000
  H   H200      1.0  0.96738  0.67046  0.23963  1.0000
  H   H201      1.0  0.96738  0.82954  0.73963  1.0000
  H   H202      1.0  0.03262  0.67046  0.23963  1.0000
  H   H203      1.0  0.96738  0.17046  0.26037  1.0000
  H   H204      1.0  0.53262  0.82954  0.76037  1.0000
  H   H205      1.0  0.46738  0.32954  0.73963  1.0000
  H   H206      1.0  0.53262  0.17046  0.23963  1.0000
  H   H207      1.0  0.46738  0.67046  0.26037  1.0000
  H   H208      1.0  0.03262  0.32954  0.76037  1.0000
  C   C385      1.0  0.02031  0.08600  0.17920  1.0000
  C   C386      1.0  0.97969  0.41400  0.67920  1.0000
  C   C387      1.0  0.02031  0.91400  0.82080  1.0000
  C   C388      1.0  0.47969  0.08600  0.32080  1.0000
  C   C389      1.0  0.52031  0.58600  0.17920  1.0000
  C   C390      1.0  0.47969  0.91400  0.67920  1.0000
  C   C391      1.0  0.52031  0.41400  0.82080  1.0000
  C   C392      1.0  0.97969  0.58600  0.32080  1.0000
  C   C393      1.0  0.97969  0.91400  0.82080  1.0000
  C   C394      1.0  0.02031  0.58600  0.32080  1.0000
  C   C395      1.0  0.97969  0.08600  0.17920  1.0000
  C   C396      1.0  0.52031  0.91400  0.67920  1.0000
  C   C397      1.0  0.47969  0.41400  0.82080  1.0000
  C   C398      1.0  0.52031  0.08600  0.32080  1.0000
  C   C399      1.0  0.47969  0.58600  0.17920  1.0000
  C   C400      1.0  0.02031  0.41400  0.67920  1.0000
  H   H209      1.0  0.03284  0.06185  0.15885  1.0000
  H   H210      1.0  0.96716  0.43815  0.65885  1.0000
  H   H211      1.0  0.03284  0.93815  0.84115  1.0000
  H   H212      1.0  0.46716  0.06185  0.34115  1.0000
  H   H213      1.0  0.53284  0.56185  0.15885  1.0000
  H   H214      1.0  0.46716  0.93815  0.65885  1.0000
  H   H215      1.0  0.53284  0.43815  0.84115  1.0000
  H   H216      1.0  0.96716  0.56185  0.34115  1.0000
  H   H217      1.0  0.96716  0.93815  0.84115  1.0000
  H   H218      1.0  0.03284  0.56185  0.34115  1.0000
  H   H219      1.0  0.96716  0.06185  0.15885  1.0000
  H   H220      1.0  0.53284  0.93815  0.65885  1.0000
  H   H221      1.0  0.46716  0.43815  0.84115  1.0000
  H   H222      1.0  0.53284  0.06185  0.34115  1.0000
  H   H223      1.0  0.46716  0.56185  0.15885  1.0000
  H   H224      1.0  0.03284  0.43815  0.65885  1.0000
