data_image0
_chemical_formula_structural       U8O64C8H4C8H4C4H4C4H4C4H8C8H8C12H4C8H4C4H4C4H4C4H8C8H8C12H4C8H4C4H4C4H4C4H8C8H8C4
_chemical_formula_sum              "U8 O64 C120 H96"
_cell_length_a       18.1452
_cell_length_b       22.1979
_cell_length_c       13.9147
_cell_angle_alpha    90
_cell_angle_beta     90
_cell_angle_gamma    90

_space_group_name_H-M_alt    "P 1"
_space_group_IT_number       1

loop_
  _space_group_symop_operation_xyz
  'x, y, z'

loop_
  _atom_site_type_symbol
  _atom_site_label
  _atom_site_symmetry_multiplicity
  _atom_site_fract_x
  _atom_site_fract_y
  _atom_site_fract_z
  _atom_site_occupancy
  U   U1        1.0  0.19803  0.65327  0.12059  1.0000
  U   U2        1.0  0.80197  0.34673  0.62059  1.0000
  U   U3        1.0  0.69803  0.84673  0.12059  1.0000
  U   U4        1.0  0.30197  0.15327  0.62059  1.0000
  U   U5        1.0  0.29329  0.29619  0.13076  1.0000
  U   U6        1.0  0.70671  0.70381  0.63076  1.0000
  U   U7        1.0  0.79329  0.20381  0.13076  1.0000
  U   U8        1.0  0.20671  0.79619  0.63076  1.0000
  O   O1        1.0  0.23670  0.58020  0.11850  1.0000
  O   O2        1.0  0.76330  0.41980  0.61850  1.0000
  O   O3        1.0  0.73670  0.91980  0.11850  1.0000
  O   O4        1.0  0.26330  0.08020  0.61850  1.0000
  O   O5        1.0  0.16060  0.72660  0.12470  1.0000
  O   O6        1.0  0.83940  0.27340  0.62470  1.0000
  O   O7        1.0  0.66060  0.77340  0.12470  1.0000
  O   O8        1.0  0.33940  0.22660  0.62470  1.0000
  O   O9        1.0  0.32910  0.37000  0.13990  1.0000
  O   O10       1.0  0.67090  0.63000  0.63990  1.0000
  O   O11       1.0  0.82910  0.13000  0.13990  1.0000
  O   O12       1.0  0.17090  0.87000  0.63990  1.0000
  O   O13       1.0  0.25620  0.22280  0.11780  1.0000
  O   O14       1.0  0.74380  0.77720  0.61780  1.0000
  O   O15       1.0  0.75620  0.27720  0.11780  1.0000
  O   O16       1.0  0.24380  0.72280  0.61780  1.0000
  O   O17       1.0  0.08490  0.60850  0.04380  1.0000
  O   O18       1.0  0.91510  0.39150  0.54380  1.0000
  O   O19       1.0  0.58490  0.89150  0.04380  1.0000
  O   O20       1.0  0.41510  0.10850  0.54380  1.0000
  O   O21       1.0  0.09090  0.61240  0.20230  1.0000
  O   O22       1.0  0.90910  0.38760  0.70230  1.0000
  O   O23       1.0  0.59090  0.88760  0.20230  1.0000
  O   O24       1.0  0.40910  0.11240  0.70230  1.0000
  O   O25       1.0  0.17310  0.31560  0.21270  1.0000
  O   O26       1.0  0.82690  0.68440  0.71270  1.0000
  O   O27       1.0  0.67310  0.18440  0.21270  1.0000
  O   O28       1.0  0.32690  0.81560  0.71270  1.0000
  O   O29       1.0  0.18320  0.34060  0.05950  1.0000
  O   O30       1.0  0.81680  0.65940  0.55950  1.0000
  O   O31       1.0  0.68320  0.15940  0.05950  1.0000
  O   O32       1.0  0.31680  0.84060  0.55950  1.0000
  O   O33       1.0  0.20960  0.65550  0.30070  1.0000
  O   O34       1.0  0.79040  0.34450  0.80070  1.0000
  O   O35       1.0  0.70960  0.84450  0.30070  1.0000
  O   O36       1.0  0.29040  0.15550  0.80070  1.0000
  O   O37       1.0  0.30440  0.68600  0.21720  1.0000
  O   O38       1.0  0.69560  0.31400  0.71720  1.0000
  O   O39       1.0  0.80440  0.81400  0.21720  1.0000
  O   O40       1.0  0.19560  0.18600  0.71720  1.0000
  O   O41       1.0  0.69490  0.69630  0.45530  1.0000
  O   O42       1.0  0.30510  0.30370  0.95530  1.0000
  O   O43       1.0  0.19490  0.80370  0.45530  1.0000
  O   O44       1.0  0.80510  0.19630  0.95530  1.0000
  O   O45       1.0  0.59970  0.73460  0.53060  1.0000
  O   O46       1.0  0.40030  0.26540  0.03060  1.0000
  O   O47       1.0  0.09970  0.76540  0.53060  1.0000
  O   O48       1.0  0.90030  0.23460  0.03060  1.0000
  O   O49       1.0  0.39790  0.25890  0.22410  1.0000
  O   O50       1.0  0.60210  0.74110  0.72410  1.0000
  O   O51       1.0  0.89790  0.24110  0.22410  1.0000
  O   O52       1.0  0.10210  0.75890  0.72410  1.0000
  O   O53       1.0  0.30340  0.29160  0.30960  1.0000
  O   O54       1.0  0.69660  0.70840  0.80960  1.0000
  O   O55       1.0  0.80340  0.20840  0.30960  1.0000
  O   O56       1.0  0.19660  0.79160  0.80960  1.0000
  O   O57       1.0  0.69710  0.31740  0.52050  1.0000
  O   O58       1.0  0.30290  0.68260  0.02050  1.0000
  O   O59       1.0  0.19710  0.18260  0.52050  1.0000
  O   O60       1.0  0.80290  0.81740  0.02050  1.0000
  O   O61       1.0  0.79790  0.34200  0.44400  1.0000
  O   O62       1.0  0.20210  0.65800  0.94400  1.0000
  O   O63       1.0  0.29790  0.15800  0.44400  1.0000
  O   O64       1.0  0.70210  0.84200  0.94400  1.0000
  C   C1        1.0  0.00290  0.50050  0.18900  1.0000
  C   C2        1.0  0.99710  0.49950  0.68900  1.0000
  C   C3        1.0  0.50290  0.99950  0.18900  1.0000
  C   C4        1.0  0.49710  0.00050  0.68900  1.0000
  C   C5        1.0  0.02600  0.44990  0.13960  1.0000
  C   C6        1.0  0.97400  0.55010  0.63960  1.0000
  C   C7        1.0  0.52600  0.05010  0.13960  1.0000
  C   C8        1.0  0.47400  0.94990  0.63960  1.0000
  H   H1        1.0  0.03322  0.45263  0.07210  1.0000
  H   H2        1.0  0.96678  0.54737  0.57210  1.0000
  H   H3        1.0  0.53322  0.04737  0.07210  1.0000
  H   H4        1.0  0.46678  0.95263  0.57210  1.0000
  C   C9        1.0  0.03900  0.39590  0.18460  1.0000
  C   C10       1.0  0.96100  0.60410  0.68460  1.0000
  C   C11       1.0  0.53900  0.10410  0.18460  1.0000
  C   C12       1.0  0.46100  0.89590  0.68460  1.0000
  C   C13       1.0  0.02800  0.39270  0.28410  1.0000
  C   C14       1.0  0.97200  0.60730  0.78410  1.0000
  C   C15       1.0  0.52800  0.10730  0.28410  1.0000
  C   C16       1.0  0.47200  0.89270  0.78410  1.0000
  H   H5        1.0  0.03555  0.35564  0.31690  1.0000
  H   H6        1.0  0.96445  0.64436  0.81690  1.0000
  H   H7        1.0  0.53555  0.14436  0.31690  1.0000
  H   H8        1.0  0.46445  0.85564  0.81690  1.0000
  C   C17       1.0  0.00630  0.44310  0.33470  1.0000
  C   C18       1.0  0.99370  0.55690  0.83470  1.0000
  C   C19       1.0  0.50630  0.05690  0.33470  1.0000
  C   C20       1.0  0.49370  0.94310  0.83470  1.0000
  H   H9        1.0  0.99902  0.44060  0.40223  1.0000
  H   H10       1.0  0.00098  0.55940  0.90223  1.0000
  H   H11       1.0  0.49902  0.05940  0.40223  1.0000
  H   H12       1.0  0.50098  0.94060  0.90223  1.0000
  C   C21       1.0  0.99500  0.49690  0.28810  1.0000
  C   C22       1.0  0.00500  0.50310  0.78810  1.0000
  C   C23       1.0  0.49500  0.00310  0.28810  1.0000
  C   C24       1.0  0.50500  0.99690  0.78810  1.0000
  H   H13       1.0  0.98185  0.53176  0.32381  1.0000
  H   H14       1.0  0.01815  0.46824  0.82381  1.0000
  H   H15       1.0  0.48185  0.96824  0.32381  1.0000
  H   H16       1.0  0.51815  0.03176  0.82381  1.0000
  C   C25       1.0  0.98870  0.55910  0.13450  1.0000
  C   C26       1.0  0.01130  0.44090  0.63450  1.0000
  C   C27       1.0  0.48870  0.94090  0.13450  1.0000
  C   C28       1.0  0.51130  0.05910  0.63450  1.0000
  H   H17       1.0  0.97020  0.54986  0.06921  1.0000
  H   H18       1.0  0.02980  0.45014  0.56921  1.0000
  H   H19       1.0  0.47020  0.95014  0.06921  1.0000
  H   H20       1.0  0.52980  0.04986  0.56921  1.0000
  H   H21       1.0  0.95050  0.58290  0.16840  1.0000
  H   H22       1.0  0.04950  0.41710  0.66840  1.0000
  H   H23       1.0  0.45050  0.91710  0.16840  1.0000
  H   H24       1.0  0.54950  0.08290  0.66840  1.0000
  C   C29       1.0  0.05840  0.59530  0.12740  1.0000
  C   C30       1.0  0.94160  0.40470  0.62740  1.0000
  C   C31       1.0  0.55840  0.90470  0.12740  1.0000
  C   C32       1.0  0.44160  0.09530  0.62740  1.0000
  C   C33       1.0  0.06100  0.33930  0.13110  1.0000
  C   C34       1.0  0.93900  0.66070  0.63110  1.0000
  C   C35       1.0  0.56100  0.16070  0.13110  1.0000
  C   C36       1.0  0.43900  0.83930  0.63110  1.0000
  H   H25       1.0  0.04406  0.34195  0.06357  1.0000
  H   H26       1.0  0.95594  0.65805  0.56357  1.0000
  H   H27       1.0  0.54406  0.15805  0.06357  1.0000
  H   H28       1.0  0.45594  0.84195  0.56357  1.0000
  H   H29       1.0  0.03697  0.30389  0.16104  1.0000
  H   H30       1.0  0.96303  0.69611  0.66104  1.0000
  H   H31       1.0  0.53697  0.19611  0.16104  1.0000
  H   H32       1.0  0.46303  0.80389  0.66104  1.0000
  C   C37       1.0  0.14400  0.33130  0.13350  1.0000
  C   C38       1.0  0.85600  0.66870  0.63350  1.0000
  C   C39       1.0  0.64400  0.16870  0.13350  1.0000
  C   C40       1.0  0.35600  0.83130  0.63350  1.0000
  C   C41       1.0  0.38060  0.72800  0.37870  1.0000
  C   C42       1.0  0.61940  0.27200  0.87870  1.0000
  C   C43       1.0  0.88060  0.77200  0.37870  1.0000
  C   C44       1.0  0.11940  0.22800  0.87870  1.0000
  C   C45       1.0  0.45270  0.70790  0.37610  1.0000
  C   C46       1.0  0.54730  0.29210  0.87610  1.0000
  C   C47       1.0  0.95270  0.79210  0.37610  1.0000
  C   C48       1.0  0.04730  0.20790  0.87610  1.0000
  H   H33       1.0  0.46224  0.66611  0.38418  1.0000
  H   H34       1.0  0.53776  0.33389  0.88418  1.0000
  H   H35       1.0  0.96224  0.83389  0.38418  1.0000
  H   H36       1.0  0.03776  0.16611  0.88418  1.0000
  C   C49       1.0  0.51200  0.74690  0.36210  1.0000
  C   C50       1.0  0.48800  0.25310  0.86210  1.0000
  C   C51       1.0  0.01200  0.75310  0.36210  1.0000
  C   C52       1.0  0.98800  0.24690  0.86210  1.0000
  C   C53       1.0  0.49810  0.80750  0.35380  1.0000
  C   C54       1.0  0.50190  0.19250  0.85380  1.0000
  C   C55       1.0  0.99810  0.69250  0.35380  1.0000
  C   C56       1.0  0.00190  0.30750  0.85380  1.0000
  H   H37       1.0  0.53740  0.83507  0.34376  1.0000
  H   H38       1.0  0.46260  0.16493  0.84376  1.0000
  H   H39       1.0  0.03740  0.66493  0.34376  1.0000
  H   H40       1.0  0.96260  0.33507  0.84376  1.0000
  C   C57       1.0  0.42560  0.82830  0.36010  1.0000
  C   C58       1.0  0.57440  0.17170  0.86010  1.0000
  C   C59       1.0  0.92560  0.67170  0.36010  1.0000
  C   C60       1.0  0.07440  0.32830  0.86010  1.0000
  H   H41       1.0  0.41637  0.87029  0.35528  1.0000
  H   H42       1.0  0.58363  0.12971  0.85528  1.0000
  H   H43       1.0  0.91637  0.62971  0.35528  1.0000
  H   H44       1.0  0.08363  0.37029  0.85528  1.0000
  C   C61       1.0  0.36760  0.78980  0.37300  1.0000
  C   C62       1.0  0.63240  0.21020  0.87300  1.0000
  C   C63       1.0  0.86760  0.71020  0.37300  1.0000
  C   C64       1.0  0.13240  0.28980  0.87300  1.0000
  H   H45       1.0  0.31881  0.80510  0.37808  1.0000
  H   H46       1.0  0.68119  0.19490  0.87808  1.0000
  H   H47       1.0  0.81881  0.69490  0.37808  1.0000
  H   H48       1.0  0.18119  0.30510  0.87808  1.0000
  C   C65       1.0  0.31570  0.68460  0.38810  1.0000
  C   C66       1.0  0.68430  0.31540  0.88810  1.0000
  C   C67       1.0  0.81570  0.81540  0.38810  1.0000
  C   C68       1.0  0.18430  0.18460  0.88810  1.0000
  H   H49       1.0  0.33437  0.64518  0.41078  1.0000
  H   H50       1.0  0.66563  0.35482  0.91078  1.0000
  H   H51       1.0  0.83437  0.85482  0.41078  1.0000
  H   H52       1.0  0.16563  0.14518  0.91078  1.0000
  H   H53       1.0  0.28157  0.70028  0.43769  1.0000
  H   H54       1.0  0.71843  0.29972  0.93769  1.0000
  H   H55       1.0  0.78157  0.79972  0.43769  1.0000
  H   H56       1.0  0.21843  0.20028  0.93769  1.0000
  C   C69       1.0  0.27450  0.67530  0.29900  1.0000
  C   C70       1.0  0.72550  0.32470  0.79900  1.0000
  C   C71       1.0  0.77450  0.82470  0.29900  1.0000
  C   C72       1.0  0.22550  0.17530  0.79900  1.0000
  C   C73       1.0  0.59130  0.72370  0.35760  1.0000
  C   C74       1.0  0.40870  0.27630  0.85760  1.0000
  C   C75       1.0  0.09130  0.77630  0.35760  1.0000
  C   C76       1.0  0.90870  0.22370  0.85760  1.0000
  H   H57       1.0  0.62017  0.75098  0.31573  1.0000
  H   H58       1.0  0.37983  0.24902  0.81573  1.0000
  H   H59       1.0  0.12017  0.74902  0.31573  1.0000
  H   H60       1.0  0.87983  0.25098  0.81573  1.0000
  H   H61       1.0  0.59099  0.68350  0.32689  1.0000
  H   H62       1.0  0.40901  0.31650  0.82689  1.0000
  H   H63       1.0  0.09099  0.81650  0.32689  1.0000
  H   H64       1.0  0.90901  0.18350  0.82689  1.0000
  C   C77       1.0  0.63130  0.71850  0.45550  1.0000
  C   C78       1.0  0.36870  0.28150  0.95550  1.0000
  C   C79       1.0  0.13130  0.78150  0.45550  1.0000
  C   C80       1.0  0.86870  0.21850  0.95550  1.0000
  C   C81       1.0  0.47840  0.31930  0.38300  1.0000
  C   C82       1.0  0.52160  0.68070  0.88300  1.0000
  C   C83       1.0  0.97840  0.18070  0.38300  1.0000
  C   C84       1.0  0.02160  0.81930  0.88300  1.0000
  C   C85       1.0  0.54990  0.30230  0.36850  1.0000
  C   C86       1.0  0.45010  0.69770  0.86850  1.0000
  C   C87       1.0  0.04990  0.19770  0.36850  1.0000
  C   C88       1.0  0.95010  0.80230  0.86850  1.0000
  H   H65       1.0  0.56117  0.26065  0.36362  1.0000
  H   H66       1.0  0.43883  0.73935  0.86362  1.0000
  H   H67       1.0  0.06117  0.23935  0.36362  1.0000
  H   H68       1.0  0.93883  0.76065  0.86362  1.0000
  C   C89       1.0  0.60760  0.34480  0.36070  1.0000
  C   C90       1.0  0.39240  0.65520  0.86070  1.0000
  C   C91       1.0  0.10760  0.15520  0.36070  1.0000
  C   C92       1.0  0.89240  0.84480  0.86070  1.0000
  C   C93       1.0  0.58930  0.40630  0.36720  1.0000
  C   C94       1.0  0.41070  0.59370  0.86720  1.0000
  C   C95       1.0  0.08930  0.09370  0.36720  1.0000
  C   C96       1.0  0.91070  0.90630  0.86720  1.0000
  H   H69       1.0  0.62687  0.43599  0.36233  1.0000
  H   H70       1.0  0.37313  0.56401  0.86233  1.0000
  H   H71       1.0  0.12687  0.06401  0.36233  1.0000
  H   H72       1.0  0.87313  0.93599  0.86233  1.0000
  C   C97       1.0  0.51800  0.42330  0.38030  1.0000
  C   C98       1.0  0.48200  0.57670  0.88030  1.0000
  C   C99       1.0  0.01800  0.07670  0.38030  1.0000
  C   C100      1.0  0.98200  0.92330  0.88030  1.0000
  H   H73       1.0  0.50588  0.46479  0.38523  1.0000
  H   H74       1.0  0.49412  0.53521  0.88523  1.0000
  H   H75       1.0  0.00588  0.03521  0.38523  1.0000
  H   H76       1.0  0.99412  0.96479  0.88523  1.0000
  C   C101      1.0  0.46340  0.38060  0.38660  1.0000
  C   C102      1.0  0.53660  0.61940  0.88660  1.0000
  C   C103      1.0  0.96340  0.11940  0.38660  1.0000
  C   C104      1.0  0.03660  0.88060  0.88660  1.0000
  H   H77       1.0  0.41374  0.39340  0.39361  1.0000
  H   H78       1.0  0.58626  0.60660  0.89361  1.0000
  H   H79       1.0  0.91374  0.10660  0.39361  1.0000
  H   H80       1.0  0.08626  0.89340  0.89361  1.0000
  C   C105      1.0  0.41810  0.27330  0.39320  1.0000
  C   C106      1.0  0.58190  0.72670  0.89320  1.0000
  C   C107      1.0  0.91810  0.22670  0.39320  1.0000
  C   C108      1.0  0.08190  0.77330  0.89320  1.0000
  H   H81       1.0  0.43993  0.23264  0.40057  1.0000
  H   H82       1.0  0.56007  0.76736  0.90057  1.0000
  H   H83       1.0  0.93993  0.26736  0.40057  1.0000
  H   H84       1.0  0.06007  0.73264  0.90057  1.0000
  H   H85       1.0  0.38847  0.28208  0.45121  1.0000
  H   H86       1.0  0.61153  0.71792  0.95121  1.0000
  H   H87       1.0  0.88847  0.21792  0.45121  1.0000
  H   H88       1.0  0.11153  0.78208  0.95121  1.0000
  C   C109      1.0  0.37040  0.27470  0.30710  1.0000
  C   C110      1.0  0.62960  0.72530  0.80710  1.0000
  C   C111      1.0  0.87040  0.22530  0.30710  1.0000
  C   C112      1.0  0.12960  0.77470  0.80710  1.0000
  C   C113      1.0  0.68730  0.32470  0.34870  1.0000
  C   C114      1.0  0.31270  0.67530  0.84870  1.0000
  C   C115      1.0  0.18730  0.17530  0.34870  1.0000
  C   C116      1.0  0.81270  0.82470  0.84870  1.0000
  H   H89       1.0  0.71124  0.35000  0.29921  1.0000
  H   H90       1.0  0.28876  0.65000  0.79921  1.0000
  H   H91       1.0  0.21124  0.15000  0.29921  1.0000
  H   H92       1.0  0.78876  0.85000  0.79921  1.0000
  H   H93       1.0  0.68800  0.28247  0.32565  1.0000
  H   H94       1.0  0.31200  0.71753  0.82565  1.0000
  H   H95       1.0  0.18800  0.21753  0.32565  1.0000
  H   H96       1.0  0.81200  0.78247  0.82565  1.0000
  C   C117      1.0  0.73220  0.32900  0.44390  1.0000
  C   C118      1.0  0.26780  0.67100  0.94390  1.0000
  C   C119      1.0  0.23220  0.17100  0.44390  1.0000
  C   C120      1.0  0.76780  0.82900  0.94390  1.0000
