data_image0
_chemical_formula_structural       U8O64C32H16C16H16C16H32C40H16C8H16C8
_chemical_formula_sum              "U8 O64 C120 H96"
_cell_length_a       21.4452
_cell_length_b       19.5031
_cell_length_c       13.8426
_cell_angle_alpha    90
_cell_angle_beta     90
_cell_angle_gamma    90

_space_group_name_H-M_alt    "P 1"
_space_group_IT_number       1

loop_
  _space_group_symop_operation_xyz
  'x, y, z'

loop_
  _atom_site_type_symbol
  _atom_site_label
  _atom_site_symmetry_multiplicity
  _atom_site_fract_x
  _atom_site_fract_y
  _atom_site_fract_z
  _atom_site_occupancy
  U   U1        1.0  0.32188  0.24087  0.25000  1.0000
  U   U2        1.0  0.67812  0.75913  0.75000  1.0000
  U   U3        1.0  0.67812  0.24087  0.25000  1.0000
  U   U4        1.0  0.32188  0.75913  0.75000  1.0000
  U   U5        1.0  0.82188  0.74087  0.25000  1.0000
  U   U6        1.0  0.17812  0.25913  0.75000  1.0000
  U   U7        1.0  0.17812  0.74087  0.25000  1.0000
  U   U8        1.0  0.82188  0.25913  0.75000  1.0000
  O   O1        1.0  0.40190  0.26260  0.25000  1.0000
  O   O2        1.0  0.59810  0.73740  0.75000  1.0000
  O   O3        1.0  0.59810  0.26260  0.25000  1.0000
  O   O4        1.0  0.40190  0.73740  0.75000  1.0000
  O   O5        1.0  0.90190  0.76260  0.25000  1.0000
  O   O6        1.0  0.09810  0.23740  0.75000  1.0000
  O   O7        1.0  0.09810  0.76260  0.25000  1.0000
  O   O8        1.0  0.90190  0.23740  0.75000  1.0000
  O   O9        1.0  0.24170  0.21880  0.25000  1.0000
  O   O10       1.0  0.75830  0.78120  0.75000  1.0000
  O   O11       1.0  0.75830  0.21880  0.25000  1.0000
  O   O12       1.0  0.24170  0.78120  0.75000  1.0000
  O   O13       1.0  0.74170  0.71880  0.25000  1.0000
  O   O14       1.0  0.25830  0.28120  0.75000  1.0000
  O   O15       1.0  0.25830  0.71880  0.25000  1.0000
  O   O16       1.0  0.74170  0.28120  0.75000  1.0000
  O   O17       1.0  0.32131  0.24993  0.07180  1.0000
  O   O18       1.0  0.67869  0.75007  0.57180  1.0000
  O   O19       1.0  0.67869  0.24993  0.42820  1.0000
  O   O20       1.0  0.32131  0.75007  0.92820  1.0000
  O   O21       1.0  0.82131  0.74993  0.07180  1.0000
  O   O22       1.0  0.17869  0.25007  0.57180  1.0000
  O   O23       1.0  0.17869  0.74993  0.42820  1.0000
  O   O24       1.0  0.82131  0.25007  0.92820  1.0000
  O   O25       1.0  0.67869  0.75007  0.92820  1.0000
  O   O26       1.0  0.32131  0.24993  0.42820  1.0000
  O   O27       1.0  0.32131  0.75007  0.57180  1.0000
  O   O28       1.0  0.67869  0.24993  0.07180  1.0000
  O   O29       1.0  0.17869  0.25007  0.92820  1.0000
  O   O30       1.0  0.82131  0.74993  0.42820  1.0000
  O   O31       1.0  0.82131  0.25007  0.57180  1.0000
  O   O32       1.0  0.17869  0.74993  0.07180  1.0000
  O   O33       1.0  0.30077  0.34373  0.15280  1.0000
  O   O34       1.0  0.69923  0.65627  0.65280  1.0000
  O   O35       1.0  0.69923  0.34373  0.34720  1.0000
  O   O36       1.0  0.30077  0.65627  0.84720  1.0000
  O   O37       1.0  0.80077  0.84373  0.15280  1.0000
  O   O38       1.0  0.19923  0.15627  0.65280  1.0000
  O   O39       1.0  0.19923  0.84373  0.34720  1.0000
  O   O40       1.0  0.80077  0.15627  0.84720  1.0000
  O   O41       1.0  0.69923  0.65627  0.84720  1.0000
  O   O42       1.0  0.30077  0.34373  0.34720  1.0000
  O   O43       1.0  0.30077  0.65627  0.65280  1.0000
  O   O44       1.0  0.69923  0.34373  0.15280  1.0000
  O   O45       1.0  0.19923  0.15627  0.84720  1.0000
  O   O46       1.0  0.80077  0.84373  0.34720  1.0000
  O   O47       1.0  0.80077  0.15627  0.65280  1.0000
  O   O48       1.0  0.19923  0.84373  0.15280  1.0000
  O   O49       1.0  0.34414  0.13076  0.32920  1.0000
  O   O50       1.0  0.65586  0.86924  0.82920  1.0000
  O   O51       1.0  0.65586  0.13076  0.17080  1.0000
  O   O52       1.0  0.34414  0.86924  0.67080  1.0000
  O   O53       1.0  0.84414  0.63076  0.32920  1.0000
  O   O54       1.0  0.15586  0.36924  0.82920  1.0000
  O   O55       1.0  0.15586  0.63076  0.17080  1.0000
  O   O56       1.0  0.84414  0.36924  0.67080  1.0000
  O   O57       1.0  0.65586  0.86924  0.67080  1.0000
  O   O58       1.0  0.34414  0.13076  0.17080  1.0000
  O   O59       1.0  0.34414  0.86924  0.82920  1.0000
  O   O60       1.0  0.65586  0.13076  0.32920  1.0000
  O   O61       1.0  0.15586  0.36924  0.67080  1.0000
  O   O62       1.0  0.84414  0.63076  0.17080  1.0000
  O   O63       1.0  0.84414  0.36924  0.82920  1.0000
  O   O64       1.0  0.15586  0.63076  0.32920  1.0000
  C   C1        1.0  0.30030  0.42820  0.98940  1.0000
  C   C2        1.0  0.69970  0.57180  0.48940  1.0000
  C   C3        1.0  0.69970  0.42820  0.51060  1.0000
  C   C4        1.0  0.30030  0.57180  0.01060  1.0000
  C   C5        1.0  0.80030  0.92820  0.98940  1.0000
  C   C6        1.0  0.19970  0.07180  0.48940  1.0000
  C   C7        1.0  0.19970  0.92820  0.51060  1.0000
  C   C8        1.0  0.80030  0.07180  0.01060  1.0000
  C   C9        1.0  0.69970  0.57180  0.01060  1.0000
  C   C10       1.0  0.30030  0.42820  0.51060  1.0000
  C   C11       1.0  0.30030  0.57180  0.48940  1.0000
  C   C12       1.0  0.69970  0.42820  0.98940  1.0000
  C   C13       1.0  0.19970  0.07180  0.01060  1.0000
  C   C14       1.0  0.80030  0.92820  0.51060  1.0000
  C   C15       1.0  0.80030  0.07180  0.48940  1.0000
  C   C16       1.0  0.19970  0.92820  0.98940  1.0000
  C   C17       1.0  0.24500  0.46420  0.99390  1.0000
  C   C18       1.0  0.75500  0.53580  0.49390  1.0000
  C   C19       1.0  0.75500  0.46420  0.50610  1.0000
  C   C20       1.0  0.24500  0.53580  0.00610  1.0000
  C   C21       1.0  0.74500  0.96420  0.99390  1.0000
  C   C22       1.0  0.25500  0.03580  0.49390  1.0000
  C   C23       1.0  0.25500  0.96420  0.50610  1.0000
  C   C24       1.0  0.74500  0.03580  0.00610  1.0000
  C   C25       1.0  0.75500  0.53580  0.00610  1.0000
  C   C26       1.0  0.24500  0.46420  0.50610  1.0000
  C   C27       1.0  0.24500  0.53580  0.49390  1.0000
  C   C28       1.0  0.75500  0.46420  0.99390  1.0000
  C   C29       1.0  0.25500  0.03580  0.00610  1.0000
  C   C30       1.0  0.74500  0.96420  0.50610  1.0000
  C   C31       1.0  0.74500  0.03580  0.49390  1.0000
  C   C32       1.0  0.25500  0.96420  0.99390  1.0000
  H   H1        1.0  0.20650  0.44040  0.98880  1.0000
  H   H2        1.0  0.79350  0.55960  0.48880  1.0000
  H   H3        1.0  0.79350  0.44040  0.51120  1.0000
  H   H4        1.0  0.20650  0.55960  0.01120  1.0000
  H   H5        1.0  0.70650  0.94040  0.98880  1.0000
  H   H6        1.0  0.29350  0.05960  0.48880  1.0000
  H   H7        1.0  0.29350  0.94040  0.51120  1.0000
  H   H8        1.0  0.70650  0.05960  0.01120  1.0000
  H   H9        1.0  0.79350  0.55960  0.01120  1.0000
  H   H10       1.0  0.20650  0.44040  0.51120  1.0000
  H   H11       1.0  0.20650  0.55960  0.48880  1.0000
  H   H12       1.0  0.79350  0.44040  0.98880  1.0000
  H   H13       1.0  0.29350  0.05960  0.01120  1.0000
  H   H14       1.0  0.70650  0.94040  0.51120  1.0000
  H   H15       1.0  0.70650  0.05960  0.48880  1.0000
  H   H16       1.0  0.29350  0.94040  0.98880  1.0000
  C   C33       1.0  0.35530  0.46440  0.99540  1.0000
  C   C34       1.0  0.64470  0.53560  0.49540  1.0000
  C   C35       1.0  0.64470  0.46440  0.50460  1.0000
  C   C36       1.0  0.35530  0.53560  0.00460  1.0000
  C   C37       1.0  0.85530  0.96440  0.99540  1.0000
  C   C38       1.0  0.14470  0.03560  0.49540  1.0000
  C   C39       1.0  0.14470  0.96440  0.50460  1.0000
  C   C40       1.0  0.85530  0.03560  0.00460  1.0000
  C   C41       1.0  0.64470  0.53560  0.00460  1.0000
  C   C42       1.0  0.35530  0.46440  0.50460  1.0000
  C   C43       1.0  0.35530  0.53560  0.49540  1.0000
  C   C44       1.0  0.64470  0.46440  0.99540  1.0000
  C   C45       1.0  0.14470  0.03560  0.00460  1.0000
  C   C46       1.0  0.85530  0.96440  0.50460  1.0000
  C   C47       1.0  0.85530  0.03560  0.49540  1.0000
  C   C48       1.0  0.14470  0.96440  0.99540  1.0000
  H   H17       1.0  0.39390  0.44050  0.99320  1.0000
  H   H18       1.0  0.60610  0.55950  0.49320  1.0000
  H   H19       1.0  0.60610  0.44050  0.50680  1.0000
  H   H20       1.0  0.39390  0.55950  0.00680  1.0000
  H   H21       1.0  0.89390  0.94050  0.99320  1.0000
  H   H22       1.0  0.10610  0.05950  0.49320  1.0000
  H   H23       1.0  0.10610  0.94050  0.50680  1.0000
  H   H24       1.0  0.89390  0.05950  0.00680  1.0000
  H   H25       1.0  0.60610  0.55950  0.00680  1.0000
  H   H26       1.0  0.39390  0.44050  0.50680  1.0000
  H   H27       1.0  0.39390  0.55950  0.49320  1.0000
  H   H28       1.0  0.60610  0.44050  0.99320  1.0000
  H   H29       1.0  0.10610  0.05950  0.00680  1.0000
  H   H30       1.0  0.89390  0.94050  0.50680  1.0000
  H   H31       1.0  0.89390  0.05950  0.49320  1.0000
  H   H32       1.0  0.10610  0.94050  0.99320  1.0000
  C   C49       1.0  0.30050  0.35100  0.97940  1.0000
  C   C50       1.0  0.69950  0.64900  0.47940  1.0000
  C   C51       1.0  0.69950  0.35100  0.52060  1.0000
  C   C52       1.0  0.30050  0.64900  0.02060  1.0000
  C   C53       1.0  0.80050  0.85100  0.97940  1.0000
  C   C54       1.0  0.19950  0.14900  0.47940  1.0000
  C   C55       1.0  0.19950  0.85100  0.52060  1.0000
  C   C56       1.0  0.80050  0.14900  0.02060  1.0000
  C   C57       1.0  0.69950  0.64900  0.02060  1.0000
  C   C58       1.0  0.30050  0.35100  0.52060  1.0000
  C   C59       1.0  0.30050  0.64900  0.47940  1.0000
  C   C60       1.0  0.69950  0.35100  0.97940  1.0000
  C   C61       1.0  0.19950  0.14900  0.02060  1.0000
  C   C62       1.0  0.80050  0.85100  0.52060  1.0000
  C   C63       1.0  0.80050  0.14900  0.47940  1.0000
  C   C64       1.0  0.19950  0.85100  0.97940  1.0000
  H   H33       1.0  0.26090  0.33650  0.94870  1.0000
  H   H34       1.0  0.73910  0.66350  0.44870  1.0000
  H   H35       1.0  0.73910  0.33650  0.55130  1.0000
  H   H36       1.0  0.26090  0.66350  0.05130  1.0000
  H   H37       1.0  0.76090  0.83650  0.94870  1.0000
  H   H38       1.0  0.23910  0.16350  0.44870  1.0000
  H   H39       1.0  0.23910  0.83650  0.55130  1.0000
  H   H40       1.0  0.76090  0.16350  0.05130  1.0000
  H   H41       1.0  0.73910  0.66350  0.05130  1.0000
  H   H42       1.0  0.26090  0.33650  0.55130  1.0000
  H   H43       1.0  0.26090  0.66350  0.44870  1.0000
  H   H44       1.0  0.73910  0.33650  0.94870  1.0000
  H   H45       1.0  0.23910  0.16350  0.05130  1.0000
  H   H46       1.0  0.76090  0.83650  0.55130  1.0000
  H   H47       1.0  0.76090  0.16350  0.44870  1.0000
  H   H48       1.0  0.23910  0.83650  0.94870  1.0000
  H   H49       1.0  0.33500  0.33770  0.93560  1.0000
  H   H50       1.0  0.66500  0.66230  0.43560  1.0000
  H   H51       1.0  0.66500  0.33770  0.56440  1.0000
  H   H52       1.0  0.33500  0.66230  0.06440  1.0000
  H   H53       1.0  0.83500  0.83770  0.93560  1.0000
  H   H54       1.0  0.16500  0.16230  0.43560  1.0000
  H   H55       1.0  0.16500  0.83770  0.56440  1.0000
  H   H56       1.0  0.83500  0.16230  0.06440  1.0000
  H   H57       1.0  0.66500  0.66230  0.06440  1.0000
  H   H58       1.0  0.33500  0.33770  0.56440  1.0000
  H   H59       1.0  0.33500  0.66230  0.43560  1.0000
  H   H60       1.0  0.66500  0.33770  0.93560  1.0000
  H   H61       1.0  0.16500  0.16230  0.06440  1.0000
  H   H62       1.0  0.83500  0.83770  0.56440  1.0000
  H   H63       1.0  0.83500  0.16230  0.43560  1.0000
  H   H64       1.0  0.16500  0.83770  0.93560  1.0000
  C   C65       1.0  0.30790  0.31310  0.07350  1.0000
  C   C66       1.0  0.69210  0.68690  0.57350  1.0000
  C   C67       1.0  0.69210  0.31310  0.42650  1.0000
  C   C68       1.0  0.30790  0.68690  0.92650  1.0000
  C   C69       1.0  0.80790  0.81310  0.07350  1.0000
  C   C70       1.0  0.19210  0.18690  0.57350  1.0000
  C   C71       1.0  0.19210  0.81310  0.42650  1.0000
  C   C72       1.0  0.80790  0.18690  0.92650  1.0000
  C   C73       1.0  0.69210  0.68690  0.92650  1.0000
  C   C74       1.0  0.30790  0.31310  0.42650  1.0000
  C   C75       1.0  0.30790  0.68690  0.57350  1.0000
  C   C76       1.0  0.69210  0.31310  0.07350  1.0000
  C   C77       1.0  0.19210  0.18690  0.92650  1.0000
  C   C78       1.0  0.80790  0.81310  0.42650  1.0000
  C   C79       1.0  0.80790  0.18690  0.57350  1.0000
  C   C80       1.0  0.19210  0.81310  0.07350  1.0000
  C   C81       1.0  0.43500  0.01440  0.25000  1.0000
  C   C82       1.0  0.56500  0.98560  0.75000  1.0000
  C   C83       1.0  0.56500  0.01440  0.25000  1.0000
  C   C84       1.0  0.43500  0.98560  0.75000  1.0000
  C   C85       1.0  0.93500  0.51440  0.25000  1.0000
  C   C86       1.0  0.06500  0.48560  0.75000  1.0000
  C   C87       1.0  0.06500  0.51440  0.25000  1.0000
  C   C88       1.0  0.93500  0.48560  0.75000  1.0000
  C   C89       1.0  0.46730  0.01530  0.33540  1.0000
  C   C90       1.0  0.53270  0.98470  0.83540  1.0000
  C   C91       1.0  0.53270  0.01530  0.16460  1.0000
  C   C92       1.0  0.46730  0.98470  0.66460  1.0000
  C   C93       1.0  0.96730  0.51530  0.33540  1.0000
  C   C94       1.0  0.03270  0.48470  0.83540  1.0000
  C   C95       1.0  0.03270  0.51530  0.16460  1.0000
  C   C96       1.0  0.96730  0.48470  0.66460  1.0000
  C   C97       1.0  0.53270  0.98470  0.66460  1.0000
  C   C98       1.0  0.46730  0.01530  0.16460  1.0000
  C   C99       1.0  0.46730  0.98470  0.83540  1.0000
  C   C100      1.0  0.53270  0.01530  0.33540  1.0000
  C   C101      1.0  0.03270  0.48470  0.66460  1.0000
  C   C102      1.0  0.96730  0.51530  0.16460  1.0000
  C   C103      1.0  0.96730  0.48470  0.83540  1.0000
  C   C104      1.0  0.03270  0.51530  0.33540  1.0000
  H   H65       1.0  0.44530  0.01590  0.39490  1.0000
  H   H66       1.0  0.55470  0.98410  0.89490  1.0000
  H   H67       1.0  0.55470  0.01590  0.10510  1.0000
  H   H68       1.0  0.44530  0.98410  0.60510  1.0000
  H   H69       1.0  0.94530  0.51590  0.39490  1.0000
  H   H70       1.0  0.05470  0.48410  0.89490  1.0000
  H   H71       1.0  0.05470  0.51590  0.10510  1.0000
  H   H72       1.0  0.94530  0.48410  0.60510  1.0000
  H   H73       1.0  0.55470  0.98410  0.60510  1.0000
  H   H74       1.0  0.44530  0.01590  0.10510  1.0000
  H   H75       1.0  0.44530  0.98410  0.89490  1.0000
  H   H76       1.0  0.55470  0.01590  0.39490  1.0000
  H   H77       1.0  0.05470  0.48410  0.60510  1.0000
  H   H78       1.0  0.94530  0.51590  0.10510  1.0000
  H   H79       1.0  0.94530  0.48410  0.89490  1.0000
  H   H80       1.0  0.05470  0.51590  0.39490  1.0000
  C   C105      1.0  0.36450  0.02310  0.25000  1.0000
  C   C106      1.0  0.63550  0.97690  0.75000  1.0000
  C   C107      1.0  0.63550  0.02310  0.25000  1.0000
  C   C108      1.0  0.36450  0.97690  0.75000  1.0000
  C   C109      1.0  0.86450  0.52310  0.25000  1.0000
  C   C110      1.0  0.13550  0.47690  0.75000  1.0000
  C   C111      1.0  0.13550  0.52310  0.25000  1.0000
  C   C112      1.0  0.86450  0.47690  0.75000  1.0000
  H   H81       1.0  0.34630  0.00120  0.19210  1.0000
  H   H82       1.0  0.65370  0.99880  0.69210  1.0000
  H   H83       1.0  0.65370  0.00120  0.30790  1.0000
  H   H84       1.0  0.34630  0.99880  0.80790  1.0000
  H   H85       1.0  0.84630  0.50120  0.19210  1.0000
  H   H86       1.0  0.15370  0.49880  0.69210  1.0000
  H   H87       1.0  0.15370  0.50120  0.30790  1.0000
  H   H88       1.0  0.84630  0.49880  0.80790  1.0000
  H   H89       1.0  0.65370  0.99880  0.80790  1.0000
  H   H90       1.0  0.34630  0.00120  0.30790  1.0000
  H   H91       1.0  0.34630  0.99880  0.69210  1.0000
  H   H92       1.0  0.65370  0.00120  0.19210  1.0000
  H   H93       1.0  0.15370  0.49880  0.80790  1.0000
  H   H94       1.0  0.84630  0.50120  0.30790  1.0000
  H   H95       1.0  0.84630  0.49880  0.69210  1.0000
  H   H96       1.0  0.15370  0.50120  0.19210  1.0000
  C   C113      1.0  0.34970  0.09870  0.25000  1.0000
  C   C114      1.0  0.65030  0.90130  0.75000  1.0000
  C   C115      1.0  0.65030  0.09870  0.25000  1.0000
  C   C116      1.0  0.34970  0.90130  0.75000  1.0000
  C   C117      1.0  0.84970  0.59870  0.25000  1.0000
  C   C118      1.0  0.15030  0.40130  0.75000  1.0000
  C   C119      1.0  0.15030  0.59870  0.25000  1.0000
  C   C120      1.0  0.84970  0.40130  0.75000  1.0000
