data_image0
_chemical_formula_structural       U8O64C32H16C16H16C16H32C40H16C8H16C8
_chemical_formula_sum              "U8 O64 C120 H96"
_cell_length_a       21.4844
_cell_length_b       19.4449
_cell_length_c       13.8633
_cell_angle_alpha    90
_cell_angle_beta     90
_cell_angle_gamma    90

_space_group_name_H-M_alt    "P 1"
_space_group_IT_number       1

loop_
  _space_group_symop_operation_xyz
  'x, y, z'

loop_
  _atom_site_type_symbol
  _atom_site_label
  _atom_site_symmetry_multiplicity
  _atom_site_fract_x
  _atom_site_fract_y
  _atom_site_fract_z
  _atom_site_occupancy
  U   U1        1.0  0.32250  0.24049  0.25000  1.0000
  U   U2        1.0  0.67750  0.75951  0.75000  1.0000
  U   U3        1.0  0.67750  0.24049  0.25000  1.0000
  U   U4        1.0  0.32250  0.75951  0.75000  1.0000
  U   U5        1.0  0.82250  0.74049  0.25000  1.0000
  U   U6        1.0  0.17750  0.25951  0.75000  1.0000
  U   U7        1.0  0.17750  0.74049  0.25000  1.0000
  U   U8        1.0  0.82250  0.25951  0.75000  1.0000
  O   O1        1.0  0.40252  0.26241  0.25000  1.0000
  O   O2        1.0  0.59748  0.73759  0.75000  1.0000
  O   O3        1.0  0.59748  0.26241  0.25000  1.0000
  O   O4        1.0  0.40252  0.73759  0.75000  1.0000
  O   O5        1.0  0.90252  0.76241  0.25000  1.0000
  O   O6        1.0  0.09748  0.23759  0.75000  1.0000
  O   O7        1.0  0.09748  0.76241  0.25000  1.0000
  O   O8        1.0  0.90252  0.23759  0.75000  1.0000
  O   O9        1.0  0.24243  0.21760  0.25000  1.0000
  O   O10       1.0  0.75757  0.78240  0.75000  1.0000
  O   O11       1.0  0.75757  0.21760  0.25000  1.0000
  O   O12       1.0  0.24243  0.78240  0.75000  1.0000
  O   O13       1.0  0.74243  0.71760  0.25000  1.0000
  O   O14       1.0  0.25757  0.28240  0.75000  1.0000
  O   O15       1.0  0.25757  0.71760  0.25000  1.0000
  O   O16       1.0  0.74243  0.28240  0.75000  1.0000
  O   O17       1.0  0.32155  0.24968  0.07200  1.0000
  O   O18       1.0  0.67845  0.75032  0.57200  1.0000
  O   O19       1.0  0.67845  0.24968  0.42800  1.0000
  O   O20       1.0  0.32155  0.75032  0.92800  1.0000
  O   O21       1.0  0.82155  0.74968  0.07200  1.0000
  O   O22       1.0  0.17845  0.25032  0.57200  1.0000
  O   O23       1.0  0.17845  0.74968  0.42800  1.0000
  O   O24       1.0  0.82155  0.25032  0.92800  1.0000
  O   O25       1.0  0.67845  0.75032  0.92800  1.0000
  O   O26       1.0  0.32155  0.24968  0.42800  1.0000
  O   O27       1.0  0.32155  0.75032  0.57200  1.0000
  O   O28       1.0  0.67845  0.24968  0.07200  1.0000
  O   O29       1.0  0.17845  0.25032  0.92800  1.0000
  O   O30       1.0  0.82155  0.74968  0.42800  1.0000
  O   O31       1.0  0.82155  0.25032  0.57200  1.0000
  O   O32       1.0  0.17845  0.74968  0.07200  1.0000
  O   O33       1.0  0.30098  0.34342  0.15313  1.0000
  O   O34       1.0  0.69902  0.65658  0.65313  1.0000
  O   O35       1.0  0.69902  0.34342  0.34687  1.0000
  O   O36       1.0  0.30098  0.65658  0.84687  1.0000
  O   O37       1.0  0.80098  0.84342  0.15313  1.0000
  O   O38       1.0  0.19902  0.15658  0.65313  1.0000
  O   O39       1.0  0.19902  0.84342  0.34687  1.0000
  O   O40       1.0  0.80098  0.15658  0.84687  1.0000
  O   O41       1.0  0.69902  0.65658  0.84687  1.0000
  O   O42       1.0  0.30098  0.34342  0.34687  1.0000
  O   O43       1.0  0.30098  0.65658  0.65313  1.0000
  O   O44       1.0  0.69902  0.34342  0.15313  1.0000
  O   O45       1.0  0.19902  0.15658  0.84687  1.0000
  O   O46       1.0  0.80098  0.84342  0.34687  1.0000
  O   O47       1.0  0.80098  0.15658  0.65313  1.0000
  O   O48       1.0  0.19902  0.84342  0.15313  1.0000
  O   O49       1.0  0.34514  0.13011  0.32934  1.0000
  O   O50       1.0  0.65486  0.86989  0.82934  1.0000
  O   O51       1.0  0.65486  0.13011  0.17066  1.0000
  O   O52       1.0  0.34514  0.86989  0.67066  1.0000
  O   O53       1.0  0.84514  0.63011  0.32934  1.0000
  O   O54       1.0  0.15486  0.36989  0.82934  1.0000
  O   O55       1.0  0.15486  0.63011  0.17066  1.0000
  O   O56       1.0  0.84514  0.36989  0.67066  1.0000
  O   O57       1.0  0.65486  0.86989  0.67066  1.0000
  O   O58       1.0  0.34514  0.13011  0.17066  1.0000
  O   O59       1.0  0.34514  0.86989  0.82934  1.0000
  O   O60       1.0  0.65486  0.13011  0.32934  1.0000
  O   O61       1.0  0.15486  0.36989  0.67066  1.0000
  O   O62       1.0  0.84514  0.63011  0.17066  1.0000
  O   O63       1.0  0.84514  0.36989  0.82934  1.0000
  O   O64       1.0  0.15486  0.63011  0.32934  1.0000
  C   C1        1.0  0.29890  0.42795  0.98970  1.0000
  C   C2        1.0  0.70110  0.57205  0.48970  1.0000
  C   C3        1.0  0.70110  0.42795  0.51030  1.0000
  C   C4        1.0  0.29890  0.57205  0.01030  1.0000
  C   C5        1.0  0.79890  0.92795  0.98970  1.0000
  C   C6        1.0  0.20110  0.07205  0.48970  1.0000
  C   C7        1.0  0.20110  0.92795  0.51030  1.0000
  C   C8        1.0  0.79890  0.07205  0.01030  1.0000
  C   C9        1.0  0.70110  0.57205  0.01030  1.0000
  C   C10       1.0  0.29890  0.42795  0.51030  1.0000
  C   C11       1.0  0.29890  0.57205  0.48970  1.0000
  C   C12       1.0  0.70110  0.42795  0.98970  1.0000
  C   C13       1.0  0.20110  0.07205  0.01030  1.0000
  C   C14       1.0  0.79890  0.92795  0.51030  1.0000
  C   C15       1.0  0.79890  0.07205  0.48970  1.0000
  C   C16       1.0  0.20110  0.92795  0.98970  1.0000
  C   C17       1.0  0.24390  0.46440  0.99400  1.0000
  C   C18       1.0  0.75610  0.53560  0.49400  1.0000
  C   C19       1.0  0.75610  0.46440  0.50600  1.0000
  C   C20       1.0  0.24390  0.53560  0.00600  1.0000
  C   C21       1.0  0.74390  0.96440  0.99400  1.0000
  C   C22       1.0  0.25610  0.03560  0.49400  1.0000
  C   C23       1.0  0.25610  0.96440  0.50600  1.0000
  C   C24       1.0  0.74390  0.03560  0.00600  1.0000
  C   C25       1.0  0.75610  0.53560  0.00600  1.0000
  C   C26       1.0  0.24390  0.46440  0.50600  1.0000
  C   C27       1.0  0.24390  0.53560  0.49400  1.0000
  C   C28       1.0  0.75610  0.46440  0.99400  1.0000
  C   C29       1.0  0.25610  0.03560  0.00600  1.0000
  C   C30       1.0  0.74390  0.96440  0.50600  1.0000
  C   C31       1.0  0.74390  0.03560  0.49400  1.0000
  C   C32       1.0  0.25610  0.96440  0.99400  1.0000
  H   H1        1.0  0.20540  0.44060  0.98880  1.0000
  H   H2        1.0  0.79460  0.55940  0.48880  1.0000
  H   H3        1.0  0.79460  0.44060  0.51120  1.0000
  H   H4        1.0  0.20540  0.55940  0.01120  1.0000
  H   H5        1.0  0.70540  0.94060  0.98880  1.0000
  H   H6        1.0  0.29460  0.05940  0.48880  1.0000
  H   H7        1.0  0.29460  0.94060  0.51120  1.0000
  H   H8        1.0  0.70540  0.05940  0.01120  1.0000
  H   H9        1.0  0.79460  0.55940  0.01120  1.0000
  H   H10       1.0  0.20540  0.44060  0.51120  1.0000
  H   H11       1.0  0.20540  0.55940  0.48880  1.0000
  H   H12       1.0  0.79460  0.44060  0.98880  1.0000
  H   H13       1.0  0.29460  0.05940  0.01120  1.0000
  H   H14       1.0  0.70540  0.94060  0.51120  1.0000
  H   H15       1.0  0.70540  0.05940  0.48880  1.0000
  H   H16       1.0  0.29460  0.94060  0.98880  1.0000
  C   C33       1.0  0.35340  0.46490  0.99570  1.0000
  C   C34       1.0  0.64660  0.53510  0.49570  1.0000
  C   C35       1.0  0.64660  0.46490  0.50430  1.0000
  C   C36       1.0  0.35340  0.53510  0.00430  1.0000
  C   C37       1.0  0.85340  0.96490  0.99570  1.0000
  C   C38       1.0  0.14660  0.03510  0.49570  1.0000
  C   C39       1.0  0.14660  0.96490  0.50430  1.0000
  C   C40       1.0  0.85340  0.03510  0.00430  1.0000
  C   C41       1.0  0.64660  0.53510  0.00430  1.0000
  C   C42       1.0  0.35340  0.46490  0.50430  1.0000
  C   C43       1.0  0.35340  0.53510  0.49570  1.0000
  C   C44       1.0  0.64660  0.46490  0.99570  1.0000
  C   C45       1.0  0.14660  0.03510  0.00430  1.0000
  C   C46       1.0  0.85340  0.96490  0.50430  1.0000
  C   C47       1.0  0.85340  0.03510  0.49570  1.0000
  C   C48       1.0  0.14660  0.96490  0.99570  1.0000
  H   H17       1.0  0.39200  0.44110  0.99390  1.0000
  H   H18       1.0  0.60800  0.55890  0.49390  1.0000
  H   H19       1.0  0.60800  0.44110  0.50610  1.0000
  H   H20       1.0  0.39200  0.55890  0.00610  1.0000
  H   H21       1.0  0.89200  0.94110  0.99390  1.0000
  H   H22       1.0  0.10800  0.05890  0.49390  1.0000
  H   H23       1.0  0.10800  0.94110  0.50610  1.0000
  H   H24       1.0  0.89200  0.05890  0.00610  1.0000
  H   H25       1.0  0.60800  0.55890  0.00610  1.0000
  H   H26       1.0  0.39200  0.44110  0.50610  1.0000
  H   H27       1.0  0.39200  0.55890  0.49390  1.0000
  H   H28       1.0  0.60800  0.44110  0.99390  1.0000
  H   H29       1.0  0.10800  0.05890  0.00610  1.0000
  H   H30       1.0  0.89200  0.94110  0.50610  1.0000
  H   H31       1.0  0.89200  0.05890  0.49390  1.0000
  H   H32       1.0  0.10800  0.94110  0.99390  1.0000
  C   C49       1.0  0.29920  0.35069  0.97960  1.0000
  C   C50       1.0  0.70080  0.64931  0.47960  1.0000
  C   C51       1.0  0.70080  0.35069  0.52040  1.0000
  C   C52       1.0  0.29920  0.64931  0.02040  1.0000
  C   C53       1.0  0.79920  0.85069  0.97960  1.0000
  C   C54       1.0  0.20080  0.14931  0.47960  1.0000
  C   C55       1.0  0.20080  0.85069  0.52040  1.0000
  C   C56       1.0  0.79920  0.14931  0.02040  1.0000
  C   C57       1.0  0.70080  0.64931  0.02040  1.0000
  C   C58       1.0  0.29920  0.35069  0.52040  1.0000
  C   C59       1.0  0.29920  0.64931  0.47960  1.0000
  C   C60       1.0  0.70080  0.35069  0.97960  1.0000
  C   C61       1.0  0.20080  0.14931  0.02040  1.0000
  C   C62       1.0  0.79920  0.85069  0.52040  1.0000
  C   C63       1.0  0.79920  0.14931  0.47960  1.0000
  C   C64       1.0  0.20080  0.85069  0.97960  1.0000
  H   H33       1.0  0.33300  0.33740  0.93470  1.0000
  H   H34       1.0  0.66700  0.66260  0.43470  1.0000
  H   H35       1.0  0.66700  0.33740  0.56530  1.0000
  H   H36       1.0  0.33300  0.66260  0.06530  1.0000
  H   H37       1.0  0.83300  0.83740  0.93470  1.0000
  H   H38       1.0  0.16700  0.16260  0.43470  1.0000
  H   H39       1.0  0.16700  0.83740  0.56530  1.0000
  H   H40       1.0  0.83300  0.16260  0.06530  1.0000
  H   H41       1.0  0.66700  0.66260  0.06530  1.0000
  H   H42       1.0  0.33300  0.33740  0.56530  1.0000
  H   H43       1.0  0.33300  0.66260  0.43470  1.0000
  H   H44       1.0  0.66700  0.33740  0.93470  1.0000
  H   H45       1.0  0.16700  0.16260  0.06530  1.0000
  H   H46       1.0  0.83300  0.83740  0.56530  1.0000
  H   H47       1.0  0.83300  0.16260  0.43470  1.0000
  H   H48       1.0  0.16700  0.83740  0.93470  1.0000
  H   H49       1.0  0.25930  0.33600  0.95040  1.0000
  H   H50       1.0  0.74070  0.66400  0.45040  1.0000
  H   H51       1.0  0.74070  0.33600  0.54960  1.0000
  H   H52       1.0  0.25930  0.66400  0.04960  1.0000
  H   H53       1.0  0.75930  0.83600  0.95040  1.0000
  H   H54       1.0  0.24070  0.16400  0.45040  1.0000
  H   H55       1.0  0.24070  0.83600  0.54960  1.0000
  H   H56       1.0  0.75930  0.16400  0.04960  1.0000
  H   H57       1.0  0.74070  0.66400  0.04960  1.0000
  H   H58       1.0  0.25930  0.33600  0.54960  1.0000
  H   H59       1.0  0.25930  0.66400  0.45040  1.0000
  H   H60       1.0  0.74070  0.33600  0.95040  1.0000
  H   H61       1.0  0.24070  0.16400  0.04960  1.0000
  H   H62       1.0  0.75930  0.83600  0.54960  1.0000
  H   H63       1.0  0.75930  0.16400  0.45040  1.0000
  H   H64       1.0  0.24070  0.83600  0.95040  1.0000
  C   C65       1.0  0.30812  0.31277  0.07380  1.0000
  C   C66       1.0  0.69188  0.68723  0.57380  1.0000
  C   C67       1.0  0.69188  0.31277  0.42620  1.0000
  C   C68       1.0  0.30812  0.68723  0.92620  1.0000
  C   C69       1.0  0.80812  0.81277  0.07380  1.0000
  C   C70       1.0  0.19188  0.18723  0.57380  1.0000
  C   C71       1.0  0.19188  0.81277  0.42620  1.0000
  C   C72       1.0  0.80812  0.18723  0.92620  1.0000
  C   C73       1.0  0.69188  0.68723  0.92620  1.0000
  C   C74       1.0  0.30812  0.31277  0.42620  1.0000
  C   C75       1.0  0.30812  0.68723  0.57380  1.0000
  C   C76       1.0  0.69188  0.31277  0.07380  1.0000
  C   C77       1.0  0.19188  0.18723  0.92620  1.0000
  C   C78       1.0  0.80812  0.81277  0.42620  1.0000
  C   C79       1.0  0.80812  0.18723  0.57380  1.0000
  C   C80       1.0  0.19188  0.81277  0.07380  1.0000
  C   C81       1.0  0.43510  0.01350  0.25000  1.0000
  C   C82       1.0  0.56490  0.98650  0.75000  1.0000
  C   C83       1.0  0.56490  0.01350  0.25000  1.0000
  C   C84       1.0  0.43510  0.98650  0.75000  1.0000
  C   C85       1.0  0.93510  0.51350  0.25000  1.0000
  C   C86       1.0  0.06490  0.48650  0.75000  1.0000
  C   C87       1.0  0.06490  0.51350  0.25000  1.0000
  C   C88       1.0  0.93510  0.48650  0.75000  1.0000
  C   C89       1.0  0.46730  0.01460  0.33530  1.0000
  C   C90       1.0  0.53270  0.98540  0.83530  1.0000
  C   C91       1.0  0.53270  0.01460  0.16470  1.0000
  C   C92       1.0  0.46730  0.98540  0.66470  1.0000
  C   C93       1.0  0.96730  0.51460  0.33530  1.0000
  C   C94       1.0  0.03270  0.48540  0.83530  1.0000
  C   C95       1.0  0.03270  0.51460  0.16470  1.0000
  C   C96       1.0  0.96730  0.48540  0.66470  1.0000
  C   C97       1.0  0.53270  0.98540  0.66470  1.0000
  C   C98       1.0  0.46730  0.01460  0.16470  1.0000
  C   C99       1.0  0.46730  0.98540  0.83530  1.0000
  C   C100      1.0  0.53270  0.01460  0.33530  1.0000
  C   C101      1.0  0.03270  0.48540  0.66470  1.0000
  C   C102      1.0  0.96730  0.51460  0.16470  1.0000
  C   C103      1.0  0.96730  0.48540  0.83530  1.0000
  C   C104      1.0  0.03270  0.51460  0.33530  1.0000
  H   H65       1.0  0.44530  0.01530  0.39470  1.0000
  H   H66       1.0  0.55470  0.98470  0.89470  1.0000
  H   H67       1.0  0.55470  0.01530  0.10530  1.0000
  H   H68       1.0  0.44530  0.98470  0.60530  1.0000
  H   H69       1.0  0.94530  0.51530  0.39470  1.0000
  H   H70       1.0  0.05470  0.48470  0.89470  1.0000
  H   H71       1.0  0.05470  0.51530  0.10530  1.0000
  H   H72       1.0  0.94530  0.48470  0.60530  1.0000
  H   H73       1.0  0.55470  0.98470  0.60530  1.0000
  H   H74       1.0  0.44530  0.01530  0.10530  1.0000
  H   H75       1.0  0.44530  0.98470  0.89470  1.0000
  H   H76       1.0  0.55470  0.01530  0.39470  1.0000
  H   H77       1.0  0.05470  0.48470  0.60530  1.0000
  H   H78       1.0  0.94530  0.51530  0.10530  1.0000
  H   H79       1.0  0.94530  0.48470  0.89470  1.0000
  H   H80       1.0  0.05470  0.51530  0.39470  1.0000
  C   C105      1.0  0.36430  0.02200  0.25000  1.0000
  C   C106      1.0  0.63570  0.97800  0.75000  1.0000
  C   C107      1.0  0.63570  0.02200  0.25000  1.0000
  C   C108      1.0  0.36430  0.97800  0.75000  1.0000
  C   C109      1.0  0.86430  0.52200  0.25000  1.0000
  C   C110      1.0  0.13570  0.47800  0.75000  1.0000
  C   C111      1.0  0.13570  0.52200  0.25000  1.0000
  C   C112      1.0  0.86430  0.47800  0.75000  1.0000
  H   H81       1.0  0.34610  0.00010  0.19210  1.0000
  H   H82       1.0  0.65390  0.99990  0.69210  1.0000
  H   H83       1.0  0.65390  0.00010  0.30790  1.0000
  H   H84       1.0  0.34610  0.99990  0.80790  1.0000
  H   H85       1.0  0.84610  0.50010  0.19210  1.0000
  H   H86       1.0  0.15390  0.49990  0.69210  1.0000
  H   H87       1.0  0.15390  0.50010  0.30790  1.0000
  H   H88       1.0  0.84610  0.49990  0.80790  1.0000
  H   H89       1.0  0.65390  0.99990  0.80790  1.0000
  H   H90       1.0  0.34610  0.00010  0.30790  1.0000
  H   H91       1.0  0.34610  0.99990  0.69210  1.0000
  H   H92       1.0  0.65390  0.00010  0.19210  1.0000
  H   H93       1.0  0.15390  0.49990  0.80790  1.0000
  H   H94       1.0  0.84610  0.50010  0.30790  1.0000
  H   H95       1.0  0.84610  0.49990  0.69210  1.0000
  H   H96       1.0  0.15390  0.50010  0.19210  1.0000
  C   C113      1.0  0.35010  0.09830  0.25000  1.0000
  C   C114      1.0  0.64990  0.90170  0.75000  1.0000
  C   C115      1.0  0.64990  0.09830  0.25000  1.0000
  C   C116      1.0  0.35010  0.90170  0.75000  1.0000
  C   C117      1.0  0.85010  0.59830  0.25000  1.0000
  C   C118      1.0  0.14990  0.40170  0.75000  1.0000
  C   C119      1.0  0.14990  0.59830  0.25000  1.0000
  C   C120      1.0  0.85010  0.40170  0.75000  1.0000
