data_image0
_chemical_formula_structural       C4H4C8H4C8H4C20H4C8H4C4H4C12N8O48Zn4
_chemical_formula_sum              "C64 H24 N8 O48 Zn4"
_cell_length_a       15.0919
_cell_length_b       14.1967
_cell_length_c       18.1636
_cell_angle_alpha    90
_cell_angle_beta     112.283
_cell_angle_gamma    90

_space_group_name_H-M_alt    "P 1"
_space_group_IT_number       1

loop_
  _space_group_symop_operation_xyz
  'x, y, z'

loop_
  _atom_site_type_symbol
  _atom_site_label
  _atom_site_symmetry_multiplicity
  _atom_site_fract_x
  _atom_site_fract_y
  _atom_site_fract_z
  _atom_site_occupancy
  C   C1        1.0  0.08430  0.80690  0.95176  1.0000
  C   C2        1.0  0.91570  0.30690  0.54824  1.0000
  C   C3        1.0  0.91570  0.19310  0.04824  1.0000
  C   C4        1.0  0.08430  0.69310  0.45176  1.0000
  H   H1        1.0  0.13910  0.82920  0.94580  1.0000
  H   H2        1.0  0.86090  0.32920  0.55420  1.0000
  H   H3        1.0  0.86090  0.17080  0.05420  1.0000
  H   H4        1.0  0.13910  0.67080  0.44580  1.0000
  C   C5        1.0  0.07961  0.71490  0.97531  1.0000
  C   C6        1.0  0.92039  0.21490  0.52469  1.0000
  C   C7        1.0  0.92039  0.28510  0.02469  1.0000
  C   C8        1.0  0.07961  0.78510  0.47531  1.0000
  C   C9        1.0  0.54000  0.49530  0.27977  1.0000
  C   C10       1.0  0.46000  0.99530  0.22023  1.0000
  C   C11       1.0  0.46000  0.50470  0.72023  1.0000
  C   C12       1.0  0.54000  0.00470  0.77977  1.0000
  H   H5        1.0  0.49850  0.48920  0.30650  1.0000
  H   H6        1.0  0.50150  0.98920  0.19350  1.0000
  H   H7        1.0  0.50150  0.51080  0.69350  1.0000
  H   H8        1.0  0.49850  0.01080  0.80650  1.0000
  C   C13       1.0  0.92010  0.74450  0.97192  1.0000
  C   C14       1.0  0.07990  0.24450  0.52808  1.0000
  C   C15       1.0  0.07990  0.25550  0.02808  1.0000
  C   C16       1.0  0.92010  0.75550  0.47192  1.0000
  C   C17       1.0  0.70120  0.51300  0.28454  1.0000
  C   C18       1.0  0.29880  0.01300  0.21546  1.0000
  C   C19       1.0  0.29880  0.48700  0.71546  1.0000
  C   C20       1.0  0.70120  0.98700  0.78454  1.0000
  H   H9        1.0  0.76640  0.51910  0.31440  1.0000
  H   H10       1.0  0.23360  0.01910  0.18560  1.0000
  H   H11       1.0  0.23360  0.48090  0.68560  1.0000
  H   H12       1.0  0.76640  0.98090  0.81440  1.0000
  C   C21       1.0  0.39930  0.48030  0.15128  1.0000
  C   C22       1.0  0.60070  0.98030  0.34872  1.0000
  C   C23       1.0  0.60070  0.51970  0.84872  1.0000
  C   C24       1.0  0.39930  0.01970  0.65128  1.0000
  C   C25       1.0  0.83000  0.70970  0.98079  1.0000
  C   C26       1.0  0.17000  0.20970  0.51921  1.0000
  C   C27       1.0  0.17000  0.29030  0.01921  1.0000
  C   C28       1.0  0.83000  0.79030  0.48079  1.0000
  C   C29       1.0  0.00630  0.86450  0.93740  1.0000
  C   C30       1.0  0.99370  0.36450  0.56260  1.0000
  C   C31       1.0  0.99370  0.13550  0.06260  1.0000
  C   C32       1.0  0.00630  0.63550  0.43740  1.0000
  C   C33       1.0  0.16410  0.65020  0.98870  1.0000
  C   C34       1.0  0.83590  0.15020  0.51130  1.0000
  C   C35       1.0  0.83590  0.34980  0.01130  1.0000
  C   C36       1.0  0.16410  0.84980  0.48870  1.0000
  C   C37       1.0  0.92470  0.83560  0.94767  1.0000
  C   C38       1.0  0.07530  0.33560  0.55233  1.0000
  C   C39       1.0  0.07530  0.16440  0.05233  1.0000
  C   C40       1.0  0.92470  0.66440  0.44767  1.0000
  H   H13       1.0  0.87360  0.87680  0.93840  1.0000
  H   H14       1.0  0.12640  0.37680  0.56160  1.0000
  H   H15       1.0  0.12640  0.12320  0.06160  1.0000
  H   H16       1.0  0.87360  0.62320  0.43840  1.0000
  C   C41       1.0  0.66700  0.50920  0.20237  1.0000
  C   C42       1.0  0.33300  0.00920  0.29763  1.0000
  C   C43       1.0  0.33300  0.49080  0.79763  1.0000
  C   C44       1.0  0.66700  0.99080  0.70237  1.0000
  C   C45       1.0  0.99744  0.68380  0.98523  1.0000
  C   C46       1.0  0.00256  0.18380  0.51477  1.0000
  C   C47       1.0  0.00256  0.31620  0.01477  1.0000
  C   C48       1.0  0.99744  0.81620  0.48523  1.0000
  H   H17       1.0  0.99400  0.62200  0.00090  1.0000
  H   H18       1.0  0.00600  0.12200  0.49910  1.0000
  H   H19       1.0  0.00600  0.37800  0.99910  1.0000
  H   H20       1.0  0.99400  0.87800  0.50090  1.0000
  C   C49       1.0  0.56940  0.50020  0.15937  1.0000
  C   C50       1.0  0.43060  0.00020  0.34063  1.0000
  C   C51       1.0  0.43060  0.49980  0.84063  1.0000
  C   C52       1.0  0.56940  0.99980  0.65937  1.0000
  H   H21       1.0  0.54620  0.49980  0.10410  1.0000
  H   H22       1.0  0.45380  0.99980  0.39590  1.0000
  H   H23       1.0  0.45380  0.50020  0.89590  1.0000
  H   H24       1.0  0.54620  0.00020  0.60410  1.0000
  C   C53       1.0  0.50580  0.49190  0.19772  1.0000
  C   C54       1.0  0.49420  0.99190  0.30228  1.0000
  C   C55       1.0  0.49420  0.50810  0.80228  1.0000
  C   C56       1.0  0.50580  0.00810  0.69772  1.0000
  C   C57       1.0  0.73640  0.51140  0.16029  1.0000
  C   C58       1.0  0.26360  0.01140  0.33971  1.0000
  C   C59       1.0  0.26360  0.48860  0.83971  1.0000
  C   C60       1.0  0.73640  0.98860  0.66029  1.0000
  C   C61       1.0  0.63640  0.50770  0.32115  1.0000
  C   C62       1.0  0.36360  0.00770  0.17885  1.0000
  C   C63       1.0  0.36360  0.49230  0.67885  1.0000
  C   C64       1.0  0.63640  0.99230  0.82115  1.0000
  N   N1        1.0  0.01050  0.96090  0.90984  1.0000
  N   N2        1.0  0.98950  0.46090  0.59016  1.0000
  N   N3        1.0  0.98950  0.03910  0.09016  1.0000
  N   N4        1.0  0.01050  0.53910  0.40984  1.0000
  N   N5        1.0  0.67190  0.51400  0.40884  1.0000
  N   N6        1.0  0.32810  0.01400  0.09116  1.0000
  N   N7        1.0  0.32810  0.48600  0.59116  1.0000
  N   N8        1.0  0.67190  0.98600  0.90884  1.0000
  O   O1        1.0  0.34673  0.47380  0.18846  1.0000
  O   O2        1.0  0.65327  0.97380  0.31154  1.0000
  O   O3        1.0  0.65327  0.52620  0.81154  1.0000
  O   O4        1.0  0.34673  0.02620  0.68846  1.0000
  O   O5        1.0  0.37339  0.47851  0.07713  1.0000
  O   O6        1.0  0.62661  0.97851  0.42287  1.0000
  O   O7        1.0  0.62661  0.52149  0.92287  1.0000
  O   O8        1.0  0.37339  0.02149  0.57713  1.0000
  O   O9        1.0  0.69780  0.52603  0.08656  1.0000
  O   O10       1.0  0.30220  0.02603  0.41344  1.0000
  O   O11       1.0  0.30220  0.47397  0.91344  1.0000
  O   O12       1.0  0.69780  0.97397  0.58656  1.0000
  O   O13       1.0  0.82189  0.49970  0.19861  1.0000
  O   O14       1.0  0.17811  0.99970  0.30139  1.0000
  O   O15       1.0  0.17811  0.50030  0.80139  1.0000
  O   O16       1.0  0.82189  0.00030  0.69861  1.0000
  O   O17       1.0  0.75614  0.50246  0.44652  1.0000
  O   O18       1.0  0.24386  0.00246  0.05348  1.0000
  O   O19       1.0  0.24386  0.49754  0.55348  1.0000
  O   O20       1.0  0.75614  0.99754  0.94652  1.0000
  O   O21       1.0  0.61470  0.53010  0.43901  1.0000
  O   O22       1.0  0.38530  0.03010  0.06099  1.0000
  O   O23       1.0  0.38530  0.46990  0.56099  1.0000
  O   O24       1.0  0.61470  0.96990  0.93901  1.0000
  O   O25       1.0  0.75878  0.76160  0.95705  1.0000
  O   O26       1.0  0.24122  0.26160  0.54295  1.0000
  O   O27       1.0  0.24122  0.23840  0.04295  1.0000
  O   O28       1.0  0.75878  0.73840  0.45705  1.0000
  O   O29       1.0  0.83452  0.63020  0.01013  1.0000
  O   O30       1.0  0.16548  0.13020  0.48987  1.0000
  O   O31       1.0  0.16548  0.36980  0.98987  1.0000
  O   O32       1.0  0.83452  0.86980  0.51013  1.0000
  O   O33       1.0  0.14992  0.56396  0.99785  1.0000
  O   O34       1.0  0.85008  0.06396  0.50215  1.0000
  O   O35       1.0  0.85008  0.43604  0.00215  1.0000
  O   O36       1.0  0.14992  0.93604  0.49785  1.0000
  O   O37       1.0  0.23984  0.68356  0.98951  1.0000
  O   O38       1.0  0.76016  0.18356  0.51049  1.0000
  O   O39       1.0  0.76016  0.31644  0.01049  1.0000
  O   O40       1.0  0.23984  0.81644  0.48951  1.0000
  O   O41       1.0  0.07782  0.98413  0.89227  1.0000
  O   O42       1.0  0.92218  0.48413  0.60773  1.0000
  O   O43       1.0  0.92218  0.01587  0.10773  1.0000
  O   O44       1.0  0.07782  0.51587  0.39227  1.0000
  O   O45       1.0  0.94565  0.01490  0.90571  1.0000
  O   O46       1.0  0.05435  0.51490  0.59429  1.0000
  O   O47       1.0  0.05435  0.98510  0.09429  1.0000
  O   O48       1.0  0.94565  0.48510  0.40571  1.0000
  Zn  Zn1       1.0  0.24643  0.47690  0.99266  1.0000
  Zn  Zn2       1.0  0.75357  0.97690  0.50734  1.0000
  Zn  Zn3       1.0  0.75357  0.52310  0.00734  1.0000
  Zn  Zn4       1.0  0.24643  0.02310  0.49266  1.0000
