data_image0
_chemical_formula_structural       Ga80S128N8C48N8C48N8C48N8C48H208
_chemical_formula_sum              "Ga80 S128 N32 C192 H208"
_cell_length_a       37.4329
_cell_length_b       19.7762
_cell_length_c       18.5622
_cell_angle_alpha    90
_cell_angle_beta     90
_cell_angle_gamma    90

_space_group_name_H-M_alt    "P 1"
_space_group_IT_number       1

loop_
  _space_group_symop_operation_xyz
  'x, y, z'

loop_
  _atom_site_type_symbol
  _atom_site_label
  _atom_site_symmetry_multiplicity
  _atom_site_fract_x
  _atom_site_fract_y
  _atom_site_fract_z
  _atom_site_occupancy
  Ga  Ga1       1.0  0.04982  0.37119  0.41561  1.0000
  Ga  Ga2       1.0  0.54982  0.62881  0.08439  1.0000
  Ga  Ga3       1.0  0.95018  0.37119  0.08439  1.0000
  Ga  Ga4       1.0  0.45018  0.62881  0.41561  1.0000
  Ga  Ga5       1.0  0.95018  0.62881  0.58439  1.0000
  Ga  Ga6       1.0  0.45018  0.37119  0.91561  1.0000
  Ga  Ga7       1.0  0.04982  0.62881  0.91561  1.0000
  Ga  Ga8       1.0  0.54982  0.37119  0.58439  1.0000
  Ga  Ga9       1.0  0.05799  0.21813  0.50431  1.0000
  Ga  Ga10      1.0  0.55799  0.78187  0.99569  1.0000
  Ga  Ga11      1.0  0.94201  0.21813  0.99569  1.0000
  Ga  Ga12      1.0  0.44201  0.78187  0.50431  1.0000
  Ga  Ga13      1.0  0.94201  0.78187  0.49569  1.0000
  Ga  Ga14      1.0  0.44201  0.21813  0.00431  1.0000
  Ga  Ga15      1.0  0.05799  0.78187  0.00431  1.0000
  Ga  Ga16      1.0  0.55799  0.21813  0.49569  1.0000
  Ga  Ga17      1.0  0.12870  0.35352  0.50933  1.0000
  Ga  Ga18      1.0  0.62870  0.64648  0.99067  1.0000
  Ga  Ga19      1.0  0.87130  0.35352  0.99067  1.0000
  Ga  Ga20      1.0  0.37130  0.64648  0.50933  1.0000
  Ga  Ga21      1.0  0.87130  0.64648  0.49067  1.0000
  Ga  Ga22      1.0  0.37130  0.35352  0.00933  1.0000
  Ga  Ga23      1.0  0.12870  0.64648  0.00933  1.0000
  Ga  Ga24      1.0  0.62870  0.35352  0.49067  1.0000
  Ga  Ga25      1.0  0.10940  0.26220  0.33310  1.0000
  Ga  Ga26      1.0  0.60940  0.73780  0.16690  1.0000
  Ga  Ga27      1.0  0.89060  0.26220  0.16690  1.0000
  Ga  Ga28      1.0  0.39060  0.73780  0.33310  1.0000
  Ga  Ga29      1.0  0.89060  0.73780  0.66690  1.0000
  Ga  Ga30      1.0  0.39060  0.26220  0.83310  1.0000
  Ga  Ga31      1.0  0.10940  0.73780  0.83310  1.0000
  Ga  Ga32      1.0  0.60940  0.26220  0.66690  1.0000
  Ga  Ga33      1.0  0.07951  0.06393  0.58391  1.0000
  Ga  Ga34      1.0  0.57951  0.93607  0.91609  1.0000
  Ga  Ga35      1.0  0.92049  0.06393  0.91609  1.0000
  Ga  Ga36      1.0  0.42049  0.93607  0.58391  1.0000
  Ga  Ga37      1.0  0.92049  0.93607  0.41609  1.0000
  Ga  Ga38      1.0  0.42049  0.06393  0.08391  1.0000
  Ga  Ga39      1.0  0.07951  0.93607  0.08391  1.0000
  Ga  Ga40      1.0  0.57951  0.06393  0.41609  1.0000
  Ga  Ga41      1.0  0.12526  0.09352  0.42563  1.0000
  Ga  Ga42      1.0  0.62526  0.90648  0.07437  1.0000
  Ga  Ga43      1.0  0.87474  0.09352  0.07437  1.0000
  Ga  Ga44      1.0  0.37474  0.90648  0.42563  1.0000
  Ga  Ga45      1.0  0.87474  0.90648  0.57437  1.0000
  Ga  Ga46      1.0  0.37474  0.09352  0.92563  1.0000
  Ga  Ga47      1.0  0.12526  0.90648  0.92563  1.0000
  Ga  Ga48      1.0  0.62526  0.09352  0.57437  1.0000
  Ga  Ga49      1.0  0.14535  0.18529  0.60132  1.0000
  Ga  Ga50      1.0  0.64535  0.81471  0.89868  1.0000
  Ga  Ga51      1.0  0.85465  0.18529  0.89868  1.0000
  Ga  Ga52      1.0  0.35465  0.81471  0.60132  1.0000
  Ga  Ga53      1.0  0.85465  0.81471  0.39868  1.0000
  Ga  Ga54      1.0  0.35465  0.18529  0.10132  1.0000
  Ga  Ga55      1.0  0.14535  0.81471  0.10132  1.0000
  Ga  Ga56      1.0  0.64535  0.18529  0.39868  1.0000
  Ga  Ga57      1.0  0.17204  0.14541  0.27408  1.0000
  Ga  Ga58      1.0  0.67204  0.85459  0.22592  1.0000
  Ga  Ga59      1.0  0.82796  0.14541  0.22592  1.0000
  Ga  Ga60      1.0  0.32796  0.85459  0.27408  1.0000
  Ga  Ga61      1.0  0.82796  0.85459  0.72592  1.0000
  Ga  Ga62      1.0  0.32796  0.14541  0.77408  1.0000
  Ga  Ga63      1.0  0.17204  0.85459  0.77408  1.0000
  Ga  Ga64      1.0  0.67204  0.14541  0.72592  1.0000
  Ga  Ga65      1.0  0.19626  0.23006  0.43074  1.0000
  Ga  Ga66      1.0  0.69626  0.76994  0.06926  1.0000
  Ga  Ga67      1.0  0.80374  0.23006  0.06926  1.0000
  Ga  Ga68      1.0  0.30374  0.76994  0.43074  1.0000
  Ga  Ga69      1.0  0.80374  0.76994  0.56926  1.0000
  Ga  Ga70      1.0  0.30374  0.23006  0.93074  1.0000
  Ga  Ga71      1.0  0.19626  0.76994  0.93074  1.0000
  Ga  Ga72      1.0  0.69626  0.23006  0.56926  1.0000
  Ga  Ga73      1.0  0.20818  0.31276  0.59371  1.0000
  Ga  Ga74      1.0  0.70818  0.68724  0.90629  1.0000
  Ga  Ga75      1.0  0.79182  0.31276  0.90629  1.0000
  Ga  Ga76      1.0  0.29182  0.68724  0.59371  1.0000
  Ga  Ga77      1.0  0.79182  0.68724  0.40629  1.0000
  Ga  Ga78      1.0  0.29182  0.31276  0.09371  1.0000
  Ga  Ga79      1.0  0.20818  0.68724  0.09371  1.0000
  Ga  Ga80      1.0  0.70818  0.31276  0.40629  1.0000
  S   S1        1.0  0.01660  0.29573  0.47711  1.0000
  S   S2        1.0  0.51660  0.70427  0.02289  1.0000
  S   S3        1.0  0.98340  0.29573  0.02289  1.0000
  S   S4        1.0  0.48340  0.70427  0.47711  1.0000
  S   S5        1.0  0.98340  0.70427  0.52289  1.0000
  S   S6        1.0  0.48340  0.29573  0.97711  1.0000
  S   S7        1.0  0.01660  0.70427  0.97711  1.0000
  S   S8        1.0  0.51660  0.29573  0.52289  1.0000
  S   S9        1.0  0.06760  0.33802  0.30547  1.0000
  S   S10       1.0  0.56760  0.66198  0.19453  1.0000
  S   S11       1.0  0.93240  0.33802  0.19453  1.0000
  S   S12       1.0  0.43240  0.66198  0.30547  1.0000
  S   S13       1.0  0.93240  0.66198  0.69453  1.0000
  S   S14       1.0  0.43240  0.33802  0.80547  1.0000
  S   S15       1.0  0.06760  0.66198  0.80547  1.0000
  S   S16       1.0  0.56760  0.33802  0.69453  1.0000
  S   S17       1.0  0.08842  0.43277  0.48092  1.0000
  S   S18       1.0  0.58842  0.56723  0.01908  1.0000
  S   S19       1.0  0.91158  0.43277  0.01908  1.0000
  S   S20       1.0  0.41158  0.56723  0.48092  1.0000
  S   S21       1.0  0.91158  0.56723  0.51908  1.0000
  S   S22       1.0  0.41158  0.43277  0.98092  1.0000
  S   S23       1.0  0.08842  0.56723  0.98092  1.0000
  S   S24       1.0  0.58842  0.43277  0.51908  1.0000
  S   S25       1.0  0.03233  0.13238  0.56419  1.0000
  S   S26       1.0  0.53233  0.86762  0.93581  1.0000
  S   S27       1.0  0.96767  0.13238  0.93581  1.0000
  S   S28       1.0  0.46767  0.86762  0.56419  1.0000
  S   S29       1.0  0.96767  0.86762  0.43581  1.0000
  S   S30       1.0  0.46767  0.13238  0.06419  1.0000
  S   S31       1.0  0.03233  0.86762  0.06419  1.0000
  S   S32       1.0  0.53233  0.13238  0.43581  1.0000
  S   S33       1.0  0.08291  0.17522  0.39870  1.0000
  S   S34       1.0  0.58291  0.82478  0.10130  1.0000
  S   S35       1.0  0.91709  0.17522  0.10130  1.0000
  S   S36       1.0  0.41709  0.82478  0.39870  1.0000
  S   S37       1.0  0.91709  0.82478  0.60130  1.0000
  S   S38       1.0  0.41709  0.17522  0.89870  1.0000
  S   S39       1.0  0.08291  0.82478  0.89870  1.0000
  S   S40       1.0  0.58291  0.17522  0.60130  1.0000
  S   S41       1.0  0.13293  0.22134  0.23169  1.0000
  S   S42       1.0  0.63293  0.77866  0.26831  1.0000
  S   S43       1.0  0.86707  0.22134  0.26831  1.0000
  S   S44       1.0  0.36707  0.77866  0.23169  1.0000
  S   S45       1.0  0.86707  0.77866  0.76831  1.0000
  S   S46       1.0  0.36707  0.22134  0.73169  1.0000
  S   S47       1.0  0.13293  0.77866  0.73169  1.0000
  S   S48       1.0  0.63293  0.22134  0.76831  1.0000
  S   S49       1.0  0.10229  0.26649  0.57516  1.0000
  S   S50       1.0  0.60229  0.73351  0.92484  1.0000
  S   S51       1.0  0.89771  0.26649  0.92484  1.0000
  S   S52       1.0  0.39771  0.73351  0.57516  1.0000
  S   S53       1.0  0.89771  0.73351  0.42484  1.0000
  S   S54       1.0  0.39771  0.26649  0.07516  1.0000
  S   S55       1.0  0.10229  0.73351  0.07516  1.0000
  S   S56       1.0  0.60229  0.26649  0.42484  1.0000
  S   S57       1.0  0.15391  0.31183  0.40329  1.0000
  S   S58       1.0  0.65391  0.68817  0.09671  1.0000
  S   S59       1.0  0.84609  0.31183  0.09671  1.0000
  S   S60       1.0  0.34609  0.68817  0.40329  1.0000
  S   S61       1.0  0.84609  0.68817  0.59671  1.0000
  S   S62       1.0  0.34609  0.31183  0.90329  1.0000
  S   S63       1.0  0.15391  0.68817  0.90329  1.0000
  S   S64       1.0  0.65391  0.31183  0.59671  1.0000
  S   S65       1.0  0.17093  0.40048  0.57822  1.0000
  S   S66       1.0  0.67093  0.59952  0.92178  1.0000
  S   S67       1.0  0.82907  0.40048  0.92178  1.0000
  S   S68       1.0  0.32907  0.59952  0.57822  1.0000
  S   S69       1.0  0.82907  0.59952  0.42178  1.0000
  S   S70       1.0  0.32907  0.40048  0.07822  1.0000
  S   S71       1.0  0.17093  0.59952  0.07822  1.0000
  S   S72       1.0  0.67093  0.40048  0.42178  1.0000
  S   S73       1.0  0.10057  0.00904  0.48714  1.0000
  S   S74       1.0  0.60057  0.99096  0.01286  1.0000
  S   S75       1.0  0.89943  0.00904  0.01286  1.0000
  S   S76       1.0  0.39943  0.99096  0.48714  1.0000
  S   S77       1.0  0.89943  0.99096  0.51286  1.0000
  S   S78       1.0  0.39943  0.00904  0.98714  1.0000
  S   S79       1.0  0.10057  0.99096  0.98714  1.0000
  S   S80       1.0  0.60057  0.00904  0.51286  1.0000
  S   S81       1.0  0.14844  0.05145  0.32373  1.0000
  S   S82       1.0  0.64844  0.94855  0.17627  1.0000
  S   S83       1.0  0.85156  0.05145  0.17627  1.0000
  S   S84       1.0  0.35156  0.94855  0.32373  1.0000
  S   S85       1.0  0.85156  0.94855  0.67627  1.0000
  S   S86       1.0  0.35156  0.05145  0.82373  1.0000
  S   S87       1.0  0.14844  0.94855  0.82373  1.0000
  S   S88       1.0  0.64844  0.05145  0.67627  1.0000
  S   S89       1.0  0.11998  0.10082  0.66432  1.0000
  S   S90       1.0  0.61998  0.89918  0.83568  1.0000
  S   S91       1.0  0.88002  0.10082  0.83568  1.0000
  S   S92       1.0  0.38002  0.89918  0.66432  1.0000
  S   S93       1.0  0.88002  0.89918  0.33568  1.0000
  S   S94       1.0  0.38002  0.10082  0.16432  1.0000
  S   S95       1.0  0.11998  0.89918  0.16432  1.0000
  S   S96       1.0  0.61998  0.10082  0.33568  1.0000
  S   S97       1.0  0.16992  0.14258  0.49578  1.0000
  S   S98       1.0  0.66992  0.85742  0.00422  1.0000
  S   S99       1.0  0.83008  0.14258  0.00422  1.0000
  S   S100      1.0  0.33008  0.85742  0.49578  1.0000
  S   S101      1.0  0.83008  0.85742  0.50422  1.0000
  S   S102      1.0  0.33008  0.14258  0.99578  1.0000
  S   S103      1.0  0.16992  0.85742  0.99578  1.0000
  S   S104      1.0  0.66992  0.14258  0.50422  1.0000
  S   S105      1.0  0.22061  0.18762  0.33016  1.0000
  S   S106      1.0  0.72061  0.81238  0.16984  1.0000
  S   S107      1.0  0.77939  0.18762  0.16984  1.0000
  S   S108      1.0  0.27939  0.81238  0.33016  1.0000
  S   S109      1.0  0.77939  0.81238  0.66984  1.0000
  S   S110      1.0  0.27939  0.18762  0.83016  1.0000
  S   S111      1.0  0.22061  0.81238  0.83016  1.0000
  S   S112      1.0  0.72061  0.18762  0.66984  1.0000
  S   S113      1.0  0.18871  0.23155  0.66906  1.0000
  S   S114      1.0  0.68871  0.76845  0.83094  1.0000
  S   S115      1.0  0.81129  0.23155  0.83094  1.0000
  S   S116      1.0  0.31129  0.76845  0.66906  1.0000
  S   S117      1.0  0.81129  0.76845  0.33094  1.0000
  S   S118      1.0  0.31129  0.23155  0.16906  1.0000
  S   S119      1.0  0.18871  0.76845  0.16906  1.0000
  S   S120      1.0  0.68871  0.23155  0.33094  1.0000
  S   S121      1.0  0.23926  0.27693  0.49709  1.0000
  S   S122      1.0  0.73926  0.72307  0.00291  1.0000
  S   S123      1.0  0.76074  0.27693  0.00291  1.0000
  S   S124      1.0  0.26074  0.72307  0.49709  1.0000
  S   S125      1.0  0.76074  0.72307  0.50291  1.0000
  S   S126      1.0  0.26074  0.27693  0.99709  1.0000
  S   S127      1.0  0.23926  0.72307  0.99709  1.0000
  S   S128      1.0  0.73926  0.27693  0.50291  1.0000
  N   N1        1.0  0.01212  0.44070  0.38670  1.0000
  N   N2        1.0  0.51212  0.55930  0.11330  1.0000
  N   N3        1.0  0.98788  0.44070  0.11330  1.0000
  N   N4        1.0  0.48788  0.55930  0.38670  1.0000
  N   N5        1.0  0.98788  0.55930  0.61330  1.0000
  N   N6        1.0  0.48788  0.44070  0.88670  1.0000
  N   N7        1.0  0.01212  0.55930  0.88670  1.0000
  N   N8        1.0  0.51212  0.44070  0.61330  1.0000
  C   C1        1.0  0.01320  0.50620  0.41080  1.0000
  C   C2        1.0  0.51320  0.49380  0.08920  1.0000
  C   C3        1.0  0.98680  0.50620  0.08920  1.0000
  C   C4        1.0  0.48680  0.49380  0.41080  1.0000
  C   C5        1.0  0.98680  0.49380  0.58920  1.0000
  C   C6        1.0  0.48680  0.50620  0.91080  1.0000
  C   C7        1.0  0.01320  0.49380  0.91080  1.0000
  C   C8        1.0  0.51320  0.50620  0.58920  1.0000
  C   C9        1.0  0.98740  0.55310  0.38810  1.0000
  C   C10       1.0  0.48740  0.44690  0.11190  1.0000
  C   C11       1.0  0.01260  0.55310  0.11190  1.0000
  C   C12       1.0  0.51260  0.44690  0.38810  1.0000
  C   C13       1.0  0.01260  0.44690  0.61190  1.0000
  C   C14       1.0  0.51260  0.55310  0.88810  1.0000
  C   C15       1.0  0.98740  0.44690  0.88810  1.0000
  C   C16       1.0  0.48740  0.55310  0.61190  1.0000
  C   C17       1.0  0.96070  0.53460  0.34130  1.0000
  C   C18       1.0  0.46070  0.46540  0.15870  1.0000
  C   C19       1.0  0.03930  0.53460  0.15870  1.0000
  C   C20       1.0  0.53930  0.46540  0.34130  1.0000
  C   C21       1.0  0.03930  0.46540  0.65870  1.0000
  C   C22       1.0  0.53930  0.53460  0.84130  1.0000
  C   C23       1.0  0.96070  0.46540  0.84130  1.0000
  C   C24       1.0  0.46070  0.53460  0.65870  1.0000
  C   C25       1.0  0.96050  0.46720  0.31830  1.0000
  C   C26       1.0  0.46050  0.53280  0.18170  1.0000
  C   C27       1.0  0.03950  0.46720  0.18170  1.0000
  C   C28       1.0  0.53950  0.53280  0.31830  1.0000
  C   C29       1.0  0.03950  0.53280  0.68170  1.0000
  C   C30       1.0  0.53950  0.46720  0.81830  1.0000
  C   C31       1.0  0.96050  0.53280  0.81830  1.0000
  C   C32       1.0  0.46050  0.46720  0.68170  1.0000
  C   C33       1.0  0.98680  0.42350  0.34040  1.0000
  C   C34       1.0  0.48680  0.57650  0.15960  1.0000
  C   C35       1.0  0.01320  0.42350  0.15960  1.0000
  C   C36       1.0  0.51320  0.57650  0.34040  1.0000
  C   C37       1.0  0.01320  0.57650  0.65960  1.0000
  C   C38       1.0  0.51320  0.42350  0.84040  1.0000
  C   C39       1.0  0.98680  0.57650  0.84040  1.0000
  C   C40       1.0  0.48680  0.42350  0.65960  1.0000
  C   C41       1.0  0.93290  0.58320  0.31500  1.0000
  C   C42       1.0  0.43290  0.41680  0.18500  1.0000
  C   C43       1.0  0.06710  0.58320  0.18500  1.0000
  C   C44       1.0  0.56710  0.41680  0.31500  1.0000
  C   C45       1.0  0.06710  0.41680  0.68500  1.0000
  C   C46       1.0  0.56710  0.58320  0.81500  1.0000
  C   C47       1.0  0.93290  0.41680  0.81500  1.0000
  C   C48       1.0  0.43290  0.58320  0.68500  1.0000
  N   N9        1.0  0.24940  0.35730  0.64620  1.0000
  N   N10       1.0  0.74940  0.64270  0.85380  1.0000
  N   N11       1.0  0.75060  0.35730  0.85380  1.0000
  N   N12       1.0  0.25060  0.64270  0.64620  1.0000
  N   N13       1.0  0.75060  0.64270  0.35380  1.0000
  N   N14       1.0  0.25060  0.35730  0.14620  1.0000
  N   N15       1.0  0.24940  0.64270  0.14620  1.0000
  N   N16       1.0  0.74940  0.35730  0.35380  1.0000
  C   C49       1.0  0.26580  0.33120  0.70120  1.0000
  C   C50       1.0  0.76580  0.66880  0.79880  1.0000
  C   C51       1.0  0.73420  0.33120  0.79880  1.0000
  C   C52       1.0  0.23420  0.66880  0.70120  1.0000
  C   C53       1.0  0.73420  0.66880  0.29880  1.0000
  C   C54       1.0  0.23420  0.33120  0.20120  1.0000
  C   C55       1.0  0.26580  0.66880  0.20120  1.0000
  C   C56       1.0  0.76580  0.33120  0.29880  1.0000
  C   C57       1.0  0.29740  0.35630  0.72920  1.0000
  C   C58       1.0  0.79740  0.64370  0.77080  1.0000
  C   C59       1.0  0.70260  0.35630  0.77080  1.0000
  C   C60       1.0  0.20260  0.64370  0.72920  1.0000
  C   C61       1.0  0.70260  0.64370  0.27080  1.0000
  C   C62       1.0  0.20260  0.35630  0.22920  1.0000
  C   C63       1.0  0.29740  0.64370  0.22920  1.0000
  C   C64       1.0  0.79740  0.35630  0.27080  1.0000
  C   C65       1.0  0.31200  0.41230  0.70140  1.0000
  C   C66       1.0  0.81200  0.58770  0.79860  1.0000
  C   C67       1.0  0.68800  0.41230  0.79860  1.0000
  C   C68       1.0  0.18800  0.58770  0.70140  1.0000
  C   C69       1.0  0.68800  0.58770  0.29860  1.0000
  C   C70       1.0  0.18800  0.41230  0.20140  1.0000
  C   C71       1.0  0.31200  0.58770  0.20140  1.0000
  C   C72       1.0  0.81200  0.41230  0.29860  1.0000
  C   C73       1.0  0.29700  0.43490  0.63980  1.0000
  C   C74       1.0  0.79700  0.56510  0.86020  1.0000
  C   C75       1.0  0.70300  0.43490  0.86020  1.0000
  C   C76       1.0  0.20300  0.56510  0.63980  1.0000
  C   C77       1.0  0.70300  0.56510  0.36020  1.0000
  C   C78       1.0  0.20300  0.43490  0.13980  1.0000
  C   C79       1.0  0.29700  0.56510  0.13980  1.0000
  C   C80       1.0  0.79700  0.43490  0.36020  1.0000
  C   C81       1.0  0.26600  0.40650  0.61020  1.0000
  C   C82       1.0  0.76600  0.59350  0.88980  1.0000
  C   C83       1.0  0.73400  0.40650  0.88980  1.0000
  C   C84       1.0  0.23400  0.59350  0.61020  1.0000
  C   C85       1.0  0.73400  0.59350  0.38980  1.0000
  C   C86       1.0  0.23400  0.40650  0.11020  1.0000
  C   C87       1.0  0.26600  0.59350  0.11020  1.0000
  C   C88       1.0  0.76600  0.40650  0.38980  1.0000
  C   C89       1.0  0.34710  0.43950  0.72970  1.0000
  C   C90       1.0  0.84710  0.56050  0.77030  1.0000
  C   C91       1.0  0.65290  0.43950  0.77030  1.0000
  C   C92       1.0  0.15290  0.56050  0.72970  1.0000
  C   C93       1.0  0.65290  0.56050  0.27030  1.0000
  C   C94       1.0  0.15290  0.43950  0.22970  1.0000
  C   C95       1.0  0.34710  0.56050  0.22970  1.0000
  C   C96       1.0  0.84710  0.43950  0.27030  1.0000
  N   N17       1.0  0.05543  0.98370  0.63240  1.0000
  N   N18       1.0  0.55543  0.01630  0.86760  1.0000
  N   N19       1.0  0.94457  0.98370  0.86760  1.0000
  N   N20       1.0  0.44457  0.01630  0.63240  1.0000
  N   N21       1.0  0.94457  0.01630  0.36760  1.0000
  N   N22       1.0  0.44457  0.98370  0.13240  1.0000
  N   N23       1.0  0.05543  0.01630  0.13240  1.0000
  N   N24       1.0  0.55543  0.98370  0.36760  1.0000
  C   C97       1.0  0.02720  0.95580  0.59850  1.0000
  C   C98       1.0  0.52720  0.04420  0.90150  1.0000
  C   C99       1.0  0.97280  0.95580  0.90150  1.0000
  C   C100      1.0  0.47280  0.04420  0.59850  1.0000
  C   C101      1.0  0.97280  0.04420  0.40150  1.0000
  C   C102      1.0  0.47280  0.95580  0.09850  1.0000
  C   C103      1.0  0.02720  0.04420  0.09850  1.0000
  C   C104      1.0  0.52720  0.95580  0.40150  1.0000
  C   C105      1.0  0.01060  0.89890  0.62290  1.0000
  C   C106      1.0  0.51060  0.10110  0.87710  1.0000
  C   C107      1.0  0.98940  0.89890  0.87710  1.0000
  C   C108      1.0  0.48940  0.10110  0.62290  1.0000
  C   C109      1.0  0.98940  0.10110  0.37710  1.0000
  C   C110      1.0  0.48940  0.89890  0.12290  1.0000
  C   C111      1.0  0.01060  0.10110  0.12290  1.0000
  C   C112      1.0  0.51060  0.89890  0.37710  1.0000
  C   C113      1.0  0.02270  0.86620  0.68360  1.0000
  C   C114      1.0  0.52270  0.13380  0.81640  1.0000
  C   C115      1.0  0.97730  0.86620  0.81640  1.0000
  C   C116      1.0  0.47730  0.13380  0.68360  1.0000
  C   C117      1.0  0.97730  0.13380  0.31640  1.0000
  C   C118      1.0  0.47730  0.86620  0.18360  1.0000
  C   C119      1.0  0.02270  0.13380  0.18360  1.0000
  C   C120      1.0  0.52270  0.86620  0.31640  1.0000
  C   C121      1.0  0.05200  0.89430  0.71860  1.0000
  C   C122      1.0  0.55200  0.10570  0.78140  1.0000
  C   C123      1.0  0.94800  0.89430  0.78140  1.0000
  C   C124      1.0  0.44800  0.10570  0.71860  1.0000
  C   C125      1.0  0.94800  0.10570  0.28140  1.0000
  C   C126      1.0  0.44800  0.89430  0.21860  1.0000
  C   C127      1.0  0.05200  0.10570  0.21860  1.0000
  C   C128      1.0  0.55200  0.89430  0.28140  1.0000
  C   C129      1.0  0.06780  0.95360  0.69120  1.0000
  C   C130      1.0  0.56780  0.04640  0.80880  1.0000
  C   C131      1.0  0.93220  0.95360  0.80880  1.0000
  C   C132      1.0  0.43220  0.04640  0.69120  1.0000
  C   C133      1.0  0.93220  0.04640  0.30880  1.0000
  C   C134      1.0  0.43220  0.95360  0.19120  1.0000
  C   C135      1.0  0.06780  0.04640  0.19120  1.0000
  C   C136      1.0  0.56780  0.95360  0.30880  1.0000
  C   C137      1.0  0.00470  0.80180  0.70890  1.0000
  C   C138      1.0  0.50470  0.19820  0.79110  1.0000
  C   C139      1.0  0.99530  0.80180  0.79110  1.0000
  C   C140      1.0  0.49530  0.19820  0.70890  1.0000
  C   C141      1.0  0.99530  0.19820  0.29110  1.0000
  C   C142      1.0  0.49530  0.80180  0.20890  1.0000
  C   C143      1.0  0.00470  0.19820  0.20890  1.0000
  C   C144      1.0  0.50470  0.80180  0.29110  1.0000
  N   N25       1.0  0.80708  0.10880  0.31870  1.0000
  N   N26       1.0  0.30708  0.89120  0.18130  1.0000
  N   N27       1.0  0.19292  0.10880  0.18130  1.0000
  N   N28       1.0  0.69292  0.89120  0.31870  1.0000
  N   N29       1.0  0.19292  0.89120  0.68130  1.0000
  N   N30       1.0  0.69292  0.10880  0.81870  1.0000
  N   N31       1.0  0.80708  0.89120  0.81870  1.0000
  N   N32       1.0  0.30708  0.10880  0.68130  1.0000
  C   C145      1.0  0.77690  0.13490  0.34660  1.0000
  C   C146      1.0  0.27690  0.86510  0.15340  1.0000
  C   C147      1.0  0.22310  0.13490  0.15340  1.0000
  C   C148      1.0  0.72310  0.86510  0.34660  1.0000
  C   C149      1.0  0.22310  0.86510  0.65340  1.0000
  C   C150      1.0  0.72310  0.13490  0.84660  1.0000
  C   C151      1.0  0.77690  0.86510  0.84660  1.0000
  C   C152      1.0  0.27690  0.13490  0.65340  1.0000
  C   C153      1.0  0.76110  0.11040  0.40920  1.0000
  C   C154      1.0  0.26110  0.88960  0.09080  1.0000
  C   C155      1.0  0.23890  0.11040  0.09080  1.0000
  C   C156      1.0  0.73890  0.88960  0.40920  1.0000
  C   C157      1.0  0.23890  0.88960  0.59080  1.0000
  C   C158      1.0  0.73890  0.11040  0.90920  1.0000
  C   C159      1.0  0.76110  0.88960  0.90920  1.0000
  C   C160      1.0  0.26110  0.11040  0.59080  1.0000
  C   C161      1.0  0.77650  0.05720  0.44570  1.0000
  C   C162      1.0  0.27650  0.94280  0.05430  1.0000
  C   C163      1.0  0.22350  0.05720  0.05430  1.0000
  C   C164      1.0  0.72350  0.94280  0.44570  1.0000
  C   C165      1.0  0.22350  0.94280  0.55430  1.0000
  C   C166      1.0  0.72350  0.05720  0.94570  1.0000
  C   C167      1.0  0.77650  0.94280  0.94570  1.0000
  C   C168      1.0  0.27650  0.05720  0.55430  1.0000
  C   C169      1.0  0.80780  0.03210  0.41750  1.0000
  C   C170      1.0  0.30780  0.96790  0.08250  1.0000
  C   C171      1.0  0.19220  0.03210  0.08250  1.0000
  C   C172      1.0  0.69220  0.96790  0.41750  1.0000
  C   C173      1.0  0.19220  0.96790  0.58250  1.0000
  C   C174      1.0  0.69220  0.03210  0.91750  1.0000
  C   C175      1.0  0.80780  0.96790  0.91750  1.0000
  C   C176      1.0  0.30780  0.03210  0.58250  1.0000
  C   C177      1.0  0.82180  0.05700  0.35490  1.0000
  C   C178      1.0  0.32180  0.94300  0.14510  1.0000
  C   C179      1.0  0.17820  0.05700  0.14510  1.0000
  C   C180      1.0  0.67820  0.94300  0.35490  1.0000
  C   C181      1.0  0.17820  0.94300  0.64510  1.0000
  C   C182      1.0  0.67820  0.05700  0.85490  1.0000
  C   C183      1.0  0.82180  0.94300  0.85490  1.0000
  C   C184      1.0  0.32180  0.05700  0.64510  1.0000
  C   C185      1.0  0.75850  0.03320  0.51250  1.0000
  C   C186      1.0  0.25850  0.96680  0.98750  1.0000
  C   C187      1.0  0.24150  0.03320  0.98750  1.0000
  C   C188      1.0  0.74150  0.96680  0.51250  1.0000
  C   C189      1.0  0.24150  0.96680  0.48750  1.0000
  C   C190      1.0  0.74150  0.03320  0.01250  1.0000
  C   C191      1.0  0.75850  0.96680  0.01250  1.0000
  C   C192      1.0  0.25850  0.03320  0.48750  1.0000
  H   H1        1.0  0.03250  0.52080  0.44470  1.0000
  H   H2        1.0  0.53250  0.47920  0.05530  1.0000
  H   H3        1.0  0.96750  0.52080  0.05530  1.0000
  H   H4        1.0  0.46750  0.47920  0.44470  1.0000
  H   H5        1.0  0.96750  0.47920  0.55530  1.0000
  H   H6        1.0  0.46750  0.52080  0.94470  1.0000
  H   H7        1.0  0.03250  0.47920  0.94470  1.0000
  H   H8        1.0  0.53250  0.52080  0.55530  1.0000
  H   H9        1.0  0.98840  0.60060  0.40650  1.0000
  H   H10       1.0  0.48840  0.39940  0.09350  1.0000
  H   H11       1.0  0.01160  0.60060  0.09350  1.0000
  H   H12       1.0  0.51160  0.39940  0.40650  1.0000
  H   H13       1.0  0.01160  0.39940  0.59350  1.0000
  H   H14       1.0  0.51160  0.60060  0.90650  1.0000
  H   H15       1.0  0.98840  0.39940  0.90650  1.0000
  H   H16       1.0  0.48840  0.60060  0.59350  1.0000
  H   H17       1.0  0.94110  0.45080  0.28560  1.0000
  H   H18       1.0  0.44110  0.54920  0.21440  1.0000
  H   H19       1.0  0.05890  0.45080  0.21440  1.0000
  H   H20       1.0  0.55890  0.54920  0.28560  1.0000
  H   H21       1.0  0.05890  0.54920  0.71440  1.0000
  H   H22       1.0  0.55890  0.45080  0.78560  1.0000
  H   H23       1.0  0.94110  0.54920  0.78560  1.0000
  H   H24       1.0  0.44110  0.45080  0.71440  1.0000
  H   H25       1.0  0.98680  0.37640  0.32080  1.0000
  H   H26       1.0  0.48680  0.62360  0.17920  1.0000
  H   H27       1.0  0.01320  0.37640  0.17920  1.0000
  H   H28       1.0  0.51320  0.62360  0.32080  1.0000
  H   H29       1.0  0.01320  0.62360  0.67920  1.0000
  H   H30       1.0  0.51320  0.37640  0.82080  1.0000
  H   H31       1.0  0.98680  0.62360  0.82080  1.0000
  H   H32       1.0  0.48680  0.37640  0.67920  1.0000
  H   H33       1.0  0.91620  0.55940  0.28140  1.0000
  H   H34       1.0  0.41620  0.44060  0.21860  1.0000
  H   H35       1.0  0.08380  0.55940  0.21860  1.0000
  H   H36       1.0  0.58380  0.44060  0.28140  1.0000
  H   H37       1.0  0.08380  0.44060  0.71860  1.0000
  H   H38       1.0  0.58380  0.55940  0.78140  1.0000
  H   H39       1.0  0.91620  0.44060  0.78140  1.0000
  H   H40       1.0  0.41620  0.55940  0.71860  1.0000
  H   H41       1.0  0.91920  0.60140  0.35690  1.0000
  H   H42       1.0  0.41920  0.39860  0.14310  1.0000
  H   H43       1.0  0.08080  0.60140  0.14310  1.0000
  H   H44       1.0  0.58080  0.39860  0.35690  1.0000
  H   H45       1.0  0.08080  0.39860  0.64310  1.0000
  H   H46       1.0  0.58080  0.60140  0.85690  1.0000
  H   H47       1.0  0.91920  0.39860  0.85690  1.0000
  H   H48       1.0  0.41920  0.60140  0.64310  1.0000
  H   H49       1.0  0.94470  0.62140  0.28890  1.0000
  H   H50       1.0  0.44470  0.37860  0.21110  1.0000
  H   H51       1.0  0.05530  0.62140  0.21110  1.0000
  H   H52       1.0  0.55530  0.37860  0.28890  1.0000
  H   H53       1.0  0.05530  0.37860  0.71110  1.0000
  H   H54       1.0  0.55530  0.62140  0.78890  1.0000
  H   H55       1.0  0.94470  0.37860  0.78890  1.0000
  H   H56       1.0  0.44470  0.62140  0.71110  1.0000
  H   H57       1.0  0.25490  0.29070  0.72500  1.0000
  H   H58       1.0  0.75490  0.70930  0.77500  1.0000
  H   H59       1.0  0.74510  0.29070  0.77500  1.0000
  H   H60       1.0  0.24510  0.70930  0.72500  1.0000
  H   H61       1.0  0.74510  0.70930  0.27500  1.0000
  H   H62       1.0  0.24510  0.29070  0.22500  1.0000
  H   H63       1.0  0.25490  0.70930  0.22500  1.0000
  H   H64       1.0  0.75490  0.29070  0.27500  1.0000
  H   H65       1.0  0.30940  0.33270  0.77020  1.0000
  H   H66       1.0  0.80940  0.66730  0.72980  1.0000
  H   H67       1.0  0.69060  0.33270  0.72980  1.0000
  H   H68       1.0  0.19060  0.66730  0.77020  1.0000
  H   H69       1.0  0.69060  0.66730  0.22980  1.0000
  H   H70       1.0  0.19060  0.33270  0.27020  1.0000
  H   H71       1.0  0.30940  0.66730  0.27020  1.0000
  H   H72       1.0  0.80940  0.33270  0.22980  1.0000
  H   H73       1.0  0.30880  0.47320  0.61370  1.0000
  H   H74       1.0  0.80880  0.52680  0.88630  1.0000
  H   H75       1.0  0.69120  0.47320  0.88630  1.0000
  H   H76       1.0  0.19120  0.52680  0.61370  1.0000
  H   H77       1.0  0.69120  0.52680  0.38630  1.0000
  H   H78       1.0  0.19120  0.47320  0.11370  1.0000
  H   H79       1.0  0.30880  0.52680  0.11370  1.0000
  H   H80       1.0  0.80880  0.47320  0.38630  1.0000
  H   H81       1.0  0.25640  0.42290  0.56300  1.0000
  H   H82       1.0  0.75640  0.57710  0.93700  1.0000
  H   H83       1.0  0.74360  0.42290  0.93700  1.0000
  H   H84       1.0  0.24360  0.57710  0.56300  1.0000
  H   H85       1.0  0.74360  0.57710  0.43700  1.0000
  H   H86       1.0  0.24360  0.42290  0.06300  1.0000
  H   H87       1.0  0.25640  0.57710  0.06300  1.0000
  H   H88       1.0  0.75640  0.42290  0.43700  1.0000
  H   H89       1.0  0.35370  0.48130  0.70250  1.0000
  H   H90       1.0  0.85370  0.51870  0.79750  1.0000
  H   H91       1.0  0.64630  0.48130  0.79750  1.0000
  H   H92       1.0  0.14630  0.51870  0.70250  1.0000
  H   H93       1.0  0.64630  0.51870  0.29750  1.0000
  H   H94       1.0  0.14630  0.48130  0.20250  1.0000
  H   H95       1.0  0.35370  0.51870  0.20250  1.0000
  H   H96       1.0  0.85370  0.48130  0.29750  1.0000
  H   H97       1.0  0.34450  0.45070  0.78210  1.0000
  H   H98       1.0  0.84450  0.54930  0.71790  1.0000
  H   H99       1.0  0.65550  0.45070  0.71790  1.0000
  H   H100      1.0  0.15550  0.54930  0.78210  1.0000
  H   H101      1.0  0.65550  0.54930  0.21790  1.0000
  H   H102      1.0  0.15550  0.45070  0.28210  1.0000
  H   H103      1.0  0.34450  0.54930  0.28210  1.0000
  H   H104      1.0  0.84450  0.45070  0.21790  1.0000
  H   H105      1.0  0.36620  0.40470  0.72350  1.0000
  H   H106      1.0  0.86620  0.59530  0.77650  1.0000
  H   H107      1.0  0.63380  0.40470  0.77650  1.0000
  H   H108      1.0  0.13380  0.59530  0.72350  1.0000
  H   H109      1.0  0.63380  0.59530  0.27650  1.0000
  H   H110      1.0  0.13380  0.40470  0.22350  1.0000
  H   H111      1.0  0.36620  0.59530  0.22350  1.0000
  H   H112      1.0  0.86620  0.40470  0.27650  1.0000
  H   H113      1.0  0.01800  0.97760  0.55360  1.0000
  H   H114      1.0  0.51800  0.02240  0.94640  1.0000
  H   H115      1.0  0.98200  0.97760  0.94640  1.0000
  H   H116      1.0  0.48200  0.02240  0.55360  1.0000
  H   H117      1.0  0.98200  0.02240  0.44640  1.0000
  H   H118      1.0  0.48200  0.97760  0.05360  1.0000
  H   H119      1.0  0.01800  0.02240  0.05360  1.0000
  H   H120      1.0  0.51800  0.97760  0.44640  1.0000
  H   H121      1.0  0.98940  0.88080  0.59660  1.0000
  H   H122      1.0  0.48940  0.11920  0.90340  1.0000
  H   H123      1.0  0.01060  0.88080  0.90340  1.0000
  H   H124      1.0  0.51060  0.11920  0.59660  1.0000
  H   H125      1.0  0.01060  0.11920  0.40340  1.0000
  H   H126      1.0  0.51060  0.88080  0.09660  1.0000
  H   H127      1.0  0.98940  0.11920  0.09660  1.0000
  H   H128      1.0  0.48940  0.88080  0.40340  1.0000
  H   H129      1.0  0.06170  0.87260  0.76310  1.0000
  H   H130      1.0  0.56170  0.12740  0.73690  1.0000
  H   H131      1.0  0.93830  0.87260  0.73690  1.0000
  H   H132      1.0  0.43830  0.12740  0.76310  1.0000
  H   H133      1.0  0.93830  0.12740  0.23690  1.0000
  H   H134      1.0  0.43830  0.87260  0.26310  1.0000
  H   H135      1.0  0.06170  0.12740  0.26310  1.0000
  H   H136      1.0  0.56170  0.87260  0.23690  1.0000
  H   H137      1.0  0.08890  0.97340  0.71660  1.0000
  H   H138      1.0  0.58890  0.02660  0.78340  1.0000
  H   H139      1.0  0.91110  0.97340  0.78340  1.0000
  H   H140      1.0  0.41110  0.02660  0.71660  1.0000
  H   H141      1.0  0.91110  0.02660  0.28340  1.0000
  H   H142      1.0  0.41110  0.97340  0.21660  1.0000
  H   H143      1.0  0.08890  0.02660  0.21660  1.0000
  H   H144      1.0  0.58890  0.97340  0.28340  1.0000
  H   H145      1.0  0.02110  0.76290  0.69910  1.0000
  H   H146      1.0  0.52110  0.23710  0.80090  1.0000
  H   H147      1.0  0.97890  0.76290  0.80090  1.0000
  H   H148      1.0  0.47890  0.23710  0.69910  1.0000
  H   H149      1.0  0.97890  0.23710  0.30090  1.0000
  H   H150      1.0  0.47890  0.76290  0.19910  1.0000
  H   H151      1.0  0.02110  0.23710  0.19910  1.0000
  H   H152      1.0  0.52110  0.76290  0.30090  1.0000
  H   H153      1.0  0.98210  0.79580  0.68100  1.0000
  H   H154      1.0  0.48210  0.20420  0.81900  1.0000
  H   H155      1.0  0.01790  0.79580  0.81900  1.0000
  H   H156      1.0  0.51790  0.20420  0.68100  1.0000
  H   H157      1.0  0.01790  0.20420  0.31900  1.0000
  H   H158      1.0  0.51790  0.79580  0.18100  1.0000
  H   H159      1.0  0.98210  0.20420  0.18100  1.0000
  H   H160      1.0  0.48210  0.79580  0.31900  1.0000
  H   H161      1.0  0.73470  0.82620  0.32140  1.0000
  H   H162      1.0  0.23470  0.17380  0.17860  1.0000
  H   H163      1.0  0.26530  0.82620  0.17860  1.0000
  H   H164      1.0  0.76530  0.17380  0.32140  1.0000
  H   H165      1.0  0.26530  0.17380  0.67860  1.0000
  H   H166      1.0  0.76530  0.82620  0.82140  1.0000
  H   H167      1.0  0.73470  0.17380  0.82140  1.0000
  H   H168      1.0  0.23470  0.82620  0.67860  1.0000
  H   H169      1.0  0.76150  0.86880  0.42760  1.0000
  H   H170      1.0  0.26150  0.13120  0.07240  1.0000
  H   H171      1.0  0.23850  0.86880  0.07240  1.0000
  H   H172      1.0  0.73850  0.13120  0.42760  1.0000
  H   H173      1.0  0.23850  0.13120  0.57240  1.0000
  H   H174      1.0  0.73850  0.86880  0.92760  1.0000
  H   H175      1.0  0.76150  0.13120  0.92760  1.0000
  H   H176      1.0  0.26150  0.86880  0.57240  1.0000
  H   H177      1.0  0.82050  0.99490  0.44330  1.0000
  H   H178      1.0  0.32050  0.00510  0.05670  1.0000
  H   H179      1.0  0.17950  0.99490  0.05670  1.0000
  H   H180      1.0  0.67950  0.00510  0.44330  1.0000
  H   H181      1.0  0.17950  0.00510  0.55670  1.0000
  H   H182      1.0  0.67950  0.99490  0.94330  1.0000
  H   H183      1.0  0.82050  0.00510  0.94330  1.0000
  H   H184      1.0  0.32050  0.99490  0.55670  1.0000
  H   H185      1.0  0.84400  0.03570  0.33520  1.0000
  H   H186      1.0  0.34400  0.96430  0.16480  1.0000
  H   H187      1.0  0.15600  0.03570  0.16480  1.0000
  H   H188      1.0  0.65600  0.96430  0.33520  1.0000
  H   H189      1.0  0.15600  0.96430  0.66480  1.0000
  H   H190      1.0  0.65600  0.03570  0.83520  1.0000
  H   H191      1.0  0.84400  0.96430  0.83520  1.0000
  H   H192      1.0  0.34400  0.03570  0.66480  1.0000
  H   H193      1.0  0.76030  0.93280  0.52460  1.0000
  H   H194      1.0  0.26030  0.06720  0.97540  1.0000
  H   H195      1.0  0.23970  0.93280  0.97540  1.0000
  H   H196      1.0  0.73970  0.06720  0.52460  1.0000
  H   H197      1.0  0.23970  0.06720  0.47540  1.0000
  H   H198      1.0  0.73970  0.93280  0.02460  1.0000
  H   H199      1.0  0.76030  0.06720  0.02460  1.0000
  H   H200      1.0  0.26030  0.93280  0.47540  1.0000
  H   H201      1.0  0.72290  0.96740  0.55130  1.0000
  H   H202      1.0  0.22290  0.03260  0.94870  1.0000
  H   H203      1.0  0.27710  0.96740  0.94870  1.0000
  H   H204      1.0  0.77710  0.03260  0.55130  1.0000
  H   H205      1.0  0.27710  0.03260  0.44870  1.0000
  H   H206      1.0  0.77710  0.96740  0.05130  1.0000
  H   H207      1.0  0.72290  0.03260  0.05130  1.0000
  H   H208      1.0  0.22290  0.96740  0.44870  1.0000
