data_image0
_chemical_formula_structural       Co4O20C8H4C12O4C4H4C8H4C4
_chemical_formula_sum              "Co4 O24 C36 H12"
_cell_length_a       9.3727
_cell_length_b       16.4276
_cell_length_c       11.9865
_cell_angle_alpha    90
_cell_angle_beta     109.616
_cell_angle_gamma    90

_space_group_name_H-M_alt    "P 1"
_space_group_IT_number       1

loop_
  _space_group_symop_operation_xyz
  'x, y, z'

loop_
  _atom_site_type_symbol
  _atom_site_label
  _atom_site_symmetry_multiplicity
  _atom_site_fract_x
  _atom_site_fract_y
  _atom_site_fract_z
  _atom_site_occupancy
  Co  Co1       1.0  0.37611  0.08761  0.02069  1.0000
  Co  Co2       1.0  0.12389  0.58761  0.47931  1.0000
  Co  Co3       1.0  0.62389  0.91239  0.97931  1.0000
  Co  Co4       1.0  0.87611  0.41239  0.52069  1.0000
  O   O1        1.0  0.58040  0.08520  0.13580  1.0000
  O   O2        1.0  0.91960  0.58520  0.36420  1.0000
  O   O3        1.0  0.41960  0.91480  0.86420  1.0000
  O   O4        1.0  0.08040  0.41480  0.63580  1.0000
  O   O5        1.0  0.23910  0.09210  0.11620  1.0000
  O   O6        1.0  0.26090  0.59210  0.38380  1.0000
  O   O7        1.0  0.76090  0.90790  0.88380  1.0000
  O   O8        1.0  0.73910  0.40790  0.61620  1.0000
  O   O9        1.0  0.73240  0.00520  0.07510  1.0000
  O   O10       1.0  0.76760  0.50520  0.42490  1.0000
  O   O11       1.0  0.26760  0.99480  0.92490  1.0000
  O   O12       1.0  0.23240  0.49480  0.57510  1.0000
  O   O13       1.0  0.33210  0.20930  0.20320  1.0000
  O   O14       1.0  0.16790  0.70930  0.29680  1.0000
  O   O15       1.0  0.66790  0.79070  0.79680  1.0000
  O   O16       1.0  0.83210  0.29070  0.70320  1.0000
  O   O17       1.0  0.82710  0.31030  0.42360  1.0000
  O   O18       1.0  0.67290  0.81030  0.07640  1.0000
  O   O19       1.0  0.17290  0.68970  0.57640  1.0000
  O   O20       1.0  0.32710  0.18970  0.92360  1.0000
  C   C1        1.0  0.83590  0.12250  0.18290  1.0000
  C   C2        1.0  0.66410  0.62250  0.31710  1.0000
  C   C3        1.0  0.16410  0.87750  0.81710  1.0000
  C   C4        1.0  0.33590  0.37750  0.68290  1.0000
  C   C5        1.0  0.97320  0.11140  0.16360  1.0000
  C   C6        1.0  0.52680  0.61140  0.33640  1.0000
  C   C7        1.0  0.02680  0.88860  0.83640  1.0000
  C   C8        1.0  0.47320  0.38860  0.66360  1.0000
  H   H1        1.0  0.98520  0.06640  0.12050  1.0000
  H   H2        1.0  0.51480  0.56640  0.37950  1.0000
  H   H3        1.0  0.01480  0.93360  0.87950  1.0000
  H   H4        1.0  0.48520  0.43360  0.62050  1.0000
  C   C9        1.0  0.09200  0.16560  0.20680  1.0000
  C   C10       1.0  0.40800  0.66560  0.29320  1.0000
  C   C11       1.0  0.90800  0.83440  0.79320  1.0000
  C   C12       1.0  0.59200  0.33440  0.70680  1.0000
  C   C13       1.0  0.70720  0.06610  0.12790  1.0000
  C   C14       1.0  0.79280  0.56610  0.37210  1.0000
  C   C15       1.0  0.29280  0.93390  0.87210  1.0000
  C   C16       1.0  0.20720  0.43390  0.62790  1.0000
  C   C17       1.0  0.23420  0.15600  0.17470  1.0000
  C   C18       1.0  0.26580  0.65600  0.32530  1.0000
  C   C19       1.0  0.76580  0.84400  0.82530  1.0000
  C   C20       1.0  0.73420  0.34400  0.67470  1.0000
  O   O21       1.0  0.00860  0.37470  0.38190  1.0000
  O   O22       1.0  0.49140  0.87470  0.11810  1.0000
  O   O23       1.0  0.99140  0.62530  0.61810  1.0000
  O   O24       1.0  0.50860  0.12530  0.88190  1.0000
  C   C21       1.0  0.07480  0.23140  0.27440  1.0000
  C   C22       1.0  0.42520  0.73140  0.22560  1.0000
  C   C23       1.0  0.92520  0.76860  0.72560  1.0000
  C   C24       1.0  0.57480  0.26860  0.77440  1.0000
  H   H5        1.0  0.15440  0.26780  0.30490  1.0000
  H   H6        1.0  0.34560  0.76780  0.19510  1.0000
  H   H7        1.0  0.84560  0.73220  0.69510  1.0000
  H   H8        1.0  0.65440  0.23220  0.80490  1.0000
  C   C25       1.0  0.93860  0.24340  0.29700  1.0000
  C   C26       1.0  0.56140  0.74340  0.20300  1.0000
  C   C27       1.0  0.06140  0.75660  0.70300  1.0000
  C   C28       1.0  0.43860  0.25660  0.79700  1.0000
  C   C29       1.0  0.82090  0.18840  0.25110  1.0000
  C   C30       1.0  0.67910  0.68840  0.24890  1.0000
  C   C31       1.0  0.17910  0.81160  0.74890  1.0000
  C   C32       1.0  0.32090  0.31160  0.75110  1.0000
  H   H9        1.0  0.73070  0.19570  0.26620  1.0000
  H   H10       1.0  0.76930  0.69570  0.23380  1.0000
  H   H11       1.0  0.26930  0.80430  0.73380  1.0000
  H   H12       1.0  0.23070  0.30430  0.76620  1.0000
  C   C33       1.0  0.92540  0.31410  0.37120  1.0000
  C   C34       1.0  0.57460  0.81410  0.12880  1.0000
  C   C35       1.0  0.07460  0.68590  0.62880  1.0000
  C   C36       1.0  0.42540  0.18590  0.87120  1.0000
