data_image0
_chemical_formula_structural       Co4O64C40H8C8H8C8H8C40H8C16H8C8H8C8Na8
_chemical_formula_sum              "Co4 O64 C128 H48 Na8"
_cell_length_a       17.6254
_cell_length_b       19.9755
_cell_length_c       15.3066
_cell_angle_alpha    90
_cell_angle_beta     104.504
_cell_angle_gamma    90

_space_group_name_H-M_alt    "P 1"
_space_group_IT_number       1

loop_
  _space_group_symop_operation_xyz
  'x, y, z'

loop_
  _atom_site_type_symbol
  _atom_site_label
  _atom_site_symmetry_multiplicity
  _atom_site_fract_x
  _atom_site_fract_y
  _atom_site_fract_z
  _atom_site_occupancy
  Co  Co1       1.0  0.50000  0.23684  0.75000  1.0000
  Co  Co2       1.0  0.00000  0.73684  0.75000  1.0000
  Co  Co3       1.0  0.50000  0.76316  0.25000  1.0000
  Co  Co4       1.0  0.00000  0.26316  0.25000  1.0000
  O   O1        1.0  0.53690  0.18692  0.86440  1.0000
  O   O2        1.0  0.46310  0.18692  0.63560  1.0000
  O   O3        1.0  0.03690  0.68692  0.86440  1.0000
  O   O4        1.0  0.96310  0.68692  0.63560  1.0000
  O   O5        1.0  0.46310  0.81308  0.13560  1.0000
  O   O6        1.0  0.53690  0.81308  0.36440  1.0000
  O   O7        1.0  0.96310  0.31308  0.13560  1.0000
  O   O8        1.0  0.03690  0.31308  0.36440  1.0000
  O   O9        1.0  0.91880  0.19674  0.25610  1.0000
  O   O10       1.0  0.08120  0.19674  0.24390  1.0000
  O   O11       1.0  0.41880  0.69674  0.25610  1.0000
  O   O12       1.0  0.58120  0.69674  0.24390  1.0000
  O   O13       1.0  0.08120  0.80326  0.74390  1.0000
  O   O14       1.0  0.91880  0.80326  0.75610  1.0000
  O   O15       1.0  0.58120  0.30326  0.74390  1.0000
  O   O16       1.0  0.41880  0.30326  0.75610  1.0000
  O   O17       1.0  0.81260  0.25410  0.18000  1.0000
  O   O18       1.0  0.18740  0.25410  0.32000  1.0000
  O   O19       1.0  0.31260  0.75410  0.18000  1.0000
  O   O20       1.0  0.68740  0.75410  0.32000  1.0000
  O   O21       1.0  0.18740  0.74590  0.82000  1.0000
  O   O22       1.0  0.81260  0.74590  0.68000  1.0000
  O   O23       1.0  0.68740  0.24590  0.82000  1.0000
  O   O24       1.0  0.31260  0.24590  0.68000  1.0000
  O   O25       1.0  0.41620  0.14540  0.82850  1.0000
  O   O26       1.0  0.58380  0.14540  0.67150  1.0000
  O   O27       1.0  0.91620  0.64540  0.82850  1.0000
  O   O28       1.0  0.08380  0.64540  0.67150  1.0000
  O   O29       1.0  0.58380  0.85460  0.17150  1.0000
  O   O30       1.0  0.41620  0.85460  0.32850  1.0000
  O   O31       1.0  0.08380  0.35460  0.17150  1.0000
  O   O32       1.0  0.91620  0.35460  0.32850  1.0000
  O   O33       1.0  0.41400  0.96140  0.16290  1.0000
  O   O34       1.0  0.58600  0.96140  0.33710  1.0000
  O   O35       1.0  0.91400  0.46140  0.16290  1.0000
  O   O36       1.0  0.08600  0.46140  0.33710  1.0000
  O   O37       1.0  0.58600  0.03860  0.83710  1.0000
  O   O38       1.0  0.41400  0.03860  0.66290  1.0000
  O   O39       1.0  0.08600  0.53860  0.83710  1.0000
  O   O40       1.0  0.91400  0.53860  0.66290  1.0000
  O   O41       1.0  0.32540  0.00880  0.05100  1.0000
  O   O42       1.0  0.67460  0.00880  0.44900  1.0000
  O   O43       1.0  0.82540  0.50880  0.05100  1.0000
  O   O44       1.0  0.17460  0.50880  0.44900  1.0000
  O   O45       1.0  0.67460  0.99120  0.94900  1.0000
  O   O46       1.0  0.32540  0.99120  0.55100  1.0000
  O   O47       1.0  0.17460  0.49120  0.94900  1.0000
  O   O48       1.0  0.82540  0.49120  0.55100  1.0000
  O   O49       1.0  0.88260  0.97130  0.37350  1.0000
  O   O50       1.0  0.11740  0.97130  0.12650  1.0000
  O   O51       1.0  0.38260  0.47130  0.37350  1.0000
  O   O52       1.0  0.61740  0.47130  0.12650  1.0000
  O   O53       1.0  0.11740  0.02870  0.62650  1.0000
  O   O54       1.0  0.88260  0.02870  0.87350  1.0000
  O   O55       1.0  0.61740  0.52870  0.62650  1.0000
  O   O56       1.0  0.38260  0.52870  0.87350  1.0000
  O   O57       1.0  0.76170  0.93730  0.36940  1.0000
  O   O58       1.0  0.23830  0.93730  0.13060  1.0000
  O   O59       1.0  0.26170  0.43730  0.36940  1.0000
  O   O60       1.0  0.73830  0.43730  0.13060  1.0000
  O   O61       1.0  0.23830  0.06270  0.63060  1.0000
  O   O62       1.0  0.76170  0.06270  0.86940  1.0000
  O   O63       1.0  0.73830  0.56270  0.63060  1.0000
  O   O64       1.0  0.26170  0.56270  0.86940  1.0000
  C   C1        1.0  0.49770  0.11730  0.97180  1.0000
  C   C2        1.0  0.50230  0.11730  0.52820  1.0000
  C   C3        1.0  0.99770  0.61730  0.97180  1.0000
  C   C4        1.0  0.00230  0.61730  0.52820  1.0000
  C   C5        1.0  0.50230  0.88270  0.02820  1.0000
  C   C6        1.0  0.49770  0.88270  0.47180  1.0000
  C   C7        1.0  0.00230  0.38270  0.02820  1.0000
  C   C8        1.0  0.99770  0.38270  0.47180  1.0000
  C   C9        1.0  0.48090  0.15170  0.88120  1.0000
  C   C10       1.0  0.51910  0.15170  0.61880  1.0000
  C   C11       1.0  0.98090  0.65170  0.88120  1.0000
  C   C12       1.0  0.01910  0.65170  0.61880  1.0000
  C   C13       1.0  0.51910  0.84830  0.11880  1.0000
  C   C14       1.0  0.48090  0.84830  0.38120  1.0000
  C   C15       1.0  0.01910  0.34830  0.11880  1.0000
  C   C16       1.0  0.98090  0.34830  0.38120  1.0000
  C   C17       1.0  0.84520  0.20300  0.21810  1.0000
  C   C18       1.0  0.15480  0.20300  0.28190  1.0000
  C   C19       1.0  0.34520  0.70300  0.21810  1.0000
  C   C20       1.0  0.65480  0.70300  0.28190  1.0000
  C   C21       1.0  0.15480  0.79700  0.78190  1.0000
  C   C22       1.0  0.84520  0.79700  0.71810  1.0000
  C   C23       1.0  0.65480  0.29700  0.78190  1.0000
  C   C24       1.0  0.34520  0.29700  0.71810  1.0000
  C   C25       1.0  0.67220  0.08470  0.16900  1.0000
  C   C26       1.0  0.32780  0.08470  0.33100  1.0000
  C   C27       1.0  0.17220  0.58470  0.16900  1.0000
  C   C28       1.0  0.82780  0.58470  0.33100  1.0000
  C   C29       1.0  0.32780  0.91530  0.83100  1.0000
  C   C30       1.0  0.67220  0.91530  0.66900  1.0000
  C   C31       1.0  0.82780  0.41530  0.83100  1.0000
  C   C32       1.0  0.17220  0.41530  0.66900  1.0000
  C   C33       1.0  0.43930  0.08010  0.99470  1.0000
  C   C34       1.0  0.56070  0.08010  0.50530  1.0000
  C   C35       1.0  0.93930  0.58010  0.99470  1.0000
  C   C36       1.0  0.06070  0.58010  0.50530  1.0000
  C   C37       1.0  0.56070  0.91990  0.00530  1.0000
  C   C38       1.0  0.43930  0.91990  0.49470  1.0000
  C   C39       1.0  0.06070  0.41990  0.00530  1.0000
  C   C40       1.0  0.93930  0.41990  0.49470  1.0000
  H   H1        1.0  0.38810  0.07870  0.95560  1.0000
  H   H2        1.0  0.61190  0.07870  0.54440  1.0000
  H   H3        1.0  0.88810  0.57870  0.95560  1.0000
  H   H4        1.0  0.11190  0.57870  0.54440  1.0000
  H   H5        1.0  0.61190  0.92130  0.04440  1.0000
  H   H6        1.0  0.38810  0.92130  0.45560  1.0000
  H   H7        1.0  0.11190  0.42130  0.04440  1.0000
  H   H8        1.0  0.88810  0.42130  0.45560  1.0000
  C   C41       1.0  0.57280  0.11890  0.02890  1.0000
  C   C42       1.0  0.42720  0.11890  0.47110  1.0000
  C   C43       1.0  0.07280  0.61890  0.02890  1.0000
  C   C44       1.0  0.92720  0.61890  0.47110  1.0000
  C   C45       1.0  0.42720  0.88110  0.97110  1.0000
  C   C46       1.0  0.57280  0.88110  0.52890  1.0000
  C   C47       1.0  0.92720  0.38110  0.97110  1.0000
  C   C48       1.0  0.07280  0.38110  0.52890  1.0000
  H   H9        1.0  0.61240  0.14460  0.01260  1.0000
  H   H10       1.0  0.38760  0.14460  0.48740  1.0000
  H   H11       1.0  0.11240  0.64460  0.01260  1.0000
  H   H12       1.0  0.88760  0.64460  0.48740  1.0000
  H   H13       1.0  0.38760  0.85540  0.98740  1.0000
  H   H14       1.0  0.61240  0.85540  0.51260  1.0000
  H   H15       1.0  0.88760  0.35540  0.98740  1.0000
  H   H16       1.0  0.11240  0.35540  0.51260  1.0000
  C   C49       1.0  0.71980  0.14060  0.17020  1.0000
  C   C50       1.0  0.28020  0.14060  0.32980  1.0000
  C   C51       1.0  0.21980  0.64060  0.17020  1.0000
  C   C52       1.0  0.78020  0.64060  0.32980  1.0000
  C   C53       1.0  0.28020  0.85940  0.82980  1.0000
  C   C54       1.0  0.71980  0.85940  0.67020  1.0000
  C   C55       1.0  0.78020  0.35940  0.82980  1.0000
  C   C56       1.0  0.21980  0.35940  0.67020  1.0000
  H   H17       1.0  0.69900  0.17860  0.13500  1.0000
  H   H18       1.0  0.30100  0.17860  0.36500  1.0000
  H   H19       1.0  0.19900  0.67860  0.13500  1.0000
  H   H20       1.0  0.80100  0.67860  0.36500  1.0000
  H   H21       1.0  0.30100  0.82140  0.86500  1.0000
  H   H22       1.0  0.69900  0.82140  0.63500  1.0000
  H   H23       1.0  0.80100  0.32140  0.86500  1.0000
  H   H24       1.0  0.19900  0.32140  0.63500  1.0000
  C   C57       1.0  0.39710  0.00110  0.10110  1.0000
  C   C58       1.0  0.60290  0.00110  0.39890  1.0000
  C   C59       1.0  0.89710  0.50110  0.10110  1.0000
  C   C60       1.0  0.10290  0.50110  0.39890  1.0000
  C   C61       1.0  0.60290  0.99890  0.89890  1.0000
  C   C62       1.0  0.39710  0.99890  0.60110  1.0000
  C   C63       1.0  0.10290  0.49890  0.89890  1.0000
  C   C64       1.0  0.89710  0.49890  0.60110  1.0000
  C   C65       1.0  0.59070  0.08310  0.11020  1.0000
  C   C66       1.0  0.40930  0.08310  0.38980  1.0000
  C   C67       1.0  0.09070  0.58310  0.11020  1.0000
  C   C68       1.0  0.90930  0.58310  0.38980  1.0000
  C   C69       1.0  0.40930  0.91690  0.88980  1.0000
  C   C70       1.0  0.59070  0.91690  0.61020  1.0000
  C   C71       1.0  0.90930  0.41690  0.88980  1.0000
  C   C72       1.0  0.09070  0.41690  0.61020  1.0000
  C   C73       1.0  0.79610  0.14210  0.22120  1.0000
  C   C74       1.0  0.20390  0.14210  0.27880  1.0000
  C   C75       1.0  0.29610  0.64210  0.22120  1.0000
  C   C76       1.0  0.70390  0.64210  0.27880  1.0000
  C   C77       1.0  0.20390  0.85790  0.77880  1.0000
  C   C78       1.0  0.79610  0.85790  0.72120  1.0000
  C   C79       1.0  0.70390  0.35790  0.77880  1.0000
  C   C80       1.0  0.29610  0.35790  0.72120  1.0000
  C   C81       1.0  0.45660  0.04480  0.07610  1.0000
  C   C82       1.0  0.54340  0.04480  0.42390  1.0000
  C   C83       1.0  0.95660  0.54480  0.07610  1.0000
  C   C84       1.0  0.04340  0.54480  0.42390  1.0000
  C   C85       1.0  0.54340  0.95520  0.92390  1.0000
  C   C86       1.0  0.45660  0.95520  0.57610  1.0000
  C   C87       1.0  0.04340  0.45520  0.92390  1.0000
  C   C88       1.0  0.95660  0.45520  0.57610  1.0000
  C   C89       1.0  0.53220  0.04550  0.13290  1.0000
  C   C90       1.0  0.46780  0.04550  0.36710  1.0000
  C   C91       1.0  0.03220  0.54550  0.13290  1.0000
  C   C92       1.0  0.96780  0.54550  0.36710  1.0000
  C   C93       1.0  0.46780  0.95450  0.86710  1.0000
  C   C94       1.0  0.53220  0.95450  0.63290  1.0000
  C   C95       1.0  0.96780  0.45450  0.86710  1.0000
  C   C96       1.0  0.03220  0.45450  0.63290  1.0000
  H   H25       1.0  0.54370  0.02020  0.18710  1.0000
  H   H26       1.0  0.45630  0.02020  0.31290  1.0000
  H   H27       1.0  0.04370  0.52020  0.18710  1.0000
  H   H28       1.0  0.95630  0.52020  0.31290  1.0000
  H   H29       1.0  0.45630  0.97980  0.81290  1.0000
  H   H30       1.0  0.54370  0.97980  0.68710  1.0000
  H   H31       1.0  0.95630  0.47980  0.81290  1.0000
  H   H32       1.0  0.04370  0.47980  0.68710  1.0000
  C   C97       1.0  0.77900  0.03290  0.27980  1.0000
  C   C98       1.0  0.22100  0.03290  0.22020  1.0000
  C   C99       1.0  0.27900  0.53290  0.27980  1.0000
  C   C100      1.0  0.72100  0.53290  0.22020  1.0000
  C   C101      1.0  0.22100  0.96710  0.72020  1.0000
  C   C102      1.0  0.77900  0.96710  0.77980  1.0000
  C   C103      1.0  0.72100  0.46710  0.72020  1.0000
  C   C104      1.0  0.27900  0.46710  0.77980  1.0000
  C   C105      1.0  0.82660  0.08690  0.27530  1.0000
  C   C106      1.0  0.17340  0.08690  0.22470  1.0000
  C   C107      1.0  0.32660  0.58690  0.27530  1.0000
  C   C108      1.0  0.67340  0.58690  0.22470  1.0000
  C   C109      1.0  0.17340  0.91310  0.72470  1.0000
  C   C110      1.0  0.82660  0.91310  0.77530  1.0000
  C   C111      1.0  0.67340  0.41310  0.72470  1.0000
  C   C112      1.0  0.32660  0.41310  0.77530  1.0000
  H   H33       1.0  0.87990  0.08660  0.30860  1.0000
  H   H34       1.0  0.12010  0.08660  0.19140  1.0000
  H   H35       1.0  0.37990  0.58660  0.30860  1.0000
  H   H36       1.0  0.62010  0.58660  0.19140  1.0000
  H   H37       1.0  0.12010  0.91340  0.69140  1.0000
  H   H38       1.0  0.87990  0.91340  0.80860  1.0000
  H   H39       1.0  0.62010  0.41340  0.69140  1.0000
  H   H40       1.0  0.37990  0.41340  0.80860  1.0000
  C   C113      1.0  0.70250  0.03090  0.22590  1.0000
  C   C114      1.0  0.29750  0.03090  0.27410  1.0000
  C   C115      1.0  0.20250  0.53090  0.22590  1.0000
  C   C116      1.0  0.79750  0.53090  0.27410  1.0000
  C   C117      1.0  0.29750  0.96910  0.77410  1.0000
  C   C118      1.0  0.70250  0.96910  0.72590  1.0000
  C   C119      1.0  0.79750  0.46910  0.77410  1.0000
  C   C120      1.0  0.20250  0.46910  0.72590  1.0000
  H   H41       1.0  0.67070  0.99280  0.22770  1.0000
  H   H42       1.0  0.32930  0.99280  0.27230  1.0000
  H   H43       1.0  0.17070  0.49280  0.22770  1.0000
  H   H44       1.0  0.82930  0.49280  0.27230  1.0000
  H   H45       1.0  0.32930  0.00720  0.77230  1.0000
  H   H46       1.0  0.67070  0.00720  0.72770  1.0000
  H   H47       1.0  0.82930  0.50720  0.77230  1.0000
  H   H48       1.0  0.17070  0.50720  0.72770  1.0000
  C   C121      1.0  0.81050  0.97630  0.34680  1.0000
  C   C122      1.0  0.18950  0.97630  0.15320  1.0000
  C   C123      1.0  0.31050  0.47630  0.34680  1.0000
  C   C124      1.0  0.68950  0.47630  0.15320  1.0000
  C   C125      1.0  0.18950  0.02370  0.65320  1.0000
  C   C126      1.0  0.81050  0.02370  0.84680  1.0000
  C   C127      1.0  0.68950  0.52370  0.65320  1.0000
  C   C128      1.0  0.31050  0.52370  0.84680  1.0000
  Na  Na1       1.0  0.84548  0.36348  0.18253  1.0000
  Na  Na2       1.0  0.15452  0.36348  0.31747  1.0000
  Na  Na3       1.0  0.34548  0.86348  0.18253  1.0000
  Na  Na4       1.0  0.65452  0.86348  0.31747  1.0000
  Na  Na5       1.0  0.15452  0.63652  0.81747  1.0000
  Na  Na6       1.0  0.84548  0.63652  0.68253  1.0000
  Na  Na7       1.0  0.65452  0.13652  0.81747  1.0000
  Na  Na8       1.0  0.34548  0.13652  0.68253  1.0000
