data_image0
_chemical_formula_structural       Bi4S24O24C16O8C32H8C12H4C20H4
_chemical_formula_sum              "Bi4 S24 O32 C80 H16"
_cell_length_a       24.257
_cell_length_b       15.144
_cell_length_c       10.676
_cell_angle_alpha    90
_cell_angle_beta     90
_cell_angle_gamma    90

_space_group_name_H-M_alt    "P 1"
_space_group_IT_number       1

loop_
  _space_group_symop_operation_xyz
  'x, y, z'

loop_
  _atom_site_type_symbol
  _atom_site_label
  _atom_site_symmetry_multiplicity
  _atom_site_fract_x
  _atom_site_fract_y
  _atom_site_fract_z
  _atom_site_occupancy
  Bi  Bi1       1.0  0.73202  0.75000  0.62461  1.0000
  Bi  Bi2       1.0  0.76798  0.25000  0.12461  1.0000
  Bi  Bi3       1.0  0.26798  0.25000  0.37539  1.0000
  Bi  Bi4       1.0  0.23202  0.75000  0.87539  1.0000
  S   S1        1.0  0.71600  0.38070  0.75100  1.0000
  S   S2        1.0  0.78400  0.61930  0.25100  1.0000
  S   S3        1.0  0.28400  0.88070  0.24900  1.0000
  S   S4        1.0  0.21600  0.11930  0.74900  1.0000
  S   S5        1.0  0.28400  0.61930  0.24900  1.0000
  S   S6        1.0  0.21600  0.38070  0.74900  1.0000
  S   S7        1.0  0.71600  0.11930  0.75100  1.0000
  S   S8        1.0  0.78400  0.88070  0.25100  1.0000
  S   S9        1.0  0.78790  0.25000  0.44650  1.0000
  S   S10       1.0  0.71210  0.75000  0.94650  1.0000
  S   S11       1.0  0.21210  0.75000  0.55350  1.0000
  S   S12       1.0  0.28790  0.25000  0.05350  1.0000
  S   S13       1.0  0.40590  0.75000  0.15160  1.0000
  S   S14       1.0  0.09410  0.25000  0.65160  1.0000
  S   S15       1.0  0.59410  0.25000  0.84840  1.0000
  S   S16       1.0  0.90590  0.75000  0.34840  1.0000
  S   S17       1.0  0.53160  0.75000  0.37760  1.0000
  S   S18       1.0  0.96840  0.25000  0.87760  1.0000
  S   S19       1.0  0.46840  0.25000  0.62240  1.0000
  S   S20       1.0  0.03160  0.75000  0.12240  1.0000
  S   S21       1.0  0.56290  0.75000  0.99280  1.0000
  S   S22       1.0  0.93710  0.25000  0.49280  1.0000
  S   S23       1.0  0.43710  0.25000  0.00720  1.0000
  S   S24       1.0  0.06290  0.75000  0.50720  1.0000
  O   O1        1.0  0.30290  0.75000  0.01320  1.0000
  O   O2        1.0  0.19710  0.25000  0.51320  1.0000
  O   O3        1.0  0.69710  0.25000  0.98680  1.0000
  O   O4        1.0  0.80290  0.75000  0.48680  1.0000
  O   O5        1.0  0.69200  0.75000  0.43840  1.0000
  O   O6        1.0  0.80800  0.25000  0.93840  1.0000
  O   O7        1.0  0.30800  0.25000  0.56160  1.0000
  O   O8        1.0  0.19200  0.75000  0.06160  1.0000
  O   O9        1.0  0.74570  0.60140  0.57600  1.0000
  O   O10       1.0  0.75430  0.39860  0.07600  1.0000
  O   O11       1.0  0.25430  0.10140  0.42400  1.0000
  O   O12       1.0  0.24570  0.89860  0.92400  1.0000
  O   O13       1.0  0.25430  0.39860  0.42400  1.0000
  O   O14       1.0  0.24570  0.60140  0.92400  1.0000
  O   O15       1.0  0.74570  0.89860  0.57600  1.0000
  O   O16       1.0  0.75430  0.10140  0.07600  1.0000
  O   O17       1.0  0.70380  0.58190  0.75670  1.0000
  O   O18       1.0  0.79620  0.41810  0.25670  1.0000
  O   O19       1.0  0.29620  0.08190  0.24330  1.0000
  O   O20       1.0  0.20380  0.91810  0.74330  1.0000
  O   O21       1.0  0.29620  0.41810  0.24330  1.0000
  O   O22       1.0  0.20380  0.58190  0.74330  1.0000
  O   O23       1.0  0.70380  0.91810  0.75670  1.0000
  O   O24       1.0  0.79620  0.08190  0.25670  1.0000
  C   C1        1.0  0.72880  0.55550  0.66430  1.0000
  C   C2        1.0  0.77120  0.44450  0.16430  1.0000
  C   C3        1.0  0.27120  0.05550  0.33570  1.0000
  C   C4        1.0  0.22880  0.94450  0.83570  1.0000
  C   C5        1.0  0.27120  0.44450  0.33570  1.0000
  C   C6        1.0  0.22880  0.55550  0.83570  1.0000
  C   C7        1.0  0.72880  0.94450  0.66430  1.0000
  C   C8        1.0  0.77120  0.05550  0.16430  1.0000
  C   C9        1.0  0.73980  0.29760  0.65440  1.0000
  C   C10       1.0  0.76020  0.70240  0.15440  1.0000
  C   C11       1.0  0.26020  0.79760  0.34560  1.0000
  C   C12       1.0  0.23980  0.20240  0.84560  1.0000
  C   C13       1.0  0.26020  0.70240  0.34560  1.0000
  C   C14       1.0  0.23980  0.29760  0.84560  1.0000
  C   C15       1.0  0.73980  0.20240  0.65440  1.0000
  C   C16       1.0  0.76020  0.79760  0.15440  1.0000
  O   O25       1.0  0.33600  0.75000  0.82300  1.0000
  O   O26       1.0  0.16400  0.25000  0.32300  1.0000
  O   O27       1.0  0.66400  0.25000  0.17700  1.0000
  O   O28       1.0  0.83600  0.75000  0.67700  1.0000
  O   O29       1.0  0.62100  0.75000  0.57220  1.0000
  O   O30       1.0  0.87900  0.25000  0.07220  1.0000
  O   O31       1.0  0.37900  0.25000  0.42780  1.0000
  O   O32       1.0  0.12100  0.75000  0.92780  1.0000
  C   C17       1.0  0.76350  0.33140  0.54750  1.0000
  C   C18       1.0  0.73650  0.66860  0.04750  1.0000
  C   C19       1.0  0.23650  0.83140  0.45250  1.0000
  C   C20       1.0  0.26350  0.16860  0.95250  1.0000
  C   C21       1.0  0.23650  0.66860  0.45250  1.0000
  C   C22       1.0  0.26350  0.33140  0.95250  1.0000
  C   C23       1.0  0.76350  0.16860  0.54750  1.0000
  C   C24       1.0  0.73650  0.83140  0.04750  1.0000
  C   C25       1.0  0.73900  0.45900  0.64450  1.0000
  C   C26       1.0  0.76100  0.54100  0.14450  1.0000
  C   C27       1.0  0.26100  0.95900  0.35550  1.0000
  C   C28       1.0  0.23900  0.04100  0.85550  1.0000
  C   C29       1.0  0.26100  0.54100  0.35550  1.0000
  C   C30       1.0  0.23900  0.45900  0.85550  1.0000
  C   C31       1.0  0.73900  0.04100  0.64450  1.0000
  C   C32       1.0  0.76100  0.95900  0.14450  1.0000
  C   C33       1.0  0.34290  0.75000  0.93900  1.0000
  C   C34       1.0  0.15710  0.25000  0.43900  1.0000
  C   C35       1.0  0.65710  0.25000  0.06100  1.0000
  C   C36       1.0  0.84290  0.75000  0.56100  1.0000
  C   C37       1.0  0.63870  0.75000  0.46300  1.0000
  C   C38       1.0  0.86130  0.25000  0.96300  1.0000
  C   C39       1.0  0.36130  0.25000  0.53700  1.0000
  C   C40       1.0  0.13870  0.75000  0.03700  1.0000
  C   C41       1.0  0.76340  0.42060  0.54240  1.0000
  C   C42       1.0  0.73660  0.57940  0.04240  1.0000
  C   C43       1.0  0.23660  0.92060  0.45760  1.0000
  C   C44       1.0  0.26340  0.07940  0.95760  1.0000
  C   C45       1.0  0.23660  0.57940  0.45760  1.0000
  C   C46       1.0  0.26340  0.42060  0.95760  1.0000
  C   C47       1.0  0.76340  0.07940  0.54240  1.0000
  C   C48       1.0  0.73660  0.92060  0.04240  1.0000
  H   H1        1.0  0.77829  0.45264  0.47632  1.0000
  H   H2        1.0  0.72171  0.54736  0.97632  1.0000
  H   H3        1.0  0.22171  0.95264  0.52368  1.0000
  H   H4        1.0  0.27829  0.04736  0.02368  1.0000
  H   H5        1.0  0.22171  0.54736  0.52368  1.0000
  H   H6        1.0  0.27829  0.45264  0.02368  1.0000
  H   H7        1.0  0.77829  0.04736  0.47632  1.0000
  H   H8        1.0  0.72171  0.95264  0.97632  1.0000
  C   C49       1.0  0.52170  0.75000  0.21800  1.0000
  C   C50       1.0  0.97830  0.25000  0.71800  1.0000
  C   C51       1.0  0.47830  0.25000  0.78200  1.0000
  C   C52       1.0  0.02170  0.75000  0.28200  1.0000
  C   C53       1.0  0.60330  0.75000  0.35600  1.0000
  C   C54       1.0  0.89670  0.25000  0.85600  1.0000
  C   C55       1.0  0.39670  0.25000  0.64400  1.0000
  C   C56       1.0  0.10330  0.75000  0.14400  1.0000
  C   C57       1.0  0.61720  0.75000  0.23400  1.0000
  C   C58       1.0  0.88280  0.25000  0.73400  1.0000
  C   C59       1.0  0.38280  0.25000  0.76600  1.0000
  C   C60       1.0  0.11720  0.75000  0.26600  1.0000
  H   H9        1.0  0.65328  0.75000  0.20428  1.0000
  H   H10       1.0  0.84672  0.25000  0.70428  1.0000
  H   H11       1.0  0.34672  0.25000  0.79572  1.0000
  H   H12       1.0  0.15328  0.75000  0.29572  1.0000
  C   C61       1.0  0.47810  0.75000  0.13600  1.0000
  C   C62       1.0  0.02190  0.25000  0.63600  1.0000
  C   C63       1.0  0.52190  0.25000  0.86400  1.0000
  C   C64       1.0  0.97810  0.75000  0.36400  1.0000
  C   C65       1.0  0.39850  0.75000  0.99200  1.0000
  C   C66       1.0  0.10150  0.25000  0.49200  1.0000
  C   C67       1.0  0.60150  0.25000  0.00800  1.0000
  C   C68       1.0  0.89850  0.75000  0.50800  1.0000
  C   C69       1.0  0.57000  0.75000  0.15700  1.0000
  C   C70       1.0  0.93000  0.25000  0.65700  1.0000
  C   C71       1.0  0.43000  0.25000  0.84300  1.0000
  C   C72       1.0  0.07000  0.75000  0.34300  1.0000
  C   C73       1.0  0.49050  0.75000  0.01300  1.0000
  C   C74       1.0  0.00950  0.25000  0.51300  1.0000
  C   C75       1.0  0.50950  0.25000  0.98700  1.0000
  C   C76       1.0  0.99050  0.75000  0.48700  1.0000
  C   C77       1.0  0.44670  0.75000  0.93000  1.0000
  C   C78       1.0  0.05330  0.25000  0.43000  1.0000
  C   C79       1.0  0.55330  0.25000  0.07000  1.0000
  C   C80       1.0  0.94670  0.75000  0.57000  1.0000
  H   H13       1.0  0.45019  0.75000  0.84280  1.0000
  H   H14       1.0  0.04981  0.25000  0.34280  1.0000
  H   H15       1.0  0.54981  0.25000  0.15720  1.0000
  H   H16       1.0  0.95019  0.75000  0.65720  1.0000
