data_image0
_chemical_formula_structural       Eu4O32N4C12H4C12H4C8H4C4H8C8H4C4H4C12H4C4H4C4H8C8H4C4H4C12H4C4H4
_chemical_formula_sum              "Eu4 O32 N4 C96 H60"
_cell_length_a       15.536
_cell_length_b       9.5528
_cell_length_c       21.137
_cell_angle_alpha    90
_cell_angle_beta     108.136
_cell_angle_gamma    90

_space_group_name_H-M_alt    "P 1"
_space_group_IT_number       1

loop_
  _space_group_symop_operation_xyz
  'x, y, z'

loop_
  _atom_site_type_symbol
  _atom_site_label
  _atom_site_symmetry_multiplicity
  _atom_site_fract_x
  _atom_site_fract_y
  _atom_site_fract_z
  _atom_site_occupancy
  Eu  Eu1       1.0  0.39557  0.04475  0.53370  1.0000
  Eu  Eu2       1.0  0.60443  0.04475  0.96630  1.0000
  Eu  Eu3       1.0  0.60443  0.95525  0.46630  1.0000
  Eu  Eu4       1.0  0.39557  0.95525  0.03370  1.0000
  O   O1        1.0  0.39094  0.16708  0.43614  1.0000
  O   O2        1.0  0.60906  0.16708  0.06386  1.0000
  O   O3        1.0  0.60906  0.83292  0.56386  1.0000
  O   O4        1.0  0.39094  0.83292  0.93614  1.0000
  O   O5        1.0  0.49121  0.07975  0.39157  1.0000
  O   O6        1.0  0.50879  0.07975  0.10843  1.0000
  O   O7        1.0  0.50879  0.92025  0.60843  1.0000
  O   O8        1.0  0.49121  0.92025  0.89157  1.0000
  O   O9        1.0  0.37487  0.94166  0.14568  1.0000
  O   O10       1.0  0.62513  0.94166  0.35432  1.0000
  O   O11       1.0  0.62513  0.05834  0.85432  1.0000
  O   O12       1.0  0.37487  0.05834  0.64568  1.0000
  O   O13       1.0  0.31881  0.12181  0.08439  1.0000
  O   O14       1.0  0.68119  0.12181  0.41561  1.0000
  O   O15       1.0  0.68119  0.87819  0.91561  1.0000
  O   O16       1.0  0.31881  0.87819  0.58439  1.0000
  O   O17       1.0  0.75822  0.03427  0.03987  1.0000
  O   O18       1.0  0.24178  0.03427  0.46013  1.0000
  O   O19       1.0  0.24178  0.96573  0.96013  1.0000
  O   O20       1.0  0.75822  0.96573  0.53987  1.0000
  O   O21       1.0  0.71757  0.21791  0.97688  1.0000
  O   O22       1.0  0.28243  0.21791  0.52312  1.0000
  O   O23       1.0  0.28243  0.78209  0.02312  1.0000
  O   O24       1.0  0.71757  0.78209  0.47688  1.0000
  O   O25       1.0  0.42871  0.88305  0.46689  1.0000
  O   O26       1.0  0.57129  0.88305  0.03311  1.0000
  O   O27       1.0  0.57129  0.11695  0.53311  1.0000
  O   O28       1.0  0.42871  0.11695  0.96689  1.0000
  O   O29       1.0  0.50896  0.77734  0.41213  1.0000
  O   O30       1.0  0.49104  0.77734  0.08787  1.0000
  O   O31       1.0  0.49104  0.22266  0.58787  1.0000
  O   O32       1.0  0.50896  0.22266  0.91213  1.0000
  N   N1        1.0  0.15658  0.36555  0.23126  1.0000
  N   N2        1.0  0.84342  0.36555  0.26874  1.0000
  N   N3        1.0  0.84342  0.63445  0.76874  1.0000
  N   N4        1.0  0.15658  0.63445  0.73126  1.0000
  C   C1        1.0  0.41681  0.13271  0.38728  1.0000
  C   C2        1.0  0.58319  0.13271  0.11272  1.0000
  C   C3        1.0  0.58319  0.86729  0.61272  1.0000
  C   C4        1.0  0.41681  0.86729  0.88728  1.0000
  C   C5        1.0  0.35500  0.15628  0.31729  1.0000
  C   C6        1.0  0.64500  0.15628  0.18271  1.0000
  C   C7        1.0  0.64500  0.84372  0.68271  1.0000
  C   C8        1.0  0.35500  0.84372  0.81729  1.0000
  C   C9        1.0  0.37289  0.09347  0.26320  1.0000
  C   C10       1.0  0.62711  0.09347  0.23680  1.0000
  C   C11       1.0  0.62711  0.90653  0.73680  1.0000
  C   C12       1.0  0.37289  0.90653  0.76320  1.0000
  H   H1        1.0  0.42302  0.03180  0.27052  1.0000
  H   H2        1.0  0.57698  0.03180  0.22948  1.0000
  H   H3        1.0  0.57698  0.96820  0.72948  1.0000
  H   H4        1.0  0.42302  0.96820  0.77052  1.0000
  C   C13       1.0  0.31783  0.12041  0.19845  1.0000
  C   C14       1.0  0.68217  0.12041  0.30155  1.0000
  C   C15       1.0  0.68217  0.87959  0.80155  1.0000
  C   C16       1.0  0.31783  0.87959  0.69845  1.0000
  C   C17       1.0  0.33818  0.05712  0.13980  1.0000
  C   C18       1.0  0.66182  0.05712  0.36020  1.0000
  C   C19       1.0  0.66182  0.94288  0.86020  1.0000
  C   C20       1.0  0.33818  0.94288  0.63980  1.0000
  C   C21       1.0  0.24568  0.21062  0.18770  1.0000
  C   C22       1.0  0.75432  0.21062  0.31230  1.0000
  C   C23       1.0  0.75432  0.78938  0.81230  1.0000
  C   C24       1.0  0.24568  0.78938  0.68770  1.0000
  H   H5        1.0  0.20864  0.23019  0.14355  1.0000
  H   H6        1.0  0.79136  0.23019  0.35645  1.0000
  H   H7        1.0  0.79136  0.76981  0.85645  1.0000
  H   H8        1.0  0.20864  0.76981  0.64355  1.0000
  C   C25       1.0  0.22672  0.27358  0.24161  1.0000
  C   C26       1.0  0.77328  0.27358  0.25839  1.0000
  C   C27       1.0  0.77328  0.72642  0.75839  1.0000
  C   C28       1.0  0.22672  0.72642  0.74161  1.0000
  C   C29       1.0  0.28216  0.24350  0.30709  1.0000
  C   C30       1.0  0.71784  0.24350  0.19291  1.0000
  C   C31       1.0  0.71784  0.75650  0.69291  1.0000
  C   C32       1.0  0.28216  0.75650  0.80709  1.0000
  H   H9        1.0  0.26880  0.28390  0.34402  1.0000
  H   H10       1.0  0.73120  0.28390  0.15598  1.0000
  H   H11       1.0  0.73120  0.71610  0.65598  1.0000
  H   H12       1.0  0.26880  0.71610  0.84402  1.0000
  C   C33       1.0  0.11054  0.41835  0.16472  1.0000
  C   C34       1.0  0.88946  0.41835  0.33528  1.0000
  C   C35       1.0  0.88946  0.58165  0.83528  1.0000
  C   C36       1.0  0.11054  0.58165  0.66472  1.0000
  H   H13       1.0  0.15226  0.41070  0.13777  1.0000
  H   H14       1.0  0.84774  0.41070  0.36223  1.0000
  H   H15       1.0  0.84774  0.58930  0.86223  1.0000
  H   H16       1.0  0.15226  0.58930  0.63777  1.0000
  H   H17       1.0  0.09728  0.51894  0.16809  1.0000
  H   H18       1.0  0.90272  0.51894  0.33191  1.0000
  H   H19       1.0  0.90272  0.48106  0.83191  1.0000
  H   H20       1.0  0.09728  0.48106  0.66809  1.0000
  C   C37       1.0  0.02405  0.34484  0.12873  1.0000
  C   C38       1.0  0.97595  0.34484  0.37127  1.0000
  C   C39       1.0  0.97595  0.65516  0.87127  1.0000
  C   C40       1.0  0.02405  0.65516  0.62873  1.0000
  C   C41       1.0  0.00011  0.22175  0.15142  1.0000
  C   C42       1.0  0.99989  0.22175  0.34858  1.0000
  C   C43       1.0  0.99989  0.77825  0.84858  1.0000
  C   C44       1.0  0.00011  0.77825  0.65142  1.0000
  H   H21       1.0  0.03884  0.17966  0.19072  1.0000
  H   H22       1.0  0.96116  0.17966  0.30928  1.0000
  H   H23       1.0  0.96116  0.82034  0.80928  1.0000
  H   H24       1.0  0.03884  0.82034  0.69072  1.0000
  C   C45       1.0  0.91946  0.15917  0.11695  1.0000
  C   C46       1.0  0.08054  0.15917  0.38305  1.0000
  C   C47       1.0  0.08054  0.84083  0.88305  1.0000
  C   C48       1.0  0.91946  0.84083  0.61695  1.0000
  H   H25       1.0  0.90297  0.07318  0.13259  1.0000
  H   H26       1.0  0.09703  0.07318  0.36741  1.0000
  H   H27       1.0  0.09703  0.92682  0.86741  1.0000
  H   H28       1.0  0.90297  0.92682  0.63259  1.0000
  C   C49       1.0  0.86200  0.21921  0.05994  1.0000
  C   C50       1.0  0.13800  0.21921  0.44006  1.0000
  C   C51       1.0  0.13800  0.78079  0.94006  1.0000
  C   C52       1.0  0.86200  0.78079  0.55994  1.0000
  C   C53       1.0  0.77454  0.15291  0.02361  1.0000
  C   C54       1.0  0.22546  0.15291  0.47639  1.0000
  C   C55       1.0  0.22546  0.84709  0.97639  1.0000
  C   C56       1.0  0.77454  0.84709  0.52361  1.0000
  C   C57       1.0  0.88617  0.34210  0.03712  1.0000
  C   C58       1.0  0.11383  0.34210  0.46288  1.0000
  C   C59       1.0  0.11383  0.65790  0.96288  1.0000
  C   C60       1.0  0.88617  0.65790  0.53712  1.0000
  H   H29       1.0  0.84751  0.38414  0.99777  1.0000
  H   H30       1.0  0.15249  0.38414  0.50223  1.0000
  H   H31       1.0  0.15249  0.61586  0.00223  1.0000
  H   H32       1.0  0.84751  0.61586  0.49777  1.0000
  C   C61       1.0  0.96640  0.40423  0.07135  1.0000
  C   C62       1.0  0.03360  0.40423  0.42865  1.0000
  C   C63       1.0  0.03360  0.59577  0.92865  1.0000
  C   C64       1.0  0.96640  0.59577  0.57135  1.0000
  H   H33       1.0  0.98298  0.48989  0.05546  1.0000
  H   H34       1.0  0.01702  0.48989  0.44454  1.0000
  H   H35       1.0  0.01702  0.51011  0.94454  1.0000
  H   H36       1.0  0.98298  0.51011  0.55546  1.0000
  C   C65       1.0  0.14353  0.44022  0.28716  1.0000
  C   C66       1.0  0.85647  0.44022  0.21284  1.0000
  C   C67       1.0  0.85647  0.55978  0.71284  1.0000
  C   C68       1.0  0.14353  0.55978  0.78716  1.0000
  H   H37       1.0  0.14021  0.37127  0.32129  1.0000
  H   H38       1.0  0.85979  0.37127  0.17871  1.0000
  H   H39       1.0  0.85979  0.62873  0.67871  1.0000
  H   H40       1.0  0.14021  0.62873  0.82129  1.0000
  H   H41       1.0  0.08465  0.48965  0.27192  1.0000
  H   H42       1.0  0.91535  0.48965  0.22808  1.0000
  H   H43       1.0  0.91535  0.51035  0.72808  1.0000
  H   H44       1.0  0.08465  0.51035  0.77192  1.0000
  C   C69       1.0  0.21584  0.54405  0.31872  1.0000
  C   C70       1.0  0.78416  0.54405  0.18128  1.0000
  C   C71       1.0  0.78416  0.45595  0.68128  1.0000
  C   C72       1.0  0.21584  0.45595  0.81872  1.0000
  C   C73       1.0  0.21577  0.61000  0.37702  1.0000
  C   C74       1.0  0.78423  0.61000  0.12298  1.0000
  C   C75       1.0  0.78423  0.39000  0.62298  1.0000
  C   C76       1.0  0.21577  0.39000  0.87702  1.0000
  H   H45       1.0  0.16718  0.59421  0.39449  1.0000
  H   H46       1.0  0.83282  0.59421  0.10551  1.0000
  H   H47       1.0  0.83282  0.40579  0.60551  1.0000
  H   H48       1.0  0.16718  0.40579  0.89449  1.0000
  C   C77       1.0  0.28509  0.69810  0.40988  1.0000
  C   C78       1.0  0.71491  0.69810  0.09012  1.0000
  C   C79       1.0  0.71491  0.30190  0.59012  1.0000
  C   C80       1.0  0.28509  0.30190  0.90988  1.0000
  H   H49       1.0  0.28378  0.74577  0.44901  1.0000
  H   H50       1.0  0.71622  0.74577  0.05099  1.0000
  H   H51       1.0  0.71622  0.25423  0.55099  1.0000
  H   H52       1.0  0.28378  0.25423  0.94901  1.0000
  C   C81       1.0  0.35634  0.71615  0.38527  1.0000
  C   C82       1.0  0.64366  0.71615  0.11473  1.0000
  C   C83       1.0  0.64366  0.28385  0.61473  1.0000
  C   C84       1.0  0.35634  0.28385  0.88527  1.0000
  C   C85       1.0  0.43579  0.79753  0.42343  1.0000
  C   C86       1.0  0.56421  0.79753  0.07657  1.0000
  C   C87       1.0  0.56421  0.20247  0.57657  1.0000
  C   C88       1.0  0.43579  0.20247  0.92343  1.0000
  C   C89       1.0  0.35455  0.65663  0.32513  1.0000
  C   C90       1.0  0.64545  0.65663  0.17487  1.0000
  C   C91       1.0  0.64545  0.34337  0.67487  1.0000
  C   C92       1.0  0.35455  0.34337  0.82513  1.0000
  H   H53       1.0  0.40244  0.67443  0.30716  1.0000
  H   H54       1.0  0.59756  0.67443  0.19284  1.0000
  H   H55       1.0  0.59756  0.32557  0.69284  1.0000
  H   H56       1.0  0.40244  0.32557  0.80716  1.0000
  C   C93       1.0  0.28389  0.57218  0.29150  1.0000
  C   C94       1.0  0.71611  0.57218  0.20850  1.0000
  C   C95       1.0  0.71611  0.42782  0.70850  1.0000
  C   C96       1.0  0.28389  0.42782  0.79150  1.0000
  H   H57       1.0  0.28180  0.53324  0.24969  1.0000
  H   H58       1.0  0.71820  0.53324  0.25031  1.0000
  H   H59       1.0  0.71820  0.46676  0.75031  1.0000
  H   H60       1.0  0.28180  0.46676  0.74969  1.0000
