data_image0
_chemical_formula_structural       Bi12S72O64C4O8C4O4C4O4C4O4C4O8C40H4O4C32H4C16H4C4H4C4H4C4H4C28H4C8H4C40H4C4H4C32H4C8H4
_chemical_formula_sum              "Bi12 S72 O96 C240 H48"
_cell_length_a       25.5961
_cell_length_b       22.5938
_cell_length_c       17.288
_cell_angle_alpha    90
_cell_angle_beta     100.512
_cell_angle_gamma    90

_space_group_name_H-M_alt    "P 1"
_space_group_IT_number       1

loop_
  _space_group_symop_operation_xyz
  'x, y, z'

loop_
  _atom_site_type_symbol
  _atom_site_label
  _atom_site_symmetry_multiplicity
  _atom_site_fract_x
  _atom_site_fract_y
  _atom_site_fract_z
  _atom_site_occupancy
  Bi  Bi1       1.0  0.43606  0.74782  0.71169  1.0000
  Bi  Bi2       1.0  0.56394  0.74782  0.28831  1.0000
  Bi  Bi3       1.0  0.93606  0.24782  0.71169  1.0000
  Bi  Bi4       1.0  0.06394  0.24782  0.28831  1.0000
  Bi  Bi5       1.0  0.69778  0.25491  0.96433  1.0000
  Bi  Bi6       1.0  0.30222  0.25491  0.03567  1.0000
  Bi  Bi7       1.0  0.19778  0.75491  0.96433  1.0000
  Bi  Bi8       1.0  0.80222  0.75491  0.03567  1.0000
  Bi  Bi9       1.0  0.31973  0.75103  0.84712  1.0000
  Bi  Bi10      1.0  0.68027  0.75103  0.15288  1.0000
  Bi  Bi11      1.0  0.81973  0.25103  0.84712  1.0000
  Bi  Bi12      1.0  0.18027  0.25103  0.15288  1.0000
  S   S1        1.0  0.45440  0.95490  0.88510  1.0000
  S   S2        1.0  0.54560  0.95490  0.11490  1.0000
  S   S3        1.0  0.95440  0.45490  0.88510  1.0000
  S   S4        1.0  0.04560  0.45490  0.11490  1.0000
  S   S5        1.0  0.67880  0.44910  0.77560  1.0000
  S   S6        1.0  0.32120  0.44910  0.22440  1.0000
  S   S7        1.0  0.17880  0.94910  0.77560  1.0000
  S   S8        1.0  0.82120  0.94910  0.22440  1.0000
  S   S9        1.0  0.55690  0.08240  0.93630  1.0000
  S   S10       1.0  0.44310  0.08240  0.06370  1.0000
  S   S11       1.0  0.05690  0.58240  0.93630  1.0000
  S   S12       1.0  0.94310  0.58240  0.06370  1.0000
  S   S13       1.0  0.57810  0.57770  0.75340  1.0000
  S   S14       1.0  0.42190  0.57770  0.24660  1.0000
  S   S15       1.0  0.07810  0.07770  0.75340  1.0000
  S   S16       1.0  0.92190  0.07770  0.24660  1.0000
  S   S17       1.0  0.29720  0.63470  0.27970  1.0000
  S   S18       1.0  0.70280  0.63470  0.72030  1.0000
  S   S19       1.0  0.79720  0.13470  0.27970  1.0000
  S   S20       1.0  0.20280  0.13470  0.72030  1.0000
  S   S21       1.0  0.38062  0.76300  0.17610  1.0000
  S   S22       1.0  0.61938  0.76300  0.82390  1.0000
  S   S23       1.0  0.88062  0.26300  0.17610  1.0000
  S   S24       1.0  0.11938  0.26300  0.82390  1.0000
  S   S25       1.0  0.61520  0.90890  0.94680  1.0000
  S   S26       1.0  0.38480  0.90890  0.05320  1.0000
  S   S27       1.0  0.11520  0.40890  0.94680  1.0000
  S   S28       1.0  0.88480  0.40890  0.05320  1.0000
  S   S29       1.0  0.65680  0.53570  0.98060  1.0000
  S   S30       1.0  0.34320  0.53570  0.01940  1.0000
  S   S31       1.0  0.15680  0.03570  0.98060  1.0000
  S   S32       1.0  0.84320  0.03570  0.01940  1.0000
  S   S33       1.0  0.41155  0.74810  0.40420  1.0000
  S   S34       1.0  0.58845  0.74810  0.59580  1.0000
  S   S35       1.0  0.91155  0.24810  0.40420  1.0000
  S   S36       1.0  0.08845  0.24810  0.59580  1.0000
  S   S37       1.0  0.71550  0.26540  0.26960  1.0000
  S   S38       1.0  0.28450  0.26540  0.73040  1.0000
  S   S39       1.0  0.21550  0.76540  0.26960  1.0000
  S   S40       1.0  0.78450  0.76540  0.73040  1.0000
  S   S41       1.0  0.58120  0.91760  0.73120  1.0000
  S   S42       1.0  0.41880  0.91760  0.26880  1.0000
  S   S43       1.0  0.08120  0.41760  0.73120  1.0000
  S   S44       1.0  0.91880  0.41760  0.26880  1.0000
  S   S45       1.0  0.74650  0.25310  0.49860  1.0000
  S   S46       1.0  0.25350  0.25310  0.50140  1.0000
  S   S47       1.0  0.24650  0.75310  0.49860  1.0000
  S   S48       1.0  0.75350  0.75310  0.50140  1.0000
  S   S49       1.0  0.54970  0.41740  0.92830  1.0000
  S   S50       1.0  0.45030  0.41740  0.07170  1.0000
  S   S51       1.0  0.04970  0.91740  0.92830  1.0000
  S   S52       1.0  0.95030  0.91740  0.07170  1.0000
  S   S53       1.0  0.52450  0.09170  0.72030  1.0000
  S   S54       1.0  0.47550  0.09170  0.27970  1.0000
  S   S55       1.0  0.02450  0.59170  0.72030  1.0000
  S   S56       1.0  0.97550  0.59170  0.27970  1.0000
  S   S57       1.0  0.47670  0.46470  0.70070  1.0000
  S   S58       1.0  0.52330  0.46470  0.29930  1.0000
  S   S59       1.0  0.97670  0.96470  0.70070  1.0000
  S   S60       1.0  0.02330  0.96470  0.29930  1.0000
  S   S61       1.0  0.45320  0.55200  0.90470  1.0000
  S   S62       1.0  0.54680  0.55200  0.09530  1.0000
  S   S63       1.0  0.95320  0.05200  0.90470  1.0000
  S   S64       1.0  0.04680  0.05200  0.09530  1.0000
  S   S65       1.0  0.82420  0.38410  0.39310  1.0000
  S   S66       1.0  0.17580  0.38410  0.60690  1.0000
  S   S67       1.0  0.32420  0.88410  0.39310  1.0000
  S   S68       1.0  0.67580  0.88410  0.60690  1.0000
  S   S69       1.0  0.68470  0.04630  0.77750  1.0000
  S   S70       1.0  0.31530  0.04630  0.22250  1.0000
  S   S71       1.0  0.18470  0.54630  0.77750  1.0000
  S   S72       1.0  0.81530  0.54630  0.22250  1.0000
  O   O1        1.0  0.50960  0.81050  0.71570  1.0000
  O   O2        1.0  0.49040  0.81050  0.28430  1.0000
  O   O3        1.0  0.00960  0.31050  0.71570  1.0000
  O   O4        1.0  0.99040  0.31050  0.28430  1.0000
  O   O5        1.0  0.62510  0.19040  0.95700  1.0000
  O   O6        1.0  0.37490  0.19040  0.04300  1.0000
  O   O7        1.0  0.12510  0.69040  0.95700  1.0000
  O   O8        1.0  0.87490  0.69040  0.04300  1.0000
  O   O9        1.0  0.49890  0.67360  0.71330  1.0000
  O   O10       1.0  0.50110  0.67360  0.28670  1.0000
  O   O11       1.0  0.99890  0.17360  0.71330  1.0000
  O   O12       1.0  0.00110  0.17360  0.28670  1.0000
  O   O13       1.0  0.69360  0.25210  0.09600  1.0000
  O   O14       1.0  0.30640  0.25210  0.90400  1.0000
  O   O15       1.0  0.19360  0.75210  0.09600  1.0000
  O   O16       1.0  0.80640  0.75210  0.90400  1.0000
  O   O17       1.0  0.29930  0.71770  0.96920  1.0000
  O   O18       1.0  0.70070  0.71770  0.03080  1.0000
  O   O19       1.0  0.79930  0.21770  0.96920  1.0000
  O   O20       1.0  0.20070  0.21770  0.03080  1.0000
  O   O21       1.0  0.41750  0.78630  0.85440  1.0000
  O   O22       1.0  0.58250  0.78630  0.14560  1.0000
  O   O23       1.0  0.91750  0.28630  0.85440  1.0000
  O   O24       1.0  0.08250  0.28630  0.14560  1.0000
  O   O25       1.0  0.43810  0.75370  0.57880  1.0000
  O   O26       1.0  0.56190  0.75370  0.42120  1.0000
  O   O27       1.0  0.93810  0.25370  0.57880  1.0000
  O   O28       1.0  0.06190  0.25370  0.42120  1.0000
  O   O29       1.0  0.37180  0.67370  0.77340  1.0000
  O   O30       1.0  0.62820  0.67370  0.22660  1.0000
  O   O31       1.0  0.87180  0.17370  0.77340  1.0000
  O   O32       1.0  0.12820  0.17370  0.22660  1.0000
  O   O33       1.0  0.49550  0.70270  0.83300  1.0000
  O   O34       1.0  0.50450  0.70270  0.16700  1.0000
  O   O35       1.0  0.99550  0.20270  0.83300  1.0000
  O   O36       1.0  0.00450  0.20270  0.16700  1.0000
  O   O37       1.0  0.36580  0.86530  0.84960  1.0000
  O   O38       1.0  0.63420  0.86530  0.15040  1.0000
  O   O39       1.0  0.86580  0.36530  0.84960  1.0000
  O   O40       1.0  0.13420  0.36530  0.15040  1.0000
  O   O41       1.0  0.76370  0.32660  0.89810  1.0000
  O   O42       1.0  0.23630  0.32660  0.10190  1.0000
  O   O43       1.0  0.26370  0.82660  0.89810  1.0000
  O   O44       1.0  0.73630  0.82660  0.10190  1.0000
  O   O45       1.0  0.76700  0.23160  0.67420  1.0000
  O   O46       1.0  0.23300  0.23160  0.32580  1.0000
  O   O47       1.0  0.26700  0.73160  0.67420  1.0000
  O   O48       1.0  0.73300  0.73160  0.32580  1.0000
  O   O49       1.0  0.37490  0.76900  0.99770  1.0000
  O   O50       1.0  0.62510  0.76900  0.00230  1.0000
  O   O51       1.0  0.87490  0.26900  0.99770  1.0000
  O   O52       1.0  0.12510  0.26900  0.00230  1.0000
  O   O53       1.0  0.38700  0.66190  0.90220  1.0000
  O   O54       1.0  0.61300  0.66190  0.09780  1.0000
  O   O55       1.0  0.88700  0.16190  0.90220  1.0000
  O   O56       1.0  0.11300  0.16190  0.09780  1.0000
  O   O57       1.0  0.63300  0.29540  0.84480  1.0000
  O   O58       1.0  0.36700  0.29540  0.15520  1.0000
  O   O59       1.0  0.13300  0.79540  0.84480  1.0000
  O   O60       1.0  0.86700  0.79540  0.15520  1.0000
  O   O61       1.0  0.43420  0.85900  0.68870  1.0000
  O   O62       1.0  0.56580  0.85900  0.31130  1.0000
  O   O63       1.0  0.93420  0.35900  0.68870  1.0000
  O   O64       1.0  0.06580  0.35900  0.31130  1.0000
  C   C1        1.0  0.61950  0.54470  0.83050  1.0000
  C   C2        1.0  0.38050  0.54470  0.16950  1.0000
  C   C3        1.0  0.11950  0.04470  0.83050  1.0000
  C   C4        1.0  0.88050  0.04470  0.16950  1.0000
  O   O65       1.0  0.70240  0.14460  0.98810  1.0000
  O   O66       1.0  0.29760  0.14460  0.01190  1.0000
  O   O67       1.0  0.20240  0.64460  0.98810  1.0000
  O   O68       1.0  0.79760  0.64460  0.01190  1.0000
  O   O69       1.0  0.74310  0.32580  0.07020  1.0000
  O   O70       1.0  0.25690  0.32580  0.92980  1.0000
  O   O71       1.0  0.24310  0.82580  0.07020  1.0000
  O   O72       1.0  0.75690  0.82580  0.92980  1.0000
  C   C5        1.0  0.65200  0.14410  0.97040  1.0000
  C   C6        1.0  0.34800  0.14410  0.02960  1.0000
  C   C7        1.0  0.15200  0.64410  0.97040  1.0000
  C   C8        1.0  0.84800  0.64410  0.02960  1.0000
  O   O73       1.0  0.63140  0.32340  0.96640  1.0000
  O   O74       1.0  0.36860  0.32340  0.03360  1.0000
  O   O75       1.0  0.13140  0.82340  0.96640  1.0000
  O   O76       1.0  0.86860  0.82340  0.03360  1.0000
  C   C9        1.0  0.54710  0.90490  0.91780  1.0000
  C   C10       1.0  0.45290  0.90490  0.08220  1.0000
  C   C11       1.0  0.04710  0.40490  0.91780  1.0000
  C   C12       1.0  0.95290  0.40490  0.08220  1.0000
  O   O77       1.0  0.83420  0.28740  0.70270  1.0000
  O   O78       1.0  0.16580  0.28740  0.29730  1.0000
  O   O79       1.0  0.33420  0.78740  0.70270  1.0000
  O   O80       1.0  0.66580  0.78740  0.29730  1.0000
  C   C13       1.0  0.35860  0.72120  0.24580  1.0000
  C   C14       1.0  0.64140  0.72120  0.75420  1.0000
  C   C15       1.0  0.85860  0.22120  0.24580  1.0000
  C   C16       1.0  0.14140  0.22120  0.75420  1.0000
  O   O81       1.0  0.72350  0.21290  0.82720  1.0000
  O   O82       1.0  0.27650  0.21290  0.17280  1.0000
  O   O83       1.0  0.22350  0.71290  0.82720  1.0000
  O   O84       1.0  0.77650  0.71290  0.17280  1.0000
  C   C17       1.0  0.61840  0.03820  0.75110  1.0000
  C   C18       1.0  0.38160  0.03820  0.24890  1.0000
  C   C19       1.0  0.11840  0.53820  0.75110  1.0000
  C   C20       1.0  0.88160  0.53820  0.24890  1.0000
  O   O85       1.0  0.38720  0.68090  0.60470  1.0000
  O   O86       1.0  0.61280  0.68090  0.39530  1.0000
  O   O87       1.0  0.88720  0.18090  0.60470  1.0000
  O   O88       1.0  0.11280  0.18090  0.39530  1.0000
  O   O89       1.0  0.75430  0.34550  0.77230  1.0000
  O   O90       1.0  0.24570  0.34550  0.22770  1.0000
  O   O91       1.0  0.25430  0.84550  0.77230  1.0000
  O   O92       1.0  0.74570  0.84550  0.22770  1.0000
  C   C21       1.0  0.51570  0.66860  0.78960  1.0000
  C   C22       1.0  0.48430  0.66860  0.21040  1.0000
  C   C23       1.0  0.01570  0.16860  0.78960  1.0000
  C   C24       1.0  0.98430  0.16860  0.21040  1.0000
  C   C25       1.0  0.61530  0.56990  0.90380  1.0000
  C   C26       1.0  0.38470  0.56990  0.09620  1.0000
  C   C27       1.0  0.11530  0.06990  0.90380  1.0000
  C   C28       1.0  0.88470  0.06990  0.09620  1.0000
  C   C29       1.0  0.41100  0.84230  0.86090  1.0000
  C   C30       1.0  0.58900  0.84230  0.13910  1.0000
  C   C31       1.0  0.91100  0.34230  0.86090  1.0000
  C   C32       1.0  0.08900  0.34230  0.13910  1.0000
  C   C33       1.0  0.47560  0.50150  0.84470  1.0000
  C   C34       1.0  0.52440  0.50150  0.15530  1.0000
  C   C35       1.0  0.97560  0.00150  0.84470  1.0000
  C   C36       1.0  0.02440  0.00150  0.15530  1.0000
  C   C37       1.0  0.62560  0.08450  0.96130  1.0000
  C   C38       1.0  0.37440  0.08450  0.03870  1.0000
  C   C39       1.0  0.12560  0.58450  0.96130  1.0000
  C   C40       1.0  0.87440  0.58450  0.03870  1.0000
  C   C41       1.0  0.72440  0.29610  0.11730  1.0000
  C   C42       1.0  0.27560  0.29610  0.88270  1.0000
  C   C43       1.0  0.22440  0.79610  0.11730  1.0000
  C   C44       1.0  0.77560  0.79610  0.88270  1.0000
  C   C45       1.0  0.33700  0.73980  0.01710  1.0000
  C   C46       1.0  0.66300  0.73980  0.98290  1.0000
  C   C47       1.0  0.83700  0.23980  0.01710  1.0000
  C   C48       1.0  0.16300  0.23980  0.98290  1.0000
  C   C49       1.0  0.37120  0.71360  0.32730  1.0000
  C   C50       1.0  0.62880  0.71360  0.67270  1.0000
  C   C51       1.0  0.87120  0.21360  0.32730  1.0000
  C   C52       1.0  0.12880  0.21360  0.67270  1.0000
  C   C53       1.0  0.55410  0.62440  0.81950  1.0000
  C   C54       1.0  0.44590  0.62440  0.18050  1.0000
  C   C55       1.0  0.05410  0.12440  0.81950  1.0000
  C   C56       1.0  0.94590  0.12440  0.18050  1.0000
  C   C57       1.0  0.55210  0.38210  0.79040  1.0000
  C   C58       1.0  0.44790  0.38210  0.20960  1.0000
  C   C59       1.0  0.05210  0.88210  0.79040  1.0000
  C   C60       1.0  0.94790  0.88210  0.20960  1.0000
  H   H1        1.0  0.56080  0.36100  0.74840  1.0000
  H   H2        1.0  0.43920  0.36100  0.25160  1.0000
  H   H3        1.0  0.06080  0.86100  0.74840  1.0000
  H   H4        1.0  0.93920  0.86100  0.25160  1.0000
  O   O93       1.0  0.77180  0.13610  0.81060  1.0000
  O   O94       1.0  0.22820  0.13610  0.18940  1.0000
  O   O95       1.0  0.27180  0.63610  0.81060  1.0000
  O   O96       1.0  0.72820  0.63610  0.18940  1.0000
  C   C61       1.0  0.61010  0.98600  0.94920  1.0000
  C   C62       1.0  0.38990  0.98600  0.05080  1.0000
  C   C63       1.0  0.11010  0.48600  0.94920  1.0000
  C   C64       1.0  0.88990  0.48600  0.05080  1.0000
  C   C65       1.0  0.38990  0.64460  0.83520  1.0000
  C   C66       1.0  0.61010  0.64460  0.16480  1.0000
  C   C67       1.0  0.88990  0.14460  0.83520  1.0000
  C   C68       1.0  0.11010  0.14460  0.16480  1.0000
  C   C69       1.0  0.56100  0.00690  0.93130  1.0000
  C   C70       1.0  0.43900  0.00690  0.06870  1.0000
  C   C71       1.0  0.06100  0.50690  0.93130  1.0000
  C   C72       1.0  0.93900  0.50690  0.06870  1.0000
  C   C73       1.0  0.41780  0.58900  0.82450  1.0000
  C   C74       1.0  0.58220  0.58900  0.17550  1.0000
  C   C75       1.0  0.91780  0.08900  0.82450  1.0000
  C   C76       1.0  0.08220  0.08900  0.17550  1.0000
  C   C77       1.0  0.52360  0.95920  0.91240  1.0000
  C   C78       1.0  0.47640  0.95920  0.08760  1.0000
  C   C79       1.0  0.02360  0.45920  0.91240  1.0000
  C   C80       1.0  0.97640  0.45920  0.08760  1.0000
  C   C81       1.0  0.45660  0.51480  0.76340  1.0000
  C   C82       1.0  0.54340  0.51480  0.23660  1.0000
  C   C83       1.0  0.95660  0.01480  0.76340  1.0000
  C   C84       1.0  0.04340  0.01480  0.23660  1.0000
  C   C85       1.0  0.65660  0.49790  0.83680  1.0000
  C   C86       1.0  0.34340  0.49790  0.16320  1.0000
  C   C87       1.0  0.15660  0.99790  0.83680  1.0000
  C   C88       1.0  0.84340  0.99790  0.16320  1.0000
  C   C89       1.0  0.64920  0.03260  0.96820  1.0000
  C   C90       1.0  0.35080  0.03260  0.03180  1.0000
  C   C91       1.0  0.14920  0.53260  0.96820  1.0000
  C   C92       1.0  0.85080  0.53260  0.03180  1.0000
  H   H5        1.0  0.68560  0.02660  0.98300  1.0000
  H   H6        1.0  0.31440  0.02660  0.01700  1.0000
  H   H7        1.0  0.18560  0.52660  0.98300  1.0000
  H   H8        1.0  0.81440  0.52660  0.01700  1.0000
  C   C93       1.0  0.31940  0.67990  0.21100  1.0000
  C   C94       1.0  0.68060  0.67990  0.78900  1.0000
  C   C95       1.0  0.81940  0.17990  0.21100  1.0000
  C   C96       1.0  0.18060  0.17990  0.78900  1.0000
  C   C97       1.0  0.57280  0.37120  0.86350  1.0000
  C   C98       1.0  0.42720  0.37120  0.13650  1.0000
  C   C99       1.0  0.07280  0.87120  0.86350  1.0000
  C   C100      1.0  0.92720  0.87120  0.13650  1.0000
  C   C101      1.0  0.51100  0.45310  0.85250  1.0000
  C   C102      1.0  0.48900  0.45310  0.14750  1.0000
  C   C103      1.0  0.01100  0.95310  0.85250  1.0000
  C   C104      1.0  0.98900  0.95310  0.14750  1.0000
  C   C105      1.0  0.48870  0.97040  0.69750  1.0000
  C   C106      1.0  0.51130  0.97040  0.30250  1.0000
  C   C107      1.0  0.98870  0.47040  0.69750  1.0000
  C   C108      1.0  0.01130  0.47040  0.30250  1.0000
  H   H9        1.0  0.45250  0.97770  0.68260  1.0000
  H   H10       1.0  0.54750  0.97770  0.31740  1.0000
  H   H11       1.0  0.95250  0.47770  0.68260  1.0000
  H   H12       1.0  0.04750  0.47770  0.31740  1.0000
  C   C109      1.0  0.57750  0.61580  0.89460  1.0000
  C   C110      1.0  0.42250  0.61580  0.10540  1.0000
  C   C111      1.0  0.07750  0.11580  0.89460  1.0000
  C   C112      1.0  0.92250  0.11580  0.10540  1.0000
  H   H13       1.0  0.56960  0.63790  0.93640  1.0000
  H   H14       1.0  0.43040  0.63790  0.06360  1.0000
  H   H15       1.0  0.06960  0.13790  0.93640  1.0000
  H   H16       1.0  0.93040  0.13790  0.06360  1.0000
  C   C113      1.0  0.30600  0.68380  0.12590  1.0000
  C   C114      1.0  0.69400  0.68380  0.87410  1.0000
  C   C115      1.0  0.80600  0.18380  0.12590  1.0000
  C   C116      1.0  0.19400  0.18380  0.87410  1.0000
  H   H17       1.0  0.28060  0.66110  0.09370  1.0000
  H   H18       1.0  0.71940  0.66110  0.90630  1.0000
  H   H19       1.0  0.78060  0.16110  0.09370  1.0000
  H   H20       1.0  0.21940  0.16110  0.90630  1.0000
  C   C117      1.0  0.51190  0.85820  0.90090  1.0000
  C   C118      1.0  0.48810  0.85820  0.09910  1.0000
  C   C119      1.0  0.01190  0.35820  0.90090  1.0000
  C   C120      1.0  0.98810  0.35820  0.09910  1.0000
  H   H21       1.0  0.52200  0.81860  0.90160  1.0000
  H   H22       1.0  0.47800  0.81860  0.09840  1.0000
  H   H23       1.0  0.02200  0.31860  0.90160  1.0000
  H   H24       1.0  0.97800  0.31860  0.09840  1.0000
  C   C121      1.0  0.75500  0.30420  0.34550  1.0000
  C   C122      1.0  0.24500  0.30420  0.65450  1.0000
  C   C123      1.0  0.25500  0.80420  0.34550  1.0000
  C   C124      1.0  0.74500  0.80420  0.65450  1.0000
  C   C125      1.0  0.67790  0.12200  0.78840  1.0000
  C   C126      1.0  0.32210  0.12200  0.21160  1.0000
  C   C127      1.0  0.17790  0.62200  0.78840  1.0000
  C   C128      1.0  0.82210  0.62200  0.21160  1.0000
  C   C129      1.0  0.33700  0.72690  0.10090  1.0000
  C   C130      1.0  0.66300  0.72690  0.89910  1.0000
  C   C131      1.0  0.83700  0.22690  0.10090  1.0000
  C   C132      1.0  0.16300  0.22690  0.89910  1.0000
  C   C133      1.0  0.73900  0.30840  0.20190  1.0000
  C   C134      1.0  0.26100  0.30840  0.79810  1.0000
  C   C135      1.0  0.23900  0.80840  0.20190  1.0000
  C   C136      1.0  0.76100  0.80840  0.79810  1.0000
  C   C137      1.0  0.51210  0.91450  0.70720  1.0000
  C   C138      1.0  0.48790  0.91450  0.29280  1.0000
  C   C139      1.0  0.01210  0.41450  0.70720  1.0000
  C   C140      1.0  0.98790  0.41450  0.29280  1.0000
  C   C141      1.0  0.48430  0.85990  0.70260  1.0000
  C   C142      1.0  0.51570  0.85990  0.29740  1.0000
  C   C143      1.0  0.98430  0.35990  0.70260  1.0000
  C   C144      1.0  0.01570  0.35990  0.29740  1.0000
  C   C145      1.0  0.77610  0.34920  0.23600  1.0000
  C   C146      1.0  0.22390  0.34920  0.76400  1.0000
  C   C147      1.0  0.27610  0.84920  0.23600  1.0000
  C   C148      1.0  0.72390  0.84920  0.76400  1.0000
  H   H25       1.0  0.79410  0.37520  0.20840  1.0000
  H   H26       1.0  0.20590  0.37520  0.79160  1.0000
  H   H27       1.0  0.29410  0.87520  0.20840  1.0000
  H   H28       1.0  0.70590  0.87520  0.79160  1.0000
  C   C149      1.0  0.72900  0.15890  0.80910  1.0000
  C   C150      1.0  0.27100  0.15890  0.19090  1.0000
  C   C151      1.0  0.22900  0.65890  0.80910  1.0000
  C   C152      1.0  0.77100  0.65890  0.19090  1.0000
  C   C153      1.0  0.34980  0.66390  0.43570  1.0000
  C   C154      1.0  0.65020  0.66390  0.56430  1.0000
  C   C155      1.0  0.84980  0.16390  0.43570  1.0000
  C   C156      1.0  0.15020  0.16390  0.56430  1.0000
  H   H29       1.0  0.33380  0.63530  0.46220  1.0000
  H   H30       1.0  0.66620  0.63530  0.53780  1.0000
  H   H31       1.0  0.83380  0.13530  0.46220  1.0000
  H   H32       1.0  0.16620  0.13530  0.53780  1.0000
  C   C157      1.0  0.61490  0.32630  0.89300  1.0000
  C   C158      1.0  0.38510  0.32630  0.10700  1.0000
  C   C159      1.0  0.11490  0.82630  0.89300  1.0000
  C   C160      1.0  0.88510  0.82630  0.10700  1.0000
  C   C161      1.0  0.45870  0.87810  0.88220  1.0000
  C   C162      1.0  0.54130  0.87810  0.11780  1.0000
  C   C163      1.0  0.95870  0.37810  0.88220  1.0000
  C   C164      1.0  0.04130  0.37810  0.11780  1.0000
  C   C165      1.0  0.34000  0.67100  0.35440  1.0000
  C   C166      1.0  0.66000  0.67100  0.64560  1.0000
  C   C167      1.0  0.84000  0.17100  0.35440  1.0000
  C   C168      1.0  0.16000  0.17100  0.64560  1.0000
  C   C169      1.0  0.40500  0.71200  0.55670  1.0000
  C   C170      1.0  0.59500  0.71200  0.44330  1.0000
  C   C171      1.0  0.90500  0.21200  0.55670  1.0000
  C   C172      1.0  0.09500  0.21200  0.44330  1.0000
  C   C173      1.0  0.67830  0.48790  0.91510  1.0000
  C   C174      1.0  0.32170  0.48790  0.08490  1.0000
  C   C175      1.0  0.17830  0.98790  0.91510  1.0000
  C   C176      1.0  0.82170  0.98790  0.08490  1.0000
  C   C177      1.0  0.76650  0.29910  0.42920  1.0000
  C   C178      1.0  0.23350  0.29910  0.57080  1.0000
  C   C179      1.0  0.26650  0.79910  0.42920  1.0000
  C   C180      1.0  0.73350  0.79910  0.57080  1.0000
  C   C181      1.0  0.51550  0.42870  0.78100  1.0000
  C   C182      1.0  0.48450  0.42870  0.21900  1.0000
  C   C183      1.0  0.01550  0.92870  0.78100  1.0000
  C   C184      1.0  0.98450  0.92870  0.21900  1.0000
  C   C185      1.0  0.74610  0.35670  0.84080  1.0000
  C   C186      1.0  0.25390  0.35670  0.15920  1.0000
  C   C187      1.0  0.24610  0.85670  0.84080  1.0000
  C   C188      1.0  0.75390  0.85670  0.15920  1.0000
  C   C189      1.0  0.59400  0.09500  0.75080  1.0000
  C   C190      1.0  0.40600  0.09500  0.24920  1.0000
  C   C191      1.0  0.09400  0.59500  0.75080  1.0000
  C   C192      1.0  0.90600  0.59500  0.24920  1.0000
  C   C193      1.0  0.42330  0.56560  0.75250  1.0000
  C   C194      1.0  0.57670  0.56560  0.24750  1.0000
  C   C195      1.0  0.92330  0.06560  0.75250  1.0000
  C   C196      1.0  0.07670  0.06560  0.24750  1.0000
  H   H33       1.0  0.40740  0.58090  0.70390  1.0000
  H   H34       1.0  0.59260  0.58090  0.29610  1.0000
  H   H35       1.0  0.90740  0.08090  0.70390  1.0000
  H   H36       1.0  0.09260  0.08090  0.29610  1.0000
  C   C197      1.0  0.63030  0.14210  0.77210  1.0000
  C   C198      1.0  0.36970  0.14210  0.22790  1.0000
  C   C199      1.0  0.13030  0.64210  0.77210  1.0000
  C   C200      1.0  0.86970  0.64210  0.22790  1.0000
  H   H37       1.0  0.62090  0.18170  0.77410  1.0000
  H   H38       1.0  0.37910  0.18170  0.22590  1.0000
  H   H39       1.0  0.12090  0.68170  0.77410  1.0000
  H   H40       1.0  0.87910  0.68170  0.22590  1.0000
  C   C201      1.0  0.79290  0.28960  0.57340  1.0000
  C   C202      1.0  0.20710  0.28960  0.42660  1.0000
  C   C203      1.0  0.29290  0.78960  0.57340  1.0000
  C   C204      1.0  0.70710  0.78960  0.42660  1.0000
  C   C205      1.0  0.58030  0.99340  0.73140  1.0000
  C   C206      1.0  0.41970  0.99340  0.26860  1.0000
  C   C207      1.0  0.08030  0.49340  0.73140  1.0000
  C   C208      1.0  0.91970  0.49340  0.26860  1.0000
  C   C209      1.0  0.79780  0.26810  0.65500  1.0000
  C   C210      1.0  0.20220  0.26810  0.34500  1.0000
  C   C211      1.0  0.29780  0.76810  0.65500  1.0000
  C   C212      1.0  0.70220  0.76810  0.34500  1.0000
  C   C213      1.0  0.38500  0.70310  0.47060  1.0000
  C   C214      1.0  0.61500  0.70310  0.52940  1.0000
  C   C215      1.0  0.88500  0.20310  0.47060  1.0000
  C   C216      1.0  0.11500  0.20310  0.52940  1.0000
  C   C217      1.0  0.52890  0.01460  0.71400  1.0000
  C   C218      1.0  0.47110  0.01460  0.28600  1.0000
  C   C219      1.0  0.02890  0.51460  0.71400  1.0000
  C   C220      1.0  0.97110  0.51460  0.28600  1.0000
  C   C221      1.0  0.78290  0.34610  0.31650  1.0000
  C   C222      1.0  0.21710  0.34610  0.68350  1.0000
  C   C223      1.0  0.28290  0.84610  0.31650  1.0000
  C   C224      1.0  0.71710  0.84610  0.68350  1.0000
  C   C225      1.0  0.71650  0.41200  0.85550  1.0000
  C   C226      1.0  0.28350  0.41200  0.14450  1.0000
  C   C227      1.0  0.21650  0.91200  0.85550  1.0000
  C   C228      1.0  0.78350  0.91200  0.14450  1.0000
  C   C229      1.0  0.71270  0.43720  0.92720  1.0000
  C   C230      1.0  0.28730  0.43720  0.07280  1.0000
  C   C231      1.0  0.21270  0.93720  0.92720  1.0000
  C   C232      1.0  0.78730  0.93720  0.07280  1.0000
  H   H41       1.0  0.72990  0.42340  0.97590  1.0000
  H   H42       1.0  0.27010  0.42340  0.02410  1.0000
  H   H43       1.0  0.22990  0.92340  0.97590  1.0000
  H   H44       1.0  0.77010  0.92340  0.02410  1.0000
  C   C233      1.0  0.80310  0.33600  0.46190  1.0000
  C   C234      1.0  0.19690  0.33600  0.53810  1.0000
  C   C235      1.0  0.30310  0.83600  0.46190  1.0000
  C   C236      1.0  0.69690  0.83600  0.53810  1.0000
  C   C237      1.0  0.81830  0.33160  0.54290  1.0000
  C   C238      1.0  0.18170  0.33160  0.45710  1.0000
  C   C239      1.0  0.31830  0.83160  0.54290  1.0000
  C   C240      1.0  0.68170  0.83160  0.45710  1.0000
  H   H45       1.0  0.84380  0.35580  0.57260  1.0000
  H   H46       1.0  0.15620  0.35580  0.42740  1.0000
  H   H47       1.0  0.34380  0.85580  0.57260  1.0000
  H   H48       1.0  0.65620  0.85580  0.42740  1.0000
