data_image0
_chemical_formula_structural       I14Cu12P4O4N24C12H12C24H12C12H12C12H24
_chemical_formula_sum              "I14 Cu12 P4 O4 N24 C60 H60"
_cell_length_a       14.3503
_cell_length_b       14.3503
_cell_length_c       42.0598
_cell_angle_alpha    90
_cell_angle_beta     90
_cell_angle_gamma    120

_space_group_name_H-M_alt    "P 1"
_space_group_IT_number       1

loop_
  _space_group_symop_operation_xyz
  'x, y, z'

loop_
  _atom_site_type_symbol
  _atom_site_label
  _atom_site_symmetry_multiplicity
  _atom_site_fract_x
  _atom_site_fract_y
  _atom_site_fract_z
  _atom_site_occupancy
  I   I1        1.0  0.00000  0.00000  0.50000  1.0000
  I   I2        1.0  0.00000  0.00000  0.00000  1.0000
  I   I3        1.0  0.84372  0.04290  0.58479  1.0000
  I   I4        1.0  0.80082  0.84372  0.08479  1.0000
  I   I5        1.0  0.95710  0.80082  0.58479  1.0000
  I   I6        1.0  0.15628  0.95710  0.08479  1.0000
  I   I7        1.0  0.19918  0.15628  0.58479  1.0000
  I   I8        1.0  0.04290  0.19918  0.08479  1.0000
  I   I9        1.0  0.15628  0.95710  0.41521  1.0000
  I   I10       1.0  0.19918  0.15628  0.91521  1.0000
  I   I11       1.0  0.04290  0.19918  0.41521  1.0000
  I   I12       1.0  0.84372  0.04290  0.91521  1.0000
  I   I13       1.0  0.80082  0.84372  0.41521  1.0000
  I   I14       1.0  0.95710  0.80082  0.91521  1.0000
  Cu  Cu1       1.0  0.02784  0.12528  0.55469  1.0000
  Cu  Cu2       1.0  0.90256  0.02784  0.05469  1.0000
  Cu  Cu3       1.0  0.87472  0.90256  0.55469  1.0000
  Cu  Cu4       1.0  0.97216  0.87472  0.05469  1.0000
  Cu  Cu5       1.0  0.09744  0.97216  0.55469  1.0000
  Cu  Cu6       1.0  0.12528  0.09744  0.05469  1.0000
  Cu  Cu7       1.0  0.97216  0.87472  0.44531  1.0000
  Cu  Cu8       1.0  0.09744  0.97216  0.94531  1.0000
  Cu  Cu9       1.0  0.12528  0.09744  0.44531  1.0000
  Cu  Cu10      1.0  0.02784  0.12528  0.94531  1.0000
  Cu  Cu11      1.0  0.90256  0.02784  0.44531  1.0000
  Cu  Cu12      1.0  0.87472  0.90256  0.94531  1.0000
  P   P1        1.0  0.33333  0.66667  0.51693  1.0000
  P   P2        1.0  0.66666  0.33333  0.01693  1.0000
  P   P3        1.0  0.66667  0.33333  0.48307  1.0000
  P   P4        1.0  0.33334  0.66667  0.98307  1.0000
  O   O1        1.0  0.33333  0.66667  0.48140  1.0000
  O   O2        1.0  0.66666  0.33333  0.98140  1.0000
  O   O3        1.0  0.66667  0.33333  0.51860  1.0000
  O   O4        1.0  0.33334  0.66667  0.01860  1.0000
  N   N1        1.0  0.27950  0.54700  0.53320  1.0000
  N   N2        1.0  0.73250  0.27950  0.03320  1.0000
  N   N3        1.0  0.45300  0.73250  0.53320  1.0000
  N   N4        1.0  0.72050  0.45300  0.03320  1.0000
  N   N5        1.0  0.26750  0.72050  0.53320  1.0000
  N   N6        1.0  0.54700  0.26750  0.03320  1.0000
  N   N7        1.0  0.72050  0.45300  0.46680  1.0000
  N   N8        1.0  0.26750  0.72050  0.96680  1.0000
  N   N9        1.0  0.54700  0.26750  0.46680  1.0000
  N   N10       1.0  0.27950  0.54700  0.96680  1.0000
  N   N11       1.0  0.73250  0.27950  0.46680  1.0000
  N   N12       1.0  0.45300  0.73250  0.96680  1.0000
  N   N13       1.0  0.06120  0.26630  0.53490  1.0000
  N   N14       1.0  0.79490  0.06120  0.03490  1.0000
  N   N15       1.0  0.73370  0.79490  0.53490  1.0000
  N   N16       1.0  0.93880  0.73370  0.03490  1.0000
  N   N17       1.0  0.20510  0.93880  0.53490  1.0000
  N   N18       1.0  0.26630  0.20510  0.03490  1.0000
  N   N19       1.0  0.93880  0.73370  0.46510  1.0000
  N   N20       1.0  0.20510  0.93880  0.96510  1.0000
  N   N21       1.0  0.26630  0.20510  0.46510  1.0000
  N   N22       1.0  0.06120  0.26630  0.96510  1.0000
  N   N23       1.0  0.79490  0.06120  0.46510  1.0000
  N   N24       1.0  0.73370  0.79490  0.96510  1.0000
  C   C1        1.0  0.11360  0.45530  0.50130  1.0000
  C   C2        1.0  0.65830  0.11360  0.00130  1.0000
  C   C3        1.0  0.54470  0.65830  0.50130  1.0000
  C   C4        1.0  0.88640  0.54470  0.00130  1.0000
  C   C5        1.0  0.34170  0.88640  0.50130  1.0000
  C   C6        1.0  0.45530  0.34170  0.00130  1.0000
  C   C7        1.0  0.88640  0.54470  0.49870  1.0000
  C   C8        1.0  0.34170  0.88640  0.99870  1.0000
  C   C9        1.0  0.45530  0.34170  0.49870  1.0000
  C   C10       1.0  0.11360  0.45530  0.99870  1.0000
  C   C11       1.0  0.65830  0.11360  0.49870  1.0000
  C   C12       1.0  0.54470  0.65830  0.99870  1.0000
  H   H1        1.0  0.12961  0.51973  0.49046  1.0000
  H   H2        1.0  0.60988  0.12961  0.99046  1.0000
  H   H3        1.0  0.48027  0.60988  0.49046  1.0000
  H   H4        1.0  0.87039  0.48027  0.99046  1.0000
  H   H5        1.0  0.39012  0.87039  0.49046  1.0000
  H   H6        1.0  0.51973  0.39012  0.99046  1.0000
  H   H7        1.0  0.87039  0.48027  0.50954  1.0000
  H   H8        1.0  0.39012  0.87039  0.00954  1.0000
  H   H9        1.0  0.51973  0.39012  0.50954  1.0000
  H   H10       1.0  0.12961  0.51973  0.00954  1.0000
  H   H11       1.0  0.60988  0.12961  0.50954  1.0000
  H   H12       1.0  0.48027  0.60988  0.00954  1.0000
  C   C13       1.0  0.18060  0.45550  0.52340  1.0000
  C   C14       1.0  0.72510  0.18060  0.02340  1.0000
  C   C15       1.0  0.54450  0.72510  0.52340  1.0000
  C   C16       1.0  0.81940  0.54450  0.02340  1.0000
  C   C17       1.0  0.27490  0.81940  0.52340  1.0000
  C   C18       1.0  0.45550  0.27490  0.02340  1.0000
  C   C19       1.0  0.81940  0.54450  0.47660  1.0000
  C   C20       1.0  0.27490  0.81940  0.97660  1.0000
  C   C21       1.0  0.45550  0.27490  0.47660  1.0000
  C   C22       1.0  0.18060  0.45550  0.97660  1.0000
  C   C23       1.0  0.72510  0.18060  0.47660  1.0000
  C   C24       1.0  0.54450  0.72510  0.97660  1.0000
  C   C25       1.0  0.01970  0.35890  0.49440  1.0000
  C   C26       1.0  0.66080  0.01970  0.99440  1.0000
  C   C27       1.0  0.64110  0.66080  0.49440  1.0000
  C   C28       1.0  0.98030  0.64110  0.99440  1.0000
  C   C29       1.0  0.33920  0.98030  0.49440  1.0000
  C   C30       1.0  0.35890  0.33920  0.99440  1.0000
  C   C31       1.0  0.98030  0.64110  0.50560  1.0000
  C   C32       1.0  0.33920  0.98030  0.00560  1.0000
  C   C33       1.0  0.35890  0.33920  0.50560  1.0000
  C   C34       1.0  0.01970  0.35890  0.00560  1.0000
  C   C35       1.0  0.66080  0.01970  0.50560  1.0000
  C   C36       1.0  0.64110  0.66080  0.00560  1.0000
  H   H13       1.0  0.97415  0.35625  0.47765  1.0000
  H   H14       1.0  0.61790  0.97415  0.97765  1.0000
  H   H15       1.0  0.64375  0.61790  0.47765  1.0000
  H   H16       1.0  0.02585  0.64375  0.97765  1.0000
  H   H17       1.0  0.38210  0.02585  0.47765  1.0000
  H   H18       1.0  0.35625  0.38210  0.97765  1.0000
  H   H19       1.0  0.02585  0.64375  0.52235  1.0000
  H   H20       1.0  0.38210  0.02585  0.02235  1.0000
  H   H21       1.0  0.35625  0.38210  0.52235  1.0000
  H   H22       1.0  0.97415  0.35625  0.02235  1.0000
  H   H23       1.0  0.61790  0.97415  0.52235  1.0000
  H   H24       1.0  0.64375  0.61790  0.02235  1.0000
  C   C37       1.0  0.14830  0.35830  0.54130  1.0000
  C   C38       1.0  0.79000  0.14830  0.04130  1.0000
  C   C39       1.0  0.64170  0.79000  0.54130  1.0000
  C   C40       1.0  0.85170  0.64170  0.04130  1.0000
  C   C41       1.0  0.21000  0.85170  0.54130  1.0000
  C   C42       1.0  0.35830  0.21000  0.04130  1.0000
  C   C43       1.0  0.85170  0.64170  0.45870  1.0000
  C   C44       1.0  0.21000  0.85170  0.95870  1.0000
  C   C45       1.0  0.35830  0.21000  0.45870  1.0000
  C   C46       1.0  0.14830  0.35830  0.95870  1.0000
  C   C47       1.0  0.79000  0.14830  0.45870  1.0000
  C   C48       1.0  0.64170  0.79000  0.95870  1.0000
  H   H25       1.0  0.19218  0.36095  0.55855  1.0000
  H   H26       1.0  0.83123  0.19218  0.05855  1.0000
  H   H27       1.0  0.63905  0.83123  0.55855  1.0000
  H   H28       1.0  0.80782  0.63905  0.05855  1.0000
  H   H29       1.0  0.16877  0.80782  0.55855  1.0000
  H   H30       1.0  0.36095  0.16877  0.05855  1.0000
  H   H31       1.0  0.80782  0.63905  0.44145  1.0000
  H   H32       1.0  0.16877  0.80782  0.94145  1.0000
  H   H33       1.0  0.36095  0.16877  0.44145  1.0000
  H   H34       1.0  0.19218  0.36095  0.94145  1.0000
  H   H35       1.0  0.83123  0.19218  0.44145  1.0000
  H   H36       1.0  0.63905  0.83123  0.94145  1.0000
  C   C49       1.0  0.99330  0.26940  0.51160  1.0000
  C   C50       1.0  0.72390  0.99330  0.01160  1.0000
  C   C51       1.0  0.73060  0.72390  0.51160  1.0000
  C   C52       1.0  0.00670  0.73060  0.01160  1.0000
  C   C53       1.0  0.27610  0.00670  0.51160  1.0000
  C   C54       1.0  0.26940  0.27610  0.01160  1.0000
  C   C55       1.0  0.00670  0.73060  0.48840  1.0000
  C   C56       1.0  0.27610  0.00670  0.98840  1.0000
  C   C57       1.0  0.26940  0.27610  0.48840  1.0000
  C   C58       1.0  0.99330  0.26940  0.98840  1.0000
  C   C59       1.0  0.72390  0.99330  0.48840  1.0000
  C   C60       1.0  0.73060  0.72390  0.98840  1.0000
  H   H37       1.0  0.92625  0.20632  0.50763  1.0000
  H   H38       1.0  0.71993  0.92625  0.00763  1.0000
  H   H39       1.0  0.79368  0.71993  0.50763  1.0000
  H   H40       1.0  0.07375  0.79368  0.00763  1.0000
  H   H41       1.0  0.28007  0.07375  0.50763  1.0000
  H   H42       1.0  0.20632  0.28007  0.00763  1.0000
  H   H43       1.0  0.07375  0.79368  0.49237  1.0000
  H   H44       1.0  0.28007  0.07375  0.99237  1.0000
  H   H45       1.0  0.20632  0.28007  0.49237  1.0000
  H   H46       1.0  0.92625  0.20632  0.99237  1.0000
  H   H47       1.0  0.71993  0.92625  0.49237  1.0000
  H   H48       1.0  0.79368  0.71993  0.99237  1.0000
  H   H49       1.0  0.33600  0.56700  0.55100  1.0000
  H   H50       1.0  0.76900  0.33600  0.05100  1.0000
  H   H51       1.0  0.43300  0.76900  0.55100  1.0000
  H   H52       1.0  0.66400  0.43300  0.05100  1.0000
  H   H53       1.0  0.23100  0.66400  0.55100  1.0000
  H   H54       1.0  0.56700  0.23100  0.05100  1.0000
  H   H55       1.0  0.66400  0.43300  0.44900  1.0000
  H   H56       1.0  0.23100  0.66400  0.94900  1.0000
  H   H57       1.0  0.56700  0.23100  0.44900  1.0000
  H   H58       1.0  0.33600  0.56700  0.94900  1.0000
  H   H59       1.0  0.76900  0.33600  0.44900  1.0000
  H   H60       1.0  0.43300  0.76900  0.94900  1.0000
