data_image0
_chemical_formula_structural       Cd16O52C8O2C2O2C2H2O4C2H2O2C2O4C2H2C2H2O2C6H2O2C4H2C2H2C4H2C2H2C4H2C2H2C8O2C2O2C2H2O2C2H2C10H2C2H2C4H2C4H2C2H2C8H2C2H2C2H2C2H2C2H2C2H2C8H2C2H2C2H2C2O2C2H2C2H2C2O2C2H2C2H2C6H2C2H2C4H2C4H2O2C2H2C2H2C2H2C4H2C2H2C2H2C2H2C4H2C4H2C2H2C2H2C2H2C2H2C4H2C4H2C2H2C2H2C2H2C2H2C2H2C2H2C2H2O2C2H2C4H2O2C2H2C2H2C2H2C2H2C2H2C4H2C2H2C2O4C4H2C8H2C2O4C4H2O2C4H2O2C4H2C2H2C4H2C6H2C6H2C6H2C2H2C2H2C8H2C2H2O2
_chemical_formula_sum              "Cd16 O100 C280 H160"
_cell_length_a       17.656
_cell_length_b       16.2741
_cell_length_c       26.219
_cell_angle_alpha    90
_cell_angle_beta     90.609
_cell_angle_gamma    90

_space_group_name_H-M_alt    "P 1"
_space_group_IT_number       1

loop_
  _space_group_symop_operation_xyz
  'x, y, z'

loop_
  _atom_site_type_symbol
  _atom_site_label
  _atom_site_symmetry_multiplicity
  _atom_site_fract_x
  _atom_site_fract_y
  _atom_site_fract_z
  _atom_site_occupancy
  Cd  Cd1       1.0  0.12704  0.97646  0.14757  1.0000
  Cd  Cd2       1.0  0.87296  0.47646  0.85243  1.0000
  Cd  Cd3       1.0  0.86518  0.43401  0.14298  1.0000
  Cd  Cd4       1.0  0.13482  0.93401  0.85702  1.0000
  Cd  Cd5       1.0  0.37085  0.97196  0.64326  1.0000
  Cd  Cd6       1.0  0.62915  0.47196  0.35674  1.0000
  Cd  Cd7       1.0  0.36844  0.93533  0.35525  1.0000
  Cd  Cd8       1.0  0.63156  0.43533  0.64475  1.0000
  Cd  Cd9       1.0  0.39837  0.95303  0.49935  1.0000
  Cd  Cd10      1.0  0.60163  0.45303  0.50065  1.0000
  Cd  Cd11      1.0  0.10231  0.93674  0.00474  1.0000
  Cd  Cd12      1.0  0.89769  0.43674  0.99526  1.0000
  Cd  Cd13      1.0  0.25446  0.95261  0.74985  1.0000
  Cd  Cd14      1.0  0.74554  0.45261  0.25015  1.0000
  Cd  Cd15      1.0  0.24650  0.95546  0.25115  1.0000
  Cd  Cd16      1.0  0.75350  0.45546  0.74885  1.0000
  O   O1        1.0  0.18430  0.06040  0.20800  1.0000
  O   O2        1.0  0.81570  0.56040  0.79200  1.0000
  O   O3        1.0  0.85580  0.30720  0.00470  1.0000
  O   O4        1.0  0.14420  0.80720  0.99530  1.0000
  O   O5        1.0  0.31580  0.89790  0.43100  1.0000
  O   O6        1.0  0.68420  0.39790  0.56900  1.0000
  O   O7        1.0  0.35130  0.08120  0.50330  1.0000
  O   O8        1.0  0.64870  0.58120  0.49670  1.0000
  O   O9        1.0  0.31680  0.05370  0.70450  1.0000
  O   O10       1.0  0.68320  0.55370  0.29550  1.0000
  O   O11       1.0  0.18290  0.99990  0.07150  1.0000
  O   O12       1.0  0.81710  0.49990  0.92850  1.0000
  O   O13       1.0  0.34970  0.82380  0.49860  1.0000
  O   O14       1.0  0.65030  0.32380  0.50140  1.0000
  O   O15       1.0  0.31590  0.00820  0.56740  1.0000
  O   O16       1.0  0.68410  0.50820  0.43260  1.0000
  O   O17       1.0  0.16400  0.05920  0.99840  1.0000
  O   O18       1.0  0.83600  0.55920  0.00160  1.0000
  O   O19       1.0  0.94920  0.42390  0.79490  1.0000
  O   O20       1.0  0.05080  0.92390  0.20510  1.0000
  O   O21       1.0  0.30910  0.85230  0.29440  1.0000
  O   O22       1.0  0.69090  0.35230  0.70560  1.0000
  O   O23       1.0  0.52210  0.48950  0.40690  1.0000
  O   O24       1.0  0.47790  0.98950  0.59310  1.0000
  O   O25       1.0  0.97220  0.42460  0.09400  1.0000
  O   O26       1.0  0.02780  0.92460  0.90600  1.0000
  O   O27       1.0  0.35260  0.02170  0.23920  1.0000
  O   O28       1.0  0.64740  0.52170  0.76080  1.0000
  O   O29       1.0  0.44140  0.99960  0.30110  1.0000
  O   O30       1.0  0.55860  0.49960  0.69890  1.0000
  O   O31       1.0  0.98120  0.49990  0.90080  1.0000
  O   O32       1.0  0.01880  0.99990  0.09920  1.0000
  O   O33       1.0  0.64080  0.37730  0.24700  1.0000
  O   O34       1.0  0.35920  0.87730  0.75300  1.0000
  O   O35       1.0  0.86100  0.38850  0.73750  1.0000
  O   O36       1.0  0.13900  0.88850  0.26250  1.0000
  O   O37       1.0  0.90610  0.28700  0.17150  1.0000
  O   O38       1.0  0.09390  0.78700  0.82850  1.0000
  O   O39       1.0  0.54940  0.41750  0.30100  1.0000
  O   O40       1.0  0.45060  0.91750  0.69900  1.0000
  O   O41       1.0  0.25460  0.91370  0.16800  1.0000
  O   O42       1.0  0.74540  0.41370  0.83200  1.0000
  O   O43       1.0  0.41060  0.11750  0.67010  1.0000
  O   O44       1.0  0.58940  0.61750  0.32990  1.0000
  O   O45       1.0  0.79980  0.55050  0.12060  1.0000
  O   O46       1.0  0.20020  0.05050  0.87940  1.0000
  O   O47       1.0  0.17370  0.84020  0.12140  1.0000
  O   O48       1.0  0.82630  0.34020  0.87860  1.0000
  O   O49       1.0  0.94280  0.49520  0.19860  1.0000
  O   O50       1.0  0.05720  0.99520  0.80140  1.0000
  O   O51       1.0  0.76020  0.49300  0.66510  1.0000
  O   O52       1.0  0.23980  0.99300  0.33490  1.0000
  C   C1        1.0  0.01890  0.43600  0.91590  1.0000
  C   C2        1.0  0.98110  0.93600  0.08410  1.0000
  C   C3        1.0  0.47980  0.43260  0.42610  1.0000
  C   C4        1.0  0.52020  0.93260  0.57390  1.0000
  C   C5        1.0  0.59650  0.98210  0.40320  1.0000
  C   C6        1.0  0.40350  0.48210  0.59680  1.0000
  C   C7        1.0  0.25750  0.39950  0.36260  1.0000
  C   C8        1.0  0.74250  0.89950  0.63740  1.0000
  O   O53       1.0  0.23020  0.91530  0.66800  1.0000
  O   O54       1.0  0.76980  0.41530  0.33200  1.0000
  C   C9        1.0  0.09610  0.48460  0.09360  1.0000
  C   C10       1.0  0.90390  0.98460  0.90640  1.0000
  O   O55       1.0  0.31190  0.84840  0.62030  1.0000
  O   O56       1.0  0.68810  0.34840  0.37970  1.0000
  C   C11       1.0  0.10990  0.45930  0.14370  1.0000
  C   C12       1.0  0.89010  0.95930  0.85630  1.0000
  H   H1        1.0  0.07210  0.43250  0.16160  1.0000
  H   H2        1.0  0.92790  0.93250  0.83840  1.0000
  O   O57       1.0  0.18620  0.38650  0.34090  1.0000
  O   O58       1.0  0.81380  0.88650  0.65910  1.0000
  O   O59       1.0  0.31140  0.37910  0.83870  1.0000
  O   O60       1.0  0.68860  0.87910  0.16130  1.0000
  C   C13       1.0  0.11720  0.46120  0.85210  1.0000
  C   C14       1.0  0.88280  0.96120  0.14790  1.0000
  H   H3        1.0  0.08300  0.49440  0.83450  1.0000
  H   H4        1.0  0.91700  0.99440  0.16550  1.0000
  O   O61       1.0  0.14340  0.55820  0.39440  1.0000
  O   O62       1.0  0.85660  0.05820  0.60560  1.0000
  C   C15       1.0  0.84000  0.22090  0.23860  1.0000
  C   C16       1.0  0.16000  0.72090  0.76140  1.0000
  O   O63       1.0  0.99110  0.38320  0.94440  1.0000
  O   O64       1.0  0.00890  0.88320  0.05560  1.0000
  O   O65       1.0  0.15500  0.35590  0.60560  1.0000
  O   O66       1.0  0.84500  0.85590  0.39440  1.0000
  C   C17       1.0  0.17620  0.70210  0.38120  1.0000
  C   C18       1.0  0.82380  0.20210  0.61880  1.0000
  H   H5        1.0  0.14330  0.70730  0.35340  1.0000
  H   H6        1.0  0.85670  0.20730  0.64660  1.0000
  C   C19       1.0  0.38730  0.31180  0.77930  1.0000
  C   C20       1.0  0.61270  0.81180  0.22070  1.0000
  H   H7        1.0  0.42500  0.35060  0.78530  1.0000
  H   H8        1.0  0.57500  0.85060  0.21470  1.0000
  O   O67       1.0  0.80800  0.02900  0.34130  1.0000
  O   O68       1.0  0.19200  0.52900  0.65870  1.0000
  C   C21       1.0  0.26970  0.76210  0.43860  1.0000
  C   C22       1.0  0.73030  0.26210  0.56140  1.0000
  C   C23       1.0  0.31420  0.83170  0.45660  1.0000
  C   C24       1.0  0.68580  0.33170  0.54340  1.0000
  C   C25       1.0  0.88190  0.09530  0.27970  1.0000
  C   C26       1.0  0.11810  0.59530  0.72030  1.0000
  H   H9        1.0  0.91830  0.05460  0.28450  1.0000
  H   H10       1.0  0.08170  0.55460  0.71550  1.0000
  O   O69       1.0  0.08040  0.11670  0.17970  1.0000
  O   O70       1.0  0.91960  0.61670  0.82030  1.0000
  C   C27       1.0  0.23410  0.13840  0.06080  1.0000
  C   C28       1.0  0.76590  0.63840  0.93920  1.0000
  C   C29       1.0  0.22220  0.14110  0.60050  1.0000
  C   C30       1.0  0.77780  0.64110  0.39950  1.0000
  H   H11       1.0  0.21450  0.08970  0.61510  1.0000
  H   H12       1.0  0.78550  0.58970  0.38490  1.0000
  C   C31       1.0  0.61730  0.95020  0.35500  1.0000
  C   C32       1.0  0.38270  0.45020  0.64500  1.0000
  H   H13       1.0  0.58370  0.91680  0.33690  1.0000
  H   H14       1.0  0.41630  0.41680  0.66310  1.0000
  C   C33       1.0  0.34070  0.72370  0.25910  1.0000
  C   C34       1.0  0.65930  0.22370  0.74090  1.0000
  C   C35       1.0  0.26350  0.25660  0.79680  1.0000
  C   C36       1.0  0.73650  0.75660  0.20320  1.0000
  H   H15       1.0  0.21770  0.25990  0.81380  1.0000
  H   H16       1.0  0.78230  0.75990  0.18620  1.0000
  C   C37       1.0  0.24710  0.29200  0.55870  1.0000
  C   C38       1.0  0.75290  0.79200  0.44130  1.0000
  H   H17       1.0  0.25530  0.34330  0.54400  1.0000
  H   H18       1.0  0.74470  0.84330  0.45600  1.0000
  C   C39       1.0  0.15050  0.19140  0.24210  1.0000
  C   C40       1.0  0.84950  0.69140  0.75790  1.0000
  C   C41       1.0  0.31060  0.44280  0.33490  1.0000
  C   C42       1.0  0.68940  0.94280  0.66510  1.0000
  H   H19       1.0  0.29840  0.46540  0.30330  1.0000
  H   H20       1.0  0.70160  0.96540  0.69670  1.0000
  C   C43       1.0  0.32080  0.20030  0.12050  1.0000
  C   C44       1.0  0.67920  0.70030  0.87950  1.0000
  H   H21       1.0  0.35390  0.19630  0.14820  1.0000
  H   H22       1.0  0.64610  0.69630  0.85180  1.0000
  C   C45       1.0  0.92000  0.51710  0.24130  1.0000
  C   C46       1.0  0.08000  0.01710  0.75870  1.0000
  C   C47       1.0  0.13630  0.12010  0.20700  1.0000
  C   C48       1.0  0.86370  0.62010  0.79300  1.0000
  C   C49       1.0  0.31760  0.31620  0.80520  1.0000
  C   C50       1.0  0.68240  0.81620  0.19480  1.0000
  C   C51       1.0  0.73720  0.53970  0.13750  1.0000
  C   C52       1.0  0.26280  0.03970  0.86250  1.0000
  O   O71       1.0  0.34770  0.34670  0.10520  1.0000
  O   O72       1.0  0.65230  0.84670  0.89480  1.0000
  C   C53       1.0  0.57270  0.38830  0.25800  1.0000
  C   C54       1.0  0.42730  0.88830  0.74200  1.0000
  O   O73       1.0  0.65310  0.04530  0.11230  1.0000
  O   O74       1.0  0.34690  0.54530  0.88770  1.0000
  C   C55       1.0  0.71880  0.26340  0.10260  1.0000
  C   C56       1.0  0.28120  0.76340  0.89740  1.0000
  H   H23       1.0  0.70930  0.31470  0.11670  1.0000
  H   H24       1.0  0.29070  0.81470  0.88330  1.0000
  O   O75       1.0  0.49780  0.01080  0.45880  1.0000
  O   O76       1.0  0.50220  0.51080  0.54120  1.0000
  C   C57       1.0  0.27920  0.13480  0.10450  1.0000
  C   C58       1.0  0.72080  0.63480  0.89550  1.0000
  H   H25       1.0  0.28080  0.08630  0.12330  1.0000
  H   H26       1.0  0.71920  0.58630  0.87670  1.0000
  C   C59       1.0  0.17990  0.32180  0.30690  1.0000
  C   C60       1.0  0.82010  0.82180  0.69310  1.0000
  C   C61       1.0  0.48170  0.03460  0.21900  1.0000
  C   C62       1.0  0.51830  0.53460  0.78100  1.0000
  C   C63       1.0  0.31500  0.07640  0.54510  1.0000
  C   C64       1.0  0.68500  0.57640  0.45490  1.0000
  C   C65       1.0  0.51300  0.37180  0.21810  1.0000
  C   C66       1.0  0.48700  0.87180  0.78190  1.0000
  C   C67       1.0  0.39820  0.24860  0.74470  1.0000
  C   C68       1.0  0.60180  0.74860  0.25530  1.0000
  H   H27       1.0  0.44310  0.24680  0.72640  1.0000
  H   H28       1.0  0.55690  0.74680  0.27360  1.0000
  C   C69       1.0  0.89530  0.15970  0.24540  1.0000
  C   C70       1.0  0.10470  0.65970  0.75460  1.0000
  H   H29       1.0  0.94030  0.16180  0.22730  1.0000
  H   H30       1.0  0.05970  0.66180  0.77270  1.0000
  C   C71       1.0  0.98760  0.37750  0.71320  1.0000
  C   C72       1.0  0.01240  0.87750  0.28680  1.0000
  C   C73       1.0  0.05300  0.54650  0.26860  1.0000
  C   C74       1.0  0.94700  0.04650  0.73140  1.0000
  H   H31       1.0  0.06730  0.54430  0.23460  1.0000
  H   H32       1.0  0.93270  0.04430  0.76540  1.0000
  C   C75       1.0  0.34390  0.18770  0.73650  1.0000
  C   C76       1.0  0.65610  0.68770  0.26350  1.0000
  C   C77       1.0  0.11020  0.31990  0.27990  1.0000
  C   C78       1.0  0.88980  0.81990  0.72010  1.0000
  H   H33       1.0  0.07450  0.36150  0.28330  1.0000
  H   H34       1.0  0.92550  0.86150  0.71670  1.0000
  C   C79       1.0  0.18020  0.20800  0.61680  1.0000
  C   C80       1.0  0.81980  0.70800  0.38320  1.0000
  H   H35       1.0  0.14370  0.20160  0.64180  1.0000
  H   H36       1.0  0.85630  0.70160  0.35820  1.0000
  C   C81       1.0  0.18920  0.06030  0.04240  1.0000
  C   C82       1.0  0.81080  0.56030  0.95760  1.0000
  C   C83       1.0  0.23850  0.39160  0.85940  1.0000
  C   C84       1.0  0.76150  0.89160  0.14060  1.0000
  C   C85       1.0  0.97600  0.53780  0.28150  1.0000
  C   C86       1.0  0.02400  0.03780  0.71850  1.0000
  C   C87       1.0  0.74840  0.10370  0.06250  1.0000
  C   C88       1.0  0.25160  0.60370  0.93750  1.0000
  H   H37       1.0  0.75980  0.05110  0.05110  1.0000
  H   H38       1.0  0.24020  0.55110  0.94890  1.0000
  C   C89       1.0  0.43740  0.36760  0.23050  1.0000
  C   C90       1.0  0.56260  0.86760  0.76950  1.0000
  H   H39       1.0  0.42280  0.37360  0.26420  1.0000
  H   H40       1.0  0.57720  0.87360  0.73580  1.0000
  C   C91       1.0  0.21870  0.76910  0.39710  1.0000
  C   C92       1.0  0.78130  0.26910  0.60290  1.0000
  H   H41       1.0  0.21360  0.81920  0.38020  1.0000
  H   H42       1.0  0.78640  0.31920  0.61980  1.0000
  C   C93       1.0  0.06180  0.36830  0.72920  1.0000
  C   C94       1.0  0.93820  0.86830  0.27080  1.0000
  H   H43       1.0  0.07330  0.36870  0.76390  1.0000
  H   H44       1.0  0.92670  0.86870  0.23610  1.0000
  C   C95       1.0  0.55620  0.04530  0.23440  1.0000
  C   C96       1.0  0.44380  0.54530  0.76560  1.0000
  H   H45       1.0  0.56780  0.04620  0.26910  1.0000
  H   H46       1.0  0.43220  0.54620  0.73090  1.0000
  C   C97       1.0  0.22010  0.19730  0.26860  1.0000
  C   C98       1.0  0.77990  0.69730  0.73140  1.0000
  H   H47       1.0  0.25670  0.15710  0.26370  1.0000
  H   H48       1.0  0.74330  0.65710  0.73630  1.0000
  C   C99       1.0  0.27270  0.14980  0.56470  1.0000
  C   C100      1.0  0.72730  0.64980  0.43530  1.0000
  C   C101      1.0  0.35960  0.11540  0.70190  1.0000
  C   C102      1.0  0.64040  0.61540  0.29810  1.0000
  C   C103      1.0  0.42030  0.01780  0.25620  1.0000
  C   C104      1.0  0.57970  0.51780  0.74380  1.0000
  C   C105      1.0  0.18990  0.44680  0.83270  1.0000
  C   C106      1.0  0.81010  0.94680  0.16730  1.0000
  H   H49       1.0  0.20580  0.47270  0.80310  1.0000
  H   H50       1.0  0.79420  0.97270  0.19690  1.0000
  C   C107      1.0  0.39530  0.66140  0.25200  1.0000
  C   C108      1.0  0.60470  0.16140  0.74800  1.0000
  H   H51       1.0  0.44020  0.66300  0.27090  1.0000
  H   H52       1.0  0.55980  0.16300  0.72910  1.0000
  C   C109      1.0  0.77140  0.21490  0.26450  1.0000
  C   C110      1.0  0.22860  0.71490  0.73550  1.0000
  H   H53       1.0  0.73390  0.25420  0.25900  1.0000
  H   H54       1.0  0.26610  0.75420  0.74100  1.0000
  C   C111      1.0  0.77380  0.25220  0.06460  1.0000
  C   C112      1.0  0.22620  0.75220  0.93540  1.0000
  O   O77       1.0  0.99670  0.70120  0.54190  1.0000
  O   O78       1.0  0.00330  0.20120  0.45810  1.0000
  C   C113      1.0  0.00840  0.55310  0.36980  1.0000
  C   C114      1.0  0.99160  0.05310  0.63020  1.0000
  H   H55       1.0  0.99310  0.55750  0.40350  1.0000
  H   H56       1.0  0.00690  0.05750  0.59650  1.0000
  C   C115      1.0  0.11960  0.35830  0.69430  1.0000
  C   C116      1.0  0.88040  0.85830  0.30570  1.0000
  H   H57       1.0  0.16990  0.35410  0.70470  1.0000
  H   H58       1.0  0.83010  0.85410  0.29530  1.0000
  C   C117      1.0  0.08680  0.55910  0.35640  1.0000
  C   C118      1.0  0.91320  0.05910  0.64360  1.0000
  O   O79       1.0  0.49240  0.70530  0.04440  1.0000
  O   O80       1.0  0.50760  0.20530  0.95560  1.0000
  C   C119      1.0  0.10750  0.55840  0.30640  1.0000
  C   C120      1.0  0.89250  0.05840  0.69360  1.0000
  H   H59       1.0  0.15800  0.56590  0.29770  1.0000
  H   H60       1.0  0.84200  0.06590  0.70230  1.0000
  C   C121      1.0  0.61430  0.05460  0.19940  1.0000
  C   C122      1.0  0.38570  0.55460  0.80060  1.0000
  H   H61       1.0  0.66430  0.06360  0.20960  1.0000
  H   H62       1.0  0.33570  0.56360  0.79040  1.0000
  C   C123      1.0  0.92800  0.39830  0.75180  1.0000
  C   C124      1.0  0.07200  0.89830  0.24820  1.0000
  C   C125      1.0  0.19310  0.28350  0.59580  1.0000
  C   C126      1.0  0.80690  0.78350  0.40420  1.0000
  C   C127      1.0  0.35990  0.72520  0.04960  1.0000
  C   C128      1.0  0.64010  0.22520  0.95040  1.0000
  H   H63       1.0  0.35390  0.69290  0.02060  1.0000
  H   H64       1.0  0.64610  0.19290  0.97940  1.0000
  C   C129      1.0  0.29720  0.76180  0.07220  1.0000
  C   C130      1.0  0.70280  0.26180  0.92780  1.0000
  H   H65       1.0  0.24930  0.75400  0.05790  1.0000
  H   H66       1.0  0.75070  0.25400  0.94210  1.0000
  C   C131      1.0  0.85230  0.28820  0.20290  1.0000
  C   C132      1.0  0.14770  0.78820  0.79710  1.0000
  C   C133      1.0  0.61970  0.67730  0.04940  1.0000
  C   C134      1.0  0.38030  0.17730  0.95060  1.0000
  H   H67       1.0  0.62700  0.70980  0.02070  1.0000
  H   H68       1.0  0.37300  0.20980  0.97930  1.0000
  C   C135      1.0  0.31180  0.27440  0.09340  1.0000
  C   C136      1.0  0.68820  0.77440  0.90660  1.0000
  C   C137      1.0  0.25760  0.64940  0.20210  1.0000
  C   C138      1.0  0.74240  0.14940  0.79790  1.0000
  H   H69       1.0  0.21020  0.64320  0.18680  1.0000
  H   H70       1.0  0.78980  0.14320  0.81320  1.0000
  O   O81       1.0  0.50020  0.39340  0.46310  1.0000
  O   O82       1.0  0.49980  0.89340  0.53690  1.0000
  C   C139      1.0  0.86340  0.68210  0.54660  1.0000
  C   C140      1.0  0.13660  0.18210  0.45340  1.0000
  H   H71       1.0  0.85620  0.71380  0.51750  1.0000
  H   H72       1.0  0.14380  0.21380  0.48250  1.0000
  C   C141      1.0  0.27560  0.19210  0.76360  1.0000
  C   C142      1.0  0.72440  0.69210  0.23640  1.0000
  H   H73       1.0  0.23880  0.15170  0.75920  1.0000
  H   H74       1.0  0.76120  0.65170  0.24080  1.0000
  C   C143      1.0  0.15100  0.37750  0.92400  1.0000
  C   C144      1.0  0.84900  0.87750  0.07600  1.0000
  H   H75       1.0  0.13930  0.35750  0.95620  1.0000
  H   H76       1.0  0.86070  0.85750  0.04380  1.0000
  C   C145      1.0  0.23980  0.85710  0.13590  1.0000
  C   C146      1.0  0.76020  0.35710  0.86410  1.0000
  C   C147      1.0  0.68640  0.96810  0.33510  1.0000
  C   C148      1.0  0.31360  0.46810  0.66490  1.0000
  H   H77       1.0  0.69830  0.95020  0.30240  1.0000
  H   H78       1.0  0.30170  0.45020  0.69760  1.0000
  C   C149      1.0  0.23510  0.26110  0.30170  1.0000
  C   C150      1.0  0.76490  0.76110  0.69830  1.0000
  H   H79       1.0  0.28040  0.26360  0.32000  1.0000
  H   H80       1.0  0.71960  0.76360  0.68000  1.0000
  C   C151      1.0  0.22690  0.20980  0.03550  1.0000
  C   C152      1.0  0.77310  0.70980  0.96450  1.0000
  H   H81       1.0  0.19600  0.21150  0.00660  1.0000
  H   H82       1.0  0.80400  0.71150  0.99340  1.0000
  C   C153      1.0  0.38270  0.35430  0.19270  1.0000
  C   C154      1.0  0.61730  0.85430  0.80730  1.0000
  H   H83       1.0  0.33180  0.35210  0.20130  1.0000
  H   H84       1.0  0.66820  0.85210  0.79870  1.0000
  C   C155      1.0  0.18100  0.81570  0.61640  1.0000
  C   C156      1.0  0.81900  0.31570  0.38360  1.0000
  C   C157      1.0  0.27110  0.71510  0.23450  1.0000
  C   C158      1.0  0.72890  0.21510  0.76550  1.0000
  H   H85       1.0  0.23320  0.75380  0.23980  1.0000
  H   H86       1.0  0.76680  0.25380  0.76020  1.0000
  C   C159      1.0  0.09910  0.35500  0.64440  1.0000
  C   C160      1.0  0.90090  0.85500  0.35560  1.0000
  C   C161      1.0  0.80330  0.64270  0.56950  1.0000
  C   C162      1.0  0.19670  0.14270  0.43050  1.0000
  H   H87       1.0  0.75500  0.64910  0.55560  1.0000
  H   H88       1.0  0.24500  0.14910  0.44440  1.0000
  C   C163      1.0  0.26360  0.28060  0.05070  1.0000
  C   C164      1.0  0.73640  0.78060  0.94930  1.0000
  H   H89       1.0  0.25680  0.33000  0.03340  1.0000
  H   H90       1.0  0.74320  0.83000  0.96660  1.0000
  C   C165      1.0  0.95780  0.54090  0.33150  1.0000
  C   C166      1.0  0.04220  0.04090  0.66850  1.0000
  H   H91       1.0  0.90720  0.53410  0.34010  1.0000
  H   H92       1.0  0.09280  0.03410  0.65990  1.0000
  C   C167      1.0  0.34690  0.38320  0.43310  1.0000
  C   C168      1.0  0.65310  0.88320  0.56690  1.0000
  H   H93       1.0  0.35730  0.36350  0.46570  1.0000
  H   H94       1.0  0.64270  0.86350  0.53430  1.0000
  C   C169      1.0  0.53350  0.36240  0.16810  1.0000
  C   C170      1.0  0.46650  0.86240  0.83190  1.0000
  H   H95       1.0  0.58400  0.36360  0.15860  1.0000
  H   H96       1.0  0.41600  0.86360  0.84140  1.0000
  C   C171      1.0  0.40230  0.34480  0.14570  1.0000
  C   C172      1.0  0.59770  0.84480  0.85430  1.0000
  C   C173      1.0  0.09730  0.25240  0.24770  1.0000
  C   C174      1.0  0.90270  0.75240  0.75230  1.0000
  H   H97       1.0  0.05170  0.24880  0.22970  1.0000
  H   H98       1.0  0.94830  0.74880  0.77030  1.0000
  C   C175      1.0  0.81220  0.59500  0.61170  1.0000
  C   C176      1.0  0.18780  0.09500  0.38830  1.0000
  C   C177      1.0  0.28910  0.22550  0.54300  1.0000
  C   C178      1.0  0.71090  0.72550  0.45700  1.0000
  H   H99       1.0  0.32700  0.23100  0.51890  1.0000
  H   H100      1.0  0.67300  0.73100  0.48110  1.0000
  C   C179      1.0  0.78590  0.16810  0.04510  1.0000
  C   C180      1.0  0.21410  0.66810  0.95490  1.0000
  H   H101      1.0  0.82130  0.16010  0.01960  1.0000
  H   H102      1.0  0.17870  0.66010  0.98040  1.0000
  C   C181      1.0  0.22160  0.53560  0.08590  1.0000
  C   C182      1.0  0.77840  0.03560  0.91410  1.0000
  H   H103      1.0  0.25890  0.56060  0.06650  1.0000
  H   H104      1.0  0.74110  0.06060  0.93350  1.0000
  C   C183      1.0  0.67890  0.63340  0.07120  1.0000
  C   C184      1.0  0.32110  0.13340  0.92880  1.0000
  H   H105      1.0  0.72570  0.63370  0.05520  1.0000
  H   H106      1.0  0.27430  0.13370  0.94480  1.0000
  C   C185      1.0  0.94440  0.62470  0.61300  1.0000
  C   C186      1.0  0.05560  0.12470  0.38700  1.0000
  H   H107      1.0  0.99200  0.61850  0.62800  1.0000
  H   H108      1.0  0.00800  0.11850  0.37200  1.0000
  C   C187      1.0  0.37780  0.82560  0.13660  1.0000
  C   C188      1.0  0.62220  0.32560  0.86340  1.0000
  H   H109      1.0  0.38390  0.86000  0.16470  1.0000
  H   H110      1.0  0.61610  0.36000  0.83530  1.0000
  C   C189      1.0  0.72110  0.04140  0.40890  1.0000
  C   C190      1.0  0.27890  0.54140  0.59110  1.0000
  H   H111      1.0  0.75780  0.07040  0.42720  1.0000
  H   H112      1.0  0.24220  0.57040  0.57280  1.0000
  C   C191      1.0  0.22150  0.35900  0.90340  1.0000
  C   C192      1.0  0.77850  0.85900  0.09660  1.0000
  H   H113      1.0  0.25540  0.32450  0.92040  1.0000
  H   H114      1.0  0.74460  0.82450  0.07960  1.0000
  O   O83       1.0  0.81270  0.39070  0.06780  1.0000
  O   O84       1.0  0.18730  0.89070  0.93220  1.0000
  C   C193      1.0  0.46310  0.03300  0.16720  1.0000
  C   C194      1.0  0.53690  0.53300  0.83280  1.0000
  H   H115      1.0  0.41290  0.02610  0.15700  1.0000
  H   H116      1.0  0.58710  0.52610  0.84300  1.0000
  C   C195      1.0  0.43130  0.73760  0.07090  1.0000
  C   C196      1.0  0.56870  0.23760  0.92910  1.0000
  C   C197      1.0  0.44220  0.78760  0.11380  1.0000
  C   C198      1.0  0.55780  0.28760  0.88620  1.0000
  H   H117      1.0  0.49050  0.79610  0.12730  1.0000
  H   H118      1.0  0.50950  0.29610  0.87270  1.0000
  O   O85       1.0  0.80950  0.35320  0.20500  1.0000
  O   O86       1.0  0.19050  0.85320  0.79500  1.0000
  C   C199      1.0  0.10950  0.81770  0.63710  1.0000
  C   C200      1.0  0.89050  0.31770  0.36290  1.0000
  H   H119      1.0  0.10460  0.84150  0.66910  1.0000
  H   H120      1.0  0.89540  0.34150  0.33090  1.0000
  C   C201      1.0  0.88520  0.58820  0.63340  1.0000
  C   C202      1.0  0.11480  0.08820  0.36660  1.0000
  H   H121      1.0  0.89200  0.55720  0.66290  1.0000
  H   H122      1.0  0.10800  0.05720  0.33710  1.0000
  C   C203      1.0  0.96980  0.37020  0.66340  1.0000
  C   C204      1.0  0.03020  0.87020  0.33660  1.0000
  H   H123      1.0  0.91930  0.36990  0.65300  1.0000
  H   H124      1.0  0.08070  0.86990  0.34700  1.0000
  C   C205      1.0  0.27480  0.37210  0.40920  1.0000
  C   C206      1.0  0.72520  0.87210  0.59080  1.0000
  H   H125      1.0  0.23770  0.34400  0.42710  1.0000
  H   H126      1.0  0.76230  0.84400  0.57290  1.0000
  C   C207      1.0  0.19090  0.76700  0.57110  1.0000
  C   C208      1.0  0.80910  0.26700  0.42890  1.0000
  H   H127      1.0  0.23870  0.75910  0.55740  1.0000
  H   H128      1.0  0.76130  0.25910  0.44260  1.0000
  C   C209      1.0  0.05750  0.73590  0.57000  1.0000
  C   C210      1.0  0.94250  0.23590  0.43000  1.0000
  C   C211      1.0  0.04590  0.78770  0.61440  1.0000
  C   C212      1.0  0.95410  0.28770  0.38560  1.0000
  H   H129      1.0  0.99780  0.79940  0.62660  1.0000
  H   H130      1.0  0.00220  0.29940  0.37340  1.0000
  C   C213      1.0  0.60110  0.58620  0.13660  1.0000
  C   C214      1.0  0.39890  0.08620  0.86340  1.0000
  H   H131      1.0  0.59350  0.55520  0.16590  1.0000
  H   H132      1.0  0.40650  0.05520  0.83410  1.0000
  C   C215      1.0  0.93630  0.67270  0.56900  1.0000
  C   C216      1.0  0.06370  0.17270  0.43100  1.0000
  O   O87       1.0  0.85000  0.52710  0.25280  1.0000
  O   O88       1.0  0.15000  0.02710  0.74720  1.0000
  O   O89       1.0  0.47660  0.91630  0.40320  1.0000
  O   O90       1.0  0.52340  0.41630  0.59680  1.0000
  C   C217      1.0  0.40170  0.42580  0.40450  1.0000
  C   C218      1.0  0.59830  0.92580  0.59550  1.0000
  C   C219      1.0  0.02520  0.36320  0.62820  1.0000
  C   C220      1.0  0.97480  0.86320  0.37180  1.0000
  H   H133      1.0  0.01340  0.36390  0.59360  1.0000
  H   H134      1.0  0.98660  0.86390  0.40640  1.0000
  C   C221      1.0  0.09750  0.42510  0.89780  1.0000
  C   C222      1.0  0.90250  0.92510  0.10220  1.0000
  C   C223      1.0  0.67160  0.59050  0.11470  1.0000
  C   C224      1.0  0.32840  0.09050  0.88530  1.0000
  C   C225      1.0  0.01780  0.46540  0.07010  1.0000
  C   C226      1.0  0.98220  0.96540  0.92990  1.0000
  C   C227      1.0  0.54210  0.62920  0.11400  1.0000
  C   C228      1.0  0.45790  0.12920  0.88600  1.0000
  H   H135      1.0  0.49500  0.62840  0.12960  1.0000
  H   H136      1.0  0.50500  0.12840  0.87040  1.0000
  C   C229      1.0  0.54980  0.67090  0.07170  1.0000
  C   C230      1.0  0.45020  0.17090  0.92830  1.0000
  O   O91       1.0  0.71850  0.48400  0.16910  1.0000
  O   O92       1.0  0.28150  0.98400  0.83090  1.0000
  O   O93       1.0  0.68140  0.56130  0.61570  1.0000
  O   O94       1.0  0.31860  0.06130  0.38430  1.0000
  C   C231      1.0  0.69150  0.11620  0.09830  1.0000
  C   C232      1.0  0.30850  0.61620  0.90170  1.0000
  C   C233      1.0  0.67820  0.19130  0.11860  1.0000
  C   C234      1.0  0.32180  0.69130  0.88140  1.0000
  H   H137      1.0  0.64150  0.19640  0.14360  1.0000
  H   H138      1.0  0.35850  0.69640  0.85640  1.0000
  O   O95       1.0  0.30690  0.52840  0.15940  1.0000
  O   O96       1.0  0.69310  0.02840  0.84060  1.0000
  C   C235      1.0  0.81510  0.09190  0.30640  1.0000
  C   C236      1.0  0.18490  0.59190  0.69360  1.0000
  C   C237      1.0  0.65160  0.02950  0.42930  1.0000
  C   C238      1.0  0.34840  0.52950  0.57070  1.0000
  H   H139      1.0  0.64010  0.05270  0.46070  1.0000
  H   H140      1.0  0.35990  0.55270  0.53930  1.0000
  O   O97       1.0  0.41320  0.79580  0.32300  1.0000
  O   O98       1.0  0.58680  0.29580  0.67700  1.0000
  C   C239      1.0  0.31440  0.59250  0.19220  1.0000
  C   C240      1.0  0.68560  0.09250  0.80780  1.0000
  C   C241      1.0  0.75860  0.14970  0.29880  1.0000
  C   C242      1.0  0.24140  0.64970  0.70120  1.0000
  H   H141      1.0  0.71290  0.14560  0.31590  1.0000
  H   H142      1.0  0.28710  0.64560  0.68410  1.0000
  C   C243      1.0  0.18080  0.47370  0.16730  1.0000
  C   C244      1.0  0.81920  0.97370  0.83270  1.0000
  H   H143      1.0  0.19030  0.45830  0.20090  1.0000
  H   H144      1.0  0.80970  0.95830  0.79910  1.0000
  C   C245      1.0  0.52080  0.97040  0.42310  1.0000
  C   C246      1.0  0.47920  0.47040  0.57690  1.0000
  C   C247      1.0  0.15280  0.52020  0.06640  1.0000
  C   C248      1.0  0.84720  0.02020  0.93360  1.0000
  H   H145      1.0  0.14310  0.53450  0.03260  1.0000
  H   H146      1.0  0.85690  0.03450  0.96740  1.0000
  C   C249      1.0  0.73710  0.01130  0.36220  1.0000
  C   C250      1.0  0.26290  0.51130  0.63780  1.0000
  C   C251      1.0  0.24540  0.86420  0.63580  1.0000
  C   C252      1.0  0.75460  0.36420  0.36420  1.0000
  C   C253      1.0  0.38390  0.59920  0.21800  1.0000
  C   C254      1.0  0.61610  0.09920  0.78200  1.0000
  H   H147      1.0  0.42220  0.56130  0.21200  1.0000
  H   H148      1.0  0.57780  0.06130  0.78800  1.0000
  C   C255      1.0  0.59300  0.04960  0.14750  1.0000
  C   C256      1.0  0.40700  0.54960  0.85250  1.0000
  C   C257      1.0  0.81640  0.32020  0.04420  1.0000
  C   C258      1.0  0.18360  0.82020  0.95580  1.0000
  C   C259      1.0  0.38360  0.45170  0.35630  1.0000
  C   C260      1.0  0.61640  0.95170  0.64370  1.0000
  H   H149      1.0  0.42110  0.47610  0.33680  1.0000
  H   H150      1.0  0.57890  0.97610  0.66320  1.0000
  C   C261      1.0  0.30530  0.81020  0.11620  1.0000
  C   C262      1.0  0.69470  0.31020  0.88380  1.0000
  C   C263      1.0  0.18230  0.62730  0.40630  1.0000
  C   C264      1.0  0.81770  0.12730  0.59370  1.0000
  C   C265      1.0  0.47400  0.35060  0.13110  1.0000
  C   C266      1.0  0.52600  0.85060  0.86890  1.0000
  H   H151      1.0  0.48570  0.34690  0.09660  1.0000
  H   H152      1.0  0.51430  0.84690  0.90340  1.0000
  C   C267      1.0  0.27440  0.68560  0.46380  1.0000
  C   C268      1.0  0.72560  0.18560  0.53620  1.0000
  H   H153      1.0  0.30530  0.67980  0.49250  1.0000
  H   H154      1.0  0.69470  0.17980  0.50750  1.0000
  C   C269      1.0  0.12660  0.73200  0.54830  1.0000
  C   C270      1.0  0.87340  0.23200  0.45170  1.0000
  H   H155      1.0  0.13150  0.70510  0.51720  1.0000
  H   H156      1.0  0.86850  0.20510  0.48280  1.0000
  C   C271      1.0  0.23600  0.51210  0.13830  1.0000
  C   C272      1.0  0.76400  0.01210  0.86170  1.0000
  C   C273      1.0  0.35670  0.79380  0.29320  1.0000
  C   C274      1.0  0.64330  0.29380  0.70680  1.0000
  C   C275      1.0  0.74740  0.54970  0.63310  1.0000
  C   C276      1.0  0.25260  0.04970  0.36690  1.0000
  C   C277      1.0  0.52140  0.04200  0.12910  1.0000
  C   C278      1.0  0.47860  0.54200  0.87090  1.0000
  H   H157      1.0  0.51040  0.04240  0.09440  1.0000
  H   H158      1.0  0.48960  0.54240  0.90560  1.0000
  C   C279      1.0  0.23230  0.61830  0.44550  1.0000
  C   C280      1.0  0.76770  0.11830  0.55450  1.0000
  H   H159      1.0  0.23890  0.56700  0.46050  1.0000
  H   H160      1.0  0.76110  0.06700  0.53950  1.0000
  O   O99       1.0  0.00580  0.49450  0.02640  1.0000
  O   O100      1.0  0.99420  0.99450  0.97360  1.0000
