data_image0
_chemical_formula_structural       Cd16O4C2O8C2O24C2H2O10C2O4C2O10C2H2C2H2C2O6C6O2C6O4C2H2O2C4O2C2H2C4H2C2H2C2H2C2H2C2H2C2H2C12H2C2H2C2H2C2H2C2H2C6H2C10H2C2H2C8H2O2C2H2C2H2C6H2C2H2C2H2O2C2H2C6H2C2H2C4H2C2H2O4C2H2C2H2C6H2C2H2C2H2C2H2C2H2C4H2C4H2C4H2C2H2O2C2H2C2H2C2H2C2H2C2H2C4H2C2H2C2H2C2H2C2H2C2H2C2H2C2H2C2H2C2H2C4H2C2H2C2H2C2H2C2H2C2H2C2H2O2C2H2C2H2C2H2C2H2C2H2C2O2C2O2C2H2C2H2C4O2C6O2C2H2O4C2H2C2H2C4H2C2H2C2H2C14H2C8H2C6H2C4H2
_chemical_formula_sum              "Cd16 O100 C280 H160"
_cell_length_a       17.745
_cell_length_b       16.263
_cell_length_c       26.25
_cell_angle_alpha    90
_cell_angle_beta     90.775
_cell_angle_gamma    90

_space_group_name_H-M_alt    "P 1"
_space_group_IT_number       1

loop_
  _space_group_symop_operation_xyz
  'x, y, z'

loop_
  _atom_site_type_symbol
  _atom_site_label
  _atom_site_symmetry_multiplicity
  _atom_site_fract_x
  _atom_site_fract_y
  _atom_site_fract_z
  _atom_site_occupancy
  Cd  Cd1       1.0  0.86439  0.06462  0.14287  1.0000
  Cd  Cd2       1.0  0.13561  0.56462  0.85713  1.0000
  Cd  Cd3       1.0  0.36911  0.56343  0.35536  1.0000
  Cd  Cd4       1.0  0.63089  0.06343  0.64464  1.0000
  Cd  Cd5       1.0  0.10244  0.56181  0.00486  1.0000
  Cd  Cd6       1.0  0.89756  0.06181  0.99514  1.0000
  Cd  Cd7       1.0  0.12669  0.52211  0.14756  1.0000
  Cd  Cd8       1.0  0.87331  0.02211  0.85244  1.0000
  Cd  Cd9       1.0  0.37099  0.52784  0.64341  1.0000
  Cd  Cd10      1.0  0.62901  0.02784  0.35659  1.0000
  Cd  Cd11      1.0  0.25452  0.54646  0.75001  1.0000
  Cd  Cd12      1.0  0.74548  0.04646  0.24999  1.0000
  Cd  Cd13      1.0  0.24668  0.54269  0.25109  1.0000
  Cd  Cd14      1.0  0.75332  0.04269  0.74891  1.0000
  Cd  Cd15      1.0  0.39925  0.54539  0.49951  1.0000
  Cd  Cd16      1.0  0.60075  0.04539  0.50049  1.0000
  O   O1        1.0  0.18270  0.49910  0.07140  1.0000
  O   O2        1.0  0.81730  0.99910  0.92860  1.0000
  O   O3        1.0  0.18290  0.43860  0.20710  1.0000
  O   O4        1.0  0.81710  0.93860  0.79290  1.0000
  C   C1        1.0  0.18220  0.67710  0.95600  1.0000
  C   C2        1.0  0.81780  0.17710  0.04400  1.0000
  O   O5        1.0  0.35290  0.41750  0.50250  1.0000
  O   O6        1.0  0.64710  0.91750  0.49750  1.0000
  O   O7        1.0  0.68170  0.94670  0.29620  1.0000
  O   O8        1.0  0.31830  0.44670  0.70380  1.0000
  O   O9        1.0  0.31730  0.60150  0.43200  1.0000
  O   O10       1.0  0.68270  0.10150  0.56800  1.0000
  O   O11       1.0  0.31520  0.49100  0.56800  1.0000
  O   O12       1.0  0.68480  0.99100  0.43200  1.0000
  C   C3        1.0  0.98240  0.56320  0.08350  1.0000
  C   C4        1.0  0.01760  0.06320  0.91650  1.0000
  O   O13       1.0  0.01790  0.50120  0.09930  1.0000
  O   O14       1.0  0.98210  0.00120  0.90070  1.0000
  O   O15       1.0  0.85970  0.10610  0.73650  1.0000
  O   O16       1.0  0.14030  0.60610  0.26350  1.0000
  O   O17       1.0  0.64630  0.97750  0.76110  1.0000
  O   O18       1.0  0.35370  0.47750  0.23890  1.0000
  O   O19       1.0  0.97230  0.07620  0.09330  1.0000
  O   O20       1.0  0.02770  0.57620  0.90670  1.0000
  O   O21       1.0  0.64220  0.12420  0.24780  1.0000
  O   O22       1.0  0.35780  0.62420  0.75220  1.0000
  O   O23       1.0  0.94880  0.07420  0.79440  1.0000
  O   O24       1.0  0.05120  0.57420  0.20560  1.0000
  O   O25       1.0  0.85210  0.97290  0.25420  1.0000
  O   O26       1.0  0.14790  0.47290  0.74580  1.0000
  O   O27       1.0  0.16350  0.43920  0.99890  1.0000
  O   O28       1.0  0.83650  0.93920  0.00110  1.0000
  O   O29       1.0  0.52470  0.01940  0.40780  1.0000
  O   O30       1.0  0.47530  0.51940  0.59220  1.0000
  O   O31       1.0  0.80880  0.14780  0.20510  1.0000
  O   O32       1.0  0.19120  0.64780  0.79490  1.0000
  O   O33       1.0  0.94150  0.00290  0.19830  1.0000
  O   O34       1.0  0.05850  0.50290  0.80170  1.0000
  O   O35       1.0  0.75870  0.00660  0.66560  1.0000
  O   O36       1.0  0.24130  0.50660  0.33440  1.0000
  C   C5        1.0  0.88350  0.53380  0.14900  1.0000
  C   C6        1.0  0.11650  0.03380  0.85100  1.0000
  H   H1        1.0  0.91660  0.49890  0.16620  1.0000
  H   H2        1.0  0.08340  0.99890  0.83380  1.0000
  O   O37       1.0  0.25350  0.58480  0.16800  1.0000
  O   O38       1.0  0.74650  0.08480  0.83200  1.0000
  O   O39       1.0  0.72060  0.01420  0.16960  1.0000
  O   O40       1.0  0.27940  0.51420  0.83040  1.0000
  O   O41       1.0  0.69060  0.61910  0.16220  1.0000
  O   O42       1.0  0.30940  0.11910  0.83780  1.0000
  O   O43       1.0  0.80960  0.47210  0.34190  1.0000
  O   O44       1.0  0.19040  0.97210  0.65810  1.0000
  O   O45       1.0  0.90500  0.21200  0.17040  1.0000
  O   O46       1.0  0.09500  0.71200  0.82960  1.0000
  C   C7        1.0  0.09580  0.01870  0.09360  1.0000
  C   C8        1.0  0.90420  0.51870  0.90640  1.0000
  O   O47       1.0  0.18740  0.11010  0.34050  1.0000
  O   O48       1.0  0.81260  0.61010  0.65950  1.0000
  O   O49       1.0  0.31180  0.64980  0.62080  1.0000
  O   O50       1.0  0.68820  0.14980  0.37920  1.0000
  C   C9        1.0  0.83860  0.28040  0.23880  1.0000
  C   C10       1.0  0.16140  0.78040  0.76120  1.0000
  O   O51       1.0  0.00800  0.61620  0.05600  1.0000
  O   O52       1.0  0.99200  0.11620  0.94400  1.0000
  O   O53       1.0  0.58860  0.88130  0.32860  1.0000
  O   O54       1.0  0.41140  0.38130  0.67140  1.0000
  O   O55       1.0  0.22940  0.58320  0.66900  1.0000
  O   O56       1.0  0.77060  0.08320  0.33100  1.0000
  O   O57       1.0  0.67970  0.93740  0.61570  1.0000
  O   O58       1.0  0.32030  0.43740  0.38430  1.0000
  O   O59       1.0  0.30650  0.97360  0.15920  1.0000
  O   O60       1.0  0.69350  0.47360  0.84080  1.0000
  C   C11       1.0  0.61730  0.54740  0.35310  1.0000
  C   C12       1.0  0.38270  0.04740  0.64690  1.0000
  H   H3        1.0  0.58340  0.57890  0.33410  1.0000
  H   H4        1.0  0.41660  0.07890  0.66590  1.0000
  C   C13       1.0  0.80960  0.55170  0.16690  1.0000
  C   C14       1.0  0.19040  0.05170  0.83310  1.0000
  H   H5        1.0  0.79370  0.52650  0.19670  1.0000
  H   H6        1.0  0.20630  0.02650  0.80330  1.0000
  C   C15       1.0  0.59720  0.51750  0.40200  1.0000
  C   C16       1.0  0.40280  0.01750  0.59800  1.0000
  O   O61       1.0  0.14390  0.94130  0.39420  1.0000
  O   O62       1.0  0.85610  0.44130  0.60580  1.0000
  O   O63       1.0  0.15740  0.14490  0.60670  1.0000
  O   O64       1.0  0.84260  0.64490  0.39330  1.0000
  O   O65       1.0  0.17330  0.65850  0.12150  1.0000
  O   O66       1.0  0.82670  0.15850  0.87850  1.0000
  C   C17       1.0  0.31640  0.42030  0.54620  1.0000
  C   C18       1.0  0.68360  0.92030  0.45380  1.0000
  C   C19       1.0  0.26930  0.74040  0.43780  1.0000
  C   C20       1.0  0.73070  0.24040  0.56220  1.0000
  C   C21       1.0  0.48100  0.06820  0.42650  1.0000
  C   C22       1.0  0.51900  0.56820  0.57350  1.0000
  O   O67       1.0  0.07690  0.38300  0.18080  1.0000
  O   O68       1.0  0.92310  0.88300  0.81920  1.0000
  C   C23       1.0  0.23220  0.36410  0.06050  1.0000
  C   C24       1.0  0.76780  0.86410  0.93950  1.0000
  C   C25       1.0  0.90210  0.57320  0.10340  1.0000
  C   C26       1.0  0.09790  0.07320  0.89660  1.0000
  C   C27       1.0  0.98770  0.12020  0.71320  1.0000
  C   C28       1.0  0.01230  0.62020  0.28680  1.0000
  O   O69       1.0  0.49930  0.48660  0.46000  1.0000
  O   O70       1.0  0.50070  0.98660  0.54000  1.0000
  O   O71       1.0  0.80030  0.94800  0.12040  1.0000
  O   O72       1.0  0.19970  0.44800  0.87960  1.0000
  C   C29       1.0  0.10990  0.03760  0.14400  1.0000
  C   C30       1.0  0.89010  0.53760  0.85600  1.0000
  H   H7        1.0  0.07160  0.06050  0.16330  1.0000
  H   H8        1.0  0.92840  0.56050  0.83670  1.0000
  O   O73       1.0  0.50030  0.10720  0.46140  1.0000
  O   O74       1.0  0.49970  0.60720  0.53860  1.0000
  C   C31       1.0  0.31520  0.66610  0.45740  1.0000
  C   C32       1.0  0.68480  0.16610  0.54260  1.0000
  C   C33       1.0  0.25810  0.09770  0.36110  1.0000
  C   C34       1.0  0.74190  0.59770  0.63890  1.0000
  O   O75       1.0  0.00750  0.00500  0.02570  1.0000
  O   O76       1.0  0.99250  0.50500  0.97430  1.0000
  C   C35       1.0  0.06040  0.13020  0.72920  1.0000
  C   C36       1.0  0.93960  0.63020  0.27080  1.0000
  H   H9        1.0  0.07180  0.13030  0.76390  1.0000
  H   H10       1.0  0.92820  0.63030  0.23610  1.0000
  C   C37       1.0  0.18770  0.43460  0.04240  1.0000
  C   C38       1.0  0.81230  0.93460  0.95760  1.0000
  C   C39       1.0  0.17190  0.79540  0.38210  1.0000
  C   C40       1.0  0.82810  0.29540  0.61790  1.0000
  H   H11       1.0  0.13340  0.78730  0.35820  1.0000
  H   H12       1.0  0.86660  0.28730  0.64180  1.0000
  C   C41       1.0  0.05300  0.95300  0.26780  1.0000
  C   C42       1.0  0.94700  0.45300  0.73220  1.0000
  H   H13       1.0  0.06740  0.95450  0.23390  1.0000
  H   H14       1.0  0.93260  0.45450  0.76610  1.0000
  C   C43       1.0  0.43950  0.13310  0.22990  1.0000
  C   C44       1.0  0.56050  0.63310  0.77010  1.0000
  H   H15       1.0  0.42600  0.12700  0.26380  1.0000
  H   H16       1.0  0.57400  0.62700  0.73620  1.0000
  C   C45       1.0  0.31740  0.29920  0.11960  1.0000
  C   C46       1.0  0.68260  0.79920  0.88040  1.0000
  H   H17       1.0  0.34710  0.30090  0.14910  1.0000
  H   H18       1.0  0.65290  0.80090  0.85090  1.0000
  C   C47       1.0  0.22340  0.35610  0.60050  1.0000
  C   C48       1.0  0.77660  0.85610  0.39950  1.0000
  H   H19       1.0  0.21460  0.40750  0.61470  1.0000
  H   H20       1.0  0.78540  0.90750  0.38530  1.0000
  C   C49       1.0  0.27970  0.73650  0.89720  1.0000
  C   C50       1.0  0.72030  0.23650  0.10280  1.0000
  H   H21       1.0  0.28670  0.68490  0.88270  1.0000
  H   H22       1.0  0.71330  0.18490  0.11730  1.0000
  C   C51       1.0  0.13540  0.38100  0.20670  1.0000
  C   C52       1.0  0.86460  0.88100  0.79330  1.0000
  C   C53       1.0  0.68310  0.68360  0.19600  1.0000
  C   C54       1.0  0.31690  0.18360  0.80400  1.0000
  C   C55       1.0  0.73530  0.95640  0.13570  1.0000
  C   C56       1.0  0.26470  0.45640  0.86430  1.0000
  C   C57       1.0  0.15110  0.30690  0.24140  1.0000
  C   C58       1.0  0.84890  0.80690  0.75860  1.0000
  C   C59       1.0  0.30570  0.68770  0.11710  1.0000
  C   C60       1.0  0.69430  0.18770  0.88290  1.0000
  C   C61       1.0  0.22250  0.72800  0.39810  1.0000
  C   C62       1.0  0.77750  0.22800  0.60190  1.0000
  H   H23       1.0  0.22200  0.67800  0.38090  1.0000
  H   H24       1.0  0.77800  0.17800  0.61910  1.0000
  C   C63       1.0  0.35810  0.77410  0.04960  1.0000
  C   C64       1.0  0.64190  0.27410  0.95040  1.0000
  H   H25       1.0  0.35130  0.80520  0.02020  1.0000
  H   H26       1.0  0.64870  0.30520  0.97980  1.0000
  C   C65       1.0  0.11110  0.18050  0.28170  1.0000
  C   C66       1.0  0.88890  0.68050  0.71830  1.0000
  H   H27       1.0  0.07370  0.14140  0.28690  1.0000
  H   H28       1.0  0.92630  0.64140  0.71310  1.0000
  C   C67       1.0  0.65280  0.46980  0.43010  1.0000
  C   C68       1.0  0.34720  0.96980  0.56990  1.0000
  H   H29       1.0  0.64220  0.44770  0.46190  1.0000
  H   H30       1.0  0.35780  0.94770  0.53810  1.0000
  C   C69       1.0  0.73810  0.74380  0.20310  1.0000
  C   C70       1.0  0.26190  0.24380  0.79690  1.0000
  H   H31       1.0  0.78280  0.74160  0.18500  1.0000
  H   H32       1.0  0.21720  0.24160  0.81500  1.0000
  C   C71       1.0  0.27630  0.34930  0.56380  1.0000
  C   C72       1.0  0.72370  0.84930  0.43620  1.0000
  C   C73       1.0  0.67240  0.90690  0.11540  1.0000
  C   C74       1.0  0.32760  0.40690  0.88460  1.0000
  C   C75       1.0  0.60320  0.74910  0.25500  1.0000
  C   C76       1.0  0.39680  0.24910  0.74500  1.0000
  H   H33       1.0  0.55850  0.75000  0.27310  1.0000
  H   H34       1.0  0.44150  0.25000  0.72690  1.0000
  C   C77       1.0  0.51520  0.12940  0.21820  1.0000
  C   C78       1.0  0.48480  0.62940  0.78180  1.0000
  C   C79       1.0  0.08930  0.93960  0.35510  1.0000
  C   C80       1.0  0.91070  0.43960  0.64490  1.0000
  C   C81       1.0  0.17940  0.17370  0.30870  1.0000
  C   C82       1.0  0.82060  0.67370  0.69130  1.0000
  C   C83       1.0  0.92750  0.09870  0.75060  1.0000
  C   C84       1.0  0.07250  0.59870  0.24940  1.0000
  C   C85       1.0  0.15150  0.97890  0.06620  1.0000
  C   C86       1.0  0.84850  0.47890  0.93380  1.0000
  H   H35       1.0  0.14100  0.96200  0.03310  1.0000
  H   H36       1.0  0.85900  0.46200  0.96690  1.0000
  C   C87       1.0  0.24900  0.20220  0.55950  1.0000
  C   C88       1.0  0.75100  0.70220  0.44050  1.0000
  H   H37       1.0  0.25910  0.14990  0.54700  1.0000
  H   H38       1.0  0.74090  0.64990  0.45300  1.0000
  C   C89       1.0  0.57120  0.10870  0.25720  1.0000
  C   C90       1.0  0.42880  0.60870  0.74280  1.0000
  C   C91       1.0  0.31120  0.90740  0.19250  1.0000
  C   C92       1.0  0.68880  0.40740  0.80750  1.0000
  C   C93       1.0  0.17930  0.68310  0.61540  1.0000
  C   C94       1.0  0.82070  0.18310  0.38460  1.0000
  C   C95       1.0  0.75800  0.34830  0.29870  1.0000
  C   C96       1.0  0.24200  0.84830  0.70130  1.0000
  H   H39       1.0  0.71200  0.35210  0.31510  1.0000
  H   H40       1.0  0.28800  0.85210  0.68490  1.0000
  O   O77       1.0  0.55800  0.99750  0.69890  1.0000
  O   O78       1.0  0.44200  0.49750  0.30110  1.0000
  C   C97       1.0  0.86340  0.81580  0.54690  1.0000
  C   C98       1.0  0.13660  0.31580  0.45310  1.0000
  H   H41       1.0  0.85700  0.78150  0.51890  1.0000
  H   H42       1.0  0.14300  0.28150  0.48110  1.0000
  C   C99       1.0  0.25480  0.89300  0.93770  1.0000
  C   C100      1.0  0.74520  0.39300  0.06230  1.0000
  H   H43       1.0  0.24640  0.94560  0.95030  1.0000
  H   H44       1.0  0.75360  0.44560  0.04970  1.0000
  C   C101      1.0  0.23920  0.64140  0.13560  1.0000
  C   C102      1.0  0.76080  0.14140  0.86440  1.0000
  C   C103      1.0  0.24350  0.63460  0.63730  1.0000
  C   C104      1.0  0.75650  0.13460  0.36270  1.0000
  C   C105      1.0  0.21990  0.29920  0.26790  1.0000
  C   C106      1.0  0.78010  0.79920  0.73210  1.0000
  H   H45       1.0  0.25720  0.33850  0.26320  1.0000
  H   H46       1.0  0.74280  0.83850  0.73680  1.0000
  C   C107      1.0  0.28010  0.36370  0.10590  1.0000
  C   C108      1.0  0.71990  0.86370  0.89410  1.0000
  H   H47       1.0  0.28400  0.41120  0.12550  1.0000
  H   H48       1.0  0.71600  0.91120  0.87450  1.0000
  C   C109      1.0  0.23350  0.87980  0.44550  1.0000
  C   C110      1.0  0.76650  0.37980  0.55450  1.0000
  H   H49       1.0  0.23860  0.92970  0.46250  1.0000
  H   H50       1.0  0.76140  0.42970  0.53750  1.0000
  O   O79       1.0  0.18590  0.60830  0.93310  1.0000
  O   O80       1.0  0.81410  0.10830  0.06690  1.0000
  C   C111      1.0  0.37580  0.67500  0.13720  1.0000
  C   C112      1.0  0.62420  0.17500  0.86280  1.0000
  H   H51       1.0  0.38040  0.64500  0.16730  1.0000
  H   H52       1.0  0.61960  0.14500  0.83270  1.0000
  C   C113      1.0  0.85230  0.20860  0.20240  1.0000
  C   C114      1.0  0.14770  0.70860  0.79760  1.0000
  C   C115      1.0  0.63640  0.88030  0.29780  1.0000
  C   C116      1.0  0.36360  0.38030  0.70220  1.0000
  C   C117      1.0  0.34650  0.11270  0.43180  1.0000
  C   C118      1.0  0.65350  0.61270  0.56820  1.0000
  H   H53       1.0  0.35610  0.12840  0.46530  1.0000
  H   H54       1.0  0.64390  0.62840  0.53470  1.0000
  C   C119      1.0  0.72570  0.80650  0.23710  1.0000
  C   C120      1.0  0.27430  0.30650  0.76290  1.0000
  H   H55       1.0  0.76300  0.84560  0.24290  1.0000
  H   H56       1.0  0.23700  0.34560  0.75710  1.0000
  C   C121      1.0  0.76130  0.60410  0.14220  1.0000
  C   C122      1.0  0.23870  0.10410  0.85780  1.0000
  C   C123      1.0  0.31260  0.05630  0.33500  1.0000
  C   C124      1.0  0.68740  0.55630  0.66500  1.0000
  H   H57       1.0  0.30220  0.03530  0.30280  1.0000
  H   H58       1.0  0.69780  0.53530  0.69720  1.0000
  C   C125      1.0  0.77210  0.28410  0.26640  1.0000
  C   C126      1.0  0.22790  0.78410  0.73360  1.0000
  H   H59       1.0  0.73670  0.24230  0.26280  1.0000
  H   H60       1.0  0.26330  0.74230  0.73720  1.0000
  O   O81       1.0  0.49000  0.79210  0.04500  1.0000
  O   O82       1.0  0.51000  0.29210  0.95500  1.0000
  O   O83       1.0  0.99510  0.79900  0.54200  1.0000
  O   O84       1.0  0.00490  0.29900  0.45800  1.0000
  C   C127      1.0  0.39680  0.83560  0.25230  1.0000
  C   C128      1.0  0.60320  0.33560  0.74770  1.0000
  H   H61       1.0  0.44240  0.83160  0.27010  1.0000
  H   H62       1.0  0.55760  0.33160  0.72990  1.0000
  C   C129      1.0  0.11940  0.14070  0.69340  1.0000
  C   C130      1.0  0.88060  0.64070  0.30660  1.0000
  H   H63       1.0  0.16960  0.14540  0.70350  1.0000
  H   H64       1.0  0.83040  0.64540  0.29650  1.0000
  C   C131      1.0  0.19540  0.21340  0.59650  1.0000
  C   C132      1.0  0.80460  0.71340  0.40350  1.0000
  C   C133      1.0  0.18480  0.87390  0.40510  1.0000
  C   C134      1.0  0.81520  0.37390  0.59490  1.0000
  C   C135      1.0  0.38490  0.94580  0.79910  1.0000
  C   C136      1.0  0.61510  0.44580  0.20090  1.0000
  H   H65       1.0  0.33590  0.93630  0.78750  1.0000
  H   H66       1.0  0.66410  0.43630  0.21250  1.0000
  C   C137      1.0  0.27650  0.12520  0.40870  1.0000
  C   C138      1.0  0.72350  0.62520  0.59130  1.0000
  H   H67       1.0  0.24010  0.15380  0.42680  1.0000
  H   H68       1.0  0.75990  0.65380  0.57320  1.0000
  C   C139      1.0  0.29530  0.73910  0.07460  1.0000
  C   C140      1.0  0.70470  0.23910  0.92540  1.0000
  H   H69       1.0  0.24680  0.75040  0.06270  1.0000
  H   H70       1.0  0.75320  0.25040  0.93730  1.0000
  C   C141      1.0  0.53760  0.96750  0.83220  1.0000
  C   C142      1.0  0.46240  0.46750  0.16780  1.0000
  H   H71       1.0  0.58700  0.97800  0.84270  1.0000
  H   H72       1.0  0.41300  0.47800  0.15730  1.0000
  C   C143      1.0  0.28850  0.27160  0.54080  1.0000
  C   C144      1.0  0.71150  0.77160  0.45920  1.0000
  H   H73       1.0  0.32180  0.26620  0.51400  1.0000
  H   H74       1.0  0.67820  0.76620  0.48600  1.0000
  C   C145      1.0  0.31400  0.22800  0.09170  1.0000
  C   C146      1.0  0.68600  0.72800  0.90830  1.0000
  C   C147      1.0  0.32290  0.80560  0.88120  1.0000
  C   C148      1.0  0.67710  0.30560  0.11880  1.0000
  H   H75       1.0  0.35960  0.79940  0.85650  1.0000
  H   H76       1.0  0.64040  0.29940  0.14350  1.0000
  C   C149      1.0  0.09760  0.14360  0.64360  1.0000
  C   C150      1.0  0.90240  0.64360  0.35640  1.0000
  C   C151      1.0  0.95700  0.96250  0.33290  1.0000
  C   C152      1.0  0.04300  0.46250  0.66710  1.0000
  H   H77       1.0  0.90780  0.97420  0.34230  1.0000
  H   H78       1.0  0.09220  0.47420  0.65770  1.0000
  C   C153      1.0  0.30980  0.88300  0.90280  1.0000
  C   C154      1.0  0.69020  0.38300  0.09720  1.0000
  C   C155      1.0  0.53580  0.14050  0.16900  1.0000
  C   C156      1.0  0.46420  0.64050  0.83100  1.0000
  H   H79       1.0  0.58630  0.14170  0.16010  1.0000
  H   H80       1.0  0.41370  0.64170  0.83990  1.0000
  C   C157      1.0  0.18890  0.73290  0.56990  1.0000
  C   C158      1.0  0.81110  0.23290  0.43010  1.0000
  H   H81       1.0  0.23650  0.73820  0.55590  1.0000
  H   H82       1.0  0.76350  0.23820  0.44410  1.0000
  O   O85       1.0  0.54880  0.08150  0.30030  1.0000
  O   O86       1.0  0.45120  0.58150  0.69970  1.0000
  C   C159      1.0  0.61400  0.68940  0.22260  1.0000
  C   C160      1.0  0.38600  0.18940  0.77740  1.0000
  H   H83       1.0  0.57640  0.65050  0.21690  1.0000
  H   H84       1.0  0.42360  0.15050  0.78310  1.0000
  C   C161      1.0  0.97030  0.12850  0.66260  1.0000
  C   C162      1.0  0.02970  0.62850  0.33740  1.0000
  H   H85       1.0  0.92000  0.13130  0.65240  1.0000
  H   H86       1.0  0.08000  0.63130  0.34760  1.0000
  C   C163      1.0  0.21950  0.96450  0.08620  1.0000
  C   C164      1.0  0.78050  0.46450  0.91380  1.0000
  H   H87       1.0  0.25690  0.94040  0.06680  1.0000
  H   H88       1.0  0.74310  0.44040  0.93320  1.0000
  C   C165      1.0  0.78060  0.64020  0.09530  1.0000
  C   C166      1.0  0.21940  0.14020  0.90470  1.0000
  H   H89       1.0  0.74750  0.67500  0.07800  1.0000
  H   H90       1.0  0.25250  0.17500  0.92200  1.0000
  C   C167      1.0  0.18150  0.28900  0.61770  1.0000
  C   C168      1.0  0.81850  0.78900  0.38230  1.0000
  H   H91       1.0  0.14530  0.29540  0.64270  1.0000
  H   H92       1.0  0.85470  0.79540  0.35730  1.0000
  C   C169      1.0  0.40240  0.95100  0.85280  1.0000
  C   C170      1.0  0.59760  0.45100  0.14720  1.0000
  C   C171      1.0  0.23310  0.23520  0.30040  1.0000
  C   C172      1.0  0.76690  0.73520  0.69960  1.0000
  H   H93       1.0  0.27920  0.23240  0.31760  1.0000
  H   H94       1.0  0.72080  0.73240  0.68240  1.0000
  C   C173      1.0  0.10650  0.94220  0.30760  1.0000
  C   C174      1.0  0.89350  0.44220  0.69240  1.0000
  H   H95       1.0  0.15690  0.93670  0.29900  1.0000
  H   H96       1.0  0.84310  0.43670  0.70100  1.0000
  C   C175      1.0  0.88100  0.40460  0.27990  1.0000
  C   C176      1.0  0.11900  0.90460  0.72010  1.0000
  H   H97       1.0  0.91740  0.44520  0.28420  1.0000
  H   H98       1.0  0.08260  0.94520  0.71580  1.0000
  C   C177      1.0  0.01340  0.94520  0.37040  1.0000
  C   C178      1.0  0.98660  0.44520  0.62960  1.0000
  H   H99       1.0  0.00060  0.93770  0.40430  1.0000
  H   H100      1.0  0.99940  0.43770  0.59570  1.0000
  C   C179      1.0  0.38270  0.14550  0.19400  1.0000
  C   C180      1.0  0.61730  0.64550  0.80600  1.0000
  H   H101      1.0  0.33220  0.14760  0.20290  1.0000
  H   H102      1.0  0.66780  0.64760  0.79710  1.0000
  C   C181      1.0  0.47760  0.15020  0.13160  1.0000
  C   C182      1.0  0.52240  0.65020  0.86840  1.0000
  H   H103      1.0  0.49030  0.15370  0.09740  1.0000
  H   H104      1.0  0.50970  0.65370  0.90260  1.0000
  C   C183      1.0  0.72160  0.45840  0.40790  1.0000
  C   C184      1.0  0.27840  0.95840  0.59210  1.0000
  H   H105      1.0  0.75860  0.43000  0.42610  1.0000
  H   H106      1.0  0.24140  0.93000  0.57390  1.0000
  C   C185      1.0  0.80000  0.85670  0.56840  1.0000
  C   C186      1.0  0.20000  0.35670  0.43160  1.0000
  H   H107      1.0  0.75260  0.85210  0.55320  1.0000
  H   H108      1.0  0.24740  0.35210  0.44680  1.0000
  C   C187      1.0  0.47400  0.95340  0.86960  1.0000
  C   C188      1.0  0.52600  0.45340  0.13040  1.0000
  H   H109      1.0  0.48480  0.94640  0.90410  1.0000
  H   H110      1.0  0.51520  0.44640  0.09590  1.0000
  C   C189      1.0  0.67760  0.86480  0.07200  1.0000
  C   C190      1.0  0.32240  0.36480  0.92800  1.0000
  H   H111      1.0  0.72410  0.86240  0.05610  1.0000
  H   H112      1.0  0.27590  0.36240  0.94390  1.0000
  C   C191      1.0  0.93500  0.82760  0.56850  1.0000
  C   C192      1.0  0.06500  0.32760  0.43150  1.0000
  C   C193      1.0  0.13010  0.77110  0.54790  1.0000
  C   C194      1.0  0.86990  0.27110  0.45210  1.0000
  H   H113      1.0  0.13720  0.80210  0.51860  1.0000
  H   H114      1.0  0.86280  0.30210  0.48140  1.0000
  C   C195      1.0  0.25530  0.85210  0.20250  1.0000
  C   C196      1.0  0.74470  0.35210  0.79750  1.0000
  H   H115      1.0  0.20750  0.85910  0.18820  1.0000
  H   H116      1.0  0.79250  0.35910  0.81180  1.0000
  C   C197      1.0  0.22590  0.28870  0.03440  1.0000
  C   C198      1.0  0.77410  0.78870  0.96560  1.0000
  H   H117      1.0  0.19420  0.28450  0.00600  1.0000
  H   H118      1.0  0.80580  0.78450  0.99400  1.0000
  C   C199      1.0  0.09770  0.24340  0.24770  1.0000
  C   C200      1.0  0.90230  0.74340  0.75230  1.0000
  H   H119      1.0  0.05300  0.24410  0.22880  1.0000
  H   H120      1.0  0.94700  0.74410  0.77120  1.0000
  C   C201      1.0  0.21210  0.83160  0.95500  1.0000
  C   C202      1.0  0.78790  0.33160  0.04500  1.0000
  H   H121      1.0  0.17440  0.84110  0.97860  1.0000
  H   H122      1.0  0.82560  0.34110  0.02140  1.0000
  C   C203      1.0  0.02370  0.13270  0.62770  1.0000
  C   C204      1.0  0.97630  0.63270  0.37230  1.0000
  H   H123      1.0  0.01160  0.12850  0.59320  1.0000
  H   H124      1.0  0.98840  0.62850  0.40680  1.0000
  C   C205      1.0  0.27540  0.81310  0.46150  1.0000
  C   C206      1.0  0.72460  0.31310  0.53850  1.0000
  H   H125      1.0  0.30840  0.81870  0.48910  1.0000
  H   H126      1.0  0.69160  0.31870  0.51090  1.0000
  O   O87       1.0  0.35080  0.67490  0.49910  1.0000
  O   O88       1.0  0.64920  0.17490  0.50090  1.0000
  C   C207      1.0  0.61660  0.82430  0.04920  1.0000
  C   C208      1.0  0.38340  0.32430  0.95080  1.0000
  H   H127      1.0  0.62250  0.79470  0.01920  1.0000
  H   H128      1.0  0.37750  0.29470  0.98080  1.0000
  C   C209      1.0  0.59970  0.91630  0.13610  1.0000
  C   C210      1.0  0.40030  0.41630  0.86390  1.0000
  H   H129      1.0  0.59160  0.95180  0.16330  1.0000
  H   H130      1.0  0.40840  0.45180  0.83670  1.0000
  C   C211      1.0  0.04670  0.71490  0.61320  1.0000
  C   C212      1.0  0.95330  0.21490  0.38680  1.0000
  H   H131      1.0  0.99930  0.70400  0.62620  1.0000
  H   H132      1.0  0.00070  0.20400  0.37380  1.0000
  C   C213      1.0  0.11060  0.68370  0.63530  1.0000
  C   C214      1.0  0.88940  0.18370  0.36470  1.0000
  H   H133      1.0  0.10570  0.66050  0.66750  1.0000
  H   H134      1.0  0.89430  0.16050  0.33250  1.0000
  C   C215      1.0  0.94000  0.87250  0.61310  1.0000
  C   C216      1.0  0.06000  0.37250  0.38690  1.0000
  H   H135      1.0  0.98660  0.87530  0.62960  1.0000
  H   H136      1.0  0.01340  0.37530  0.37040  1.0000
  C   C217      1.0  0.55160  0.82890  0.07060  1.0000
  C   C218      1.0  0.44840  0.32890  0.92940  1.0000
  O   O89       1.0  0.30860  0.64680  0.29530  1.0000
  O   O90       1.0  0.69140  0.14680  0.70470  1.0000
  C   C219      1.0  0.05610  0.76490  0.56930  1.0000
  C   C220      1.0  0.94390  0.26490  0.43070  1.0000
  O   O91       1.0  0.34900  0.15310  0.10480  1.0000
  O   O92       1.0  0.65100  0.65310  0.89520  1.0000
  C   C221      1.0  0.44450  0.70660  0.11370  1.0000
  C   C222      1.0  0.55550  0.20660  0.88630  1.0000
  H   H137      1.0  0.49290  0.69370  0.12520  1.0000
  H   H138      1.0  0.50710  0.19370  0.87480  1.0000
  C   C223      1.0  0.53790  0.86920  0.11410  1.0000
  C   C224      1.0  0.46210  0.36920  0.88590  1.0000
  H   H139      1.0  0.49100  0.86720  0.12940  1.0000
  H   H140      1.0  0.50900  0.36720  0.87060  1.0000
  C   C225      1.0  0.34150  0.77620  0.25910  1.0000
  C   C226      1.0  0.65850  0.27620  0.74090  1.0000
  C   C227      1.0  0.65600  0.81220  0.26370  1.0000
  C   C228      1.0  0.34400  0.31220  0.73630  1.0000
  O   O93       1.0  0.14350  0.69040  0.99470  1.0000
  O   O94       1.0  0.85650  0.19040  0.00530  1.0000
  C   C229      1.0  0.97740  0.96130  0.28130  1.0000
  C   C230      1.0  0.02260  0.46130  0.71870  1.0000
  C   C231      1.0  0.40000  0.07670  0.40320  1.0000
  C   C232      1.0  0.60000  0.57670  0.59680  1.0000
  C   C233      1.0  0.01780  0.03460  0.06980  1.0000
  C   C234      1.0  0.98220  0.53460  0.93020  1.0000
  O   O95       1.0  0.34630  0.95550  0.88890  1.0000
  O   O96       1.0  0.65370  0.45550  0.11110  1.0000
  C   C235      1.0  0.89340  0.33770  0.24560  1.0000
  C   C236      1.0  0.10660  0.83770  0.75440  1.0000
  H   H141      1.0  0.93850  0.33350  0.22810  1.0000
  H   H142      1.0  0.06150  0.83350  0.77190  1.0000
  O   O97       1.0  0.47700  0.58610  0.40280  1.0000
  O   O98       1.0  0.52300  0.08610  0.59720  1.0000
  O   O99       1.0  0.41230  0.70340  0.32390  1.0000
  O   O100      1.0  0.58770  0.20340  0.67610  1.0000
  C   C237      1.0  0.18030  0.02300  0.16700  1.0000
  C   C238      1.0  0.81970  0.52300  0.83300  1.0000
  H   H143      1.0  0.19000  0.03770  0.20070  1.0000
  H   H144      1.0  0.81000  0.53770  0.79930  1.0000
  C   C239      1.0  0.27050  0.78380  0.23480  1.0000
  C   C240      1.0  0.72950  0.28380  0.76520  1.0000
  H   H145      1.0  0.23360  0.74410  0.24000  1.0000
  H   H146      1.0  0.76640  0.24410  0.76000  1.0000
  C   C241      1.0  0.91820  0.97960  0.24020  1.0000
  C   C242      1.0  0.08180  0.47960  0.75980  1.0000
  C   C243      1.0  0.38410  0.04580  0.35740  1.0000
  C   C244      1.0  0.61590  0.54580  0.64260  1.0000
  H   H147      1.0  0.42100  0.01690  0.34000  1.0000
  H   H148      1.0  0.57900  0.51690  0.66000  1.0000
  C   C245      1.0  0.88350  0.91130  0.63360  1.0000
  C   C246      1.0  0.11650  0.41130  0.36640  1.0000
  H   H149      1.0  0.89100  0.94400  0.66230  1.0000
  H   H150      1.0  0.10900  0.44400  0.33770  1.0000
  C   C247      1.0  0.44110  0.95500  0.76680  1.0000
  C   C248      1.0  0.55890  0.45500  0.23320  1.0000
  H   H151      1.0  0.42960  0.95580  0.73220  1.0000
  H   H152      1.0  0.57040  0.45580  0.26780  1.0000
  C   C249      1.0  0.74750  0.94840  0.63240  1.0000
  C   C250      1.0  0.25250  0.44840  0.36760  1.0000
  C   C251      1.0  0.40520  0.15440  0.14460  1.0000
  C   C252      1.0  0.59480  0.65440  0.85540  1.0000
  C   C253      1.0  0.23390  0.98670  0.13840  1.0000
  C   C254      1.0  0.76610  0.48670  0.86160  1.0000
  C   C255      1.0  0.35640  0.70750  0.29280  1.0000
  C   C256      1.0  0.64360  0.20750  0.70720  1.0000
  C   C257      1.0  0.51950  0.53080  0.42270  1.0000
  C   C258      1.0  0.48050  0.03080  0.57730  1.0000
  C   C259      1.0  0.57860  0.97990  0.74410  1.0000
  C   C260      1.0  0.42140  0.47990  0.25590  1.0000
  C   C261      1.0  0.85170  0.62140  0.07570  1.0000
  C   C262      1.0  0.14830  0.12140  0.92430  1.0000
  H   H153      1.0  0.86520  0.64130  0.04390  1.0000
  H   H154      1.0  0.13480  0.14130  0.95610  1.0000
  C   C263      1.0  0.81360  0.40830  0.30690  1.0000
  C   C264      1.0  0.18640  0.90830  0.69310  1.0000
  C   C265      1.0  0.22680  0.74860  0.93530  1.0000
  C   C266      1.0  0.77320  0.24860  0.06470  1.0000
  C   C267      1.0  0.80980  0.90260  0.61120  1.0000
  C   C268      1.0  0.19020  0.40260  0.38880  1.0000
  C   C269      1.0  0.26640  0.22100  0.05070  1.0000
  C   C270      1.0  0.73360  0.72100  0.94930  1.0000
  H   H155      1.0  0.26120  0.17090  0.03390  1.0000
  H   H156      1.0  0.73880  0.67090  0.96610  1.0000
  C   C271      1.0  0.42890  0.76150  0.06950  1.0000
  C   C272      1.0  0.57110  0.26150  0.93050  1.0000
  C   C273      1.0  0.51610  0.96350  0.78170  1.0000
  C   C274      1.0  0.48390  0.46350  0.21830  1.0000
  C   C275      1.0  0.38440  0.90090  0.21920  1.0000
  C   C276      1.0  0.61560  0.40090  0.78080  1.0000
  H   H157      1.0  0.42180  0.94000  0.21390  1.0000
  H   H158      1.0  0.57820  0.44000  0.78610  1.0000
  C   C277      1.0  0.73760  0.48570  0.36240  1.0000
  C   C278      1.0  0.26240  0.98570  0.63760  1.0000
  C   C279      1.0  0.68670  0.52940  0.33440  1.0000
  C   C280      1.0  0.31330  0.02940  0.66560  1.0000
  H   H159      1.0  0.69940  0.54740  0.30200  1.0000
  H   H160      1.0  0.30060  0.04740  0.69800  1.0000
