data_image0
_chemical_formula_structural       Tb2O28P4C4H2C2H2C2H2C4H2C2H2C4H2C2H2C4H2C2H2C4H2C2H2C4H2C4H2C4H2C4H2C4H2C8H2C2H2C4H2C2H2C6H2C2H2C4H2C2H2C2Zn2
_chemical_formula_sum              "Tb2 O28 P4 C84 H48 Zn2"
_cell_length_a       13.9155
_cell_length_b       14.0832
_cell_length_c       18.3492
_cell_angle_alpha    107.191
_cell_angle_beta     92.112
_cell_angle_gamma    92.355

_space_group_name_H-M_alt    "P 1"
_space_group_IT_number       1

loop_
  _space_group_symop_operation_xyz
  'x, y, z'

loop_
  _atom_site_type_symbol
  _atom_site_label
  _atom_site_symmetry_multiplicity
  _atom_site_fract_x
  _atom_site_fract_y
  _atom_site_fract_z
  _atom_site_occupancy
  Tb  Tb1       1.0  0.25357  0.44000  0.29285  1.0000
  Tb  Tb2       1.0  0.74643  0.56000  0.70715  1.0000
  O   O1        1.0  0.20840  0.55630  0.40260  1.0000
  O   O2        1.0  0.79160  0.44370  0.59740  1.0000
  O   O3        1.0  0.18030  0.53800  0.22130  1.0000
  O   O4        1.0  0.81970  0.46200  0.77870  1.0000
  O   O5        1.0  0.07940  0.44020  0.26180  1.0000
  O   O6        1.0  0.92060  0.55980  0.73820  1.0000
  O   O7        1.0  0.76810  0.70660  0.80660  1.0000
  O   O8        1.0  0.23190  0.29340  0.19340  1.0000
  O   O9        1.0  0.74440  0.86590  0.84980  1.0000
  O   O10       1.0  0.25560  0.13410  0.15020  1.0000
  O   O11       1.0  0.12600  0.95380  0.23040  1.0000
  O   O12       1.0  0.87400  0.04620  0.76960  1.0000
  O   O13       1.0  0.27510  0.01060  0.27230  1.0000
  O   O14       1.0  0.72490  0.98940  0.72770  1.0000
  O   O15       1.0  0.61620  0.79780  0.69200  1.0000
  O   O16       1.0  0.38380  0.20220  0.30800  1.0000
  O   O17       1.0  0.61640  0.63390  0.66650  1.0000
  O   O18       1.0  0.38360  0.36610  0.33350  1.0000
  O   O19       1.0  0.85960  0.82180  0.69080  1.0000
  O   O20       1.0  0.14040  0.17820  0.30920  1.0000
  O   O21       1.0  0.81470  0.66340  0.64226  1.0000
  O   O22       1.0  0.18530  0.33660  0.35774  1.0000
  O   O23       1.0  0.37570  0.46210  0.20640  1.0000
  O   O24       1.0  0.62430  0.53790  0.79360  1.0000
  O   O25       1.0  0.37630  0.57330  0.31990  1.0000
  O   O26       1.0  0.62370  0.42670  0.68010  1.0000
  O   O27       1.0  0.78100  0.86100  0.24020  1.0000
  O   O28       1.0  0.21900  0.13900  0.75980  1.0000
  P   P1        1.0  0.22019  0.66097  0.45421  1.0000
  P   P2        1.0  0.77981  0.33903  0.54579  1.0000
  P   P3        1.0  0.76451  0.75847  0.18492  1.0000
  P   P4        1.0  0.23549  0.24153  0.81508  1.0000
  C   C1        1.0  0.11950  0.68610  0.51510  1.0000
  C   C2        1.0  0.88050  0.31390  0.48490  1.0000
  C   C3        1.0  0.10320  0.77350  0.55880  1.0000
  C   C4        1.0  0.89680  0.22650  0.44120  1.0000
  H   H1        1.0  0.14844  0.82703  0.56168  1.0000
  H   H2        1.0  0.85156  0.17297  0.43832  1.0000
  C   C5        1.0  0.06210  0.61380  0.51880  1.0000
  C   C6        1.0  0.93790  0.38620  0.48120  1.0000
  H   H3        1.0  0.07459  0.54760  0.49046  1.0000
  H   H4        1.0  0.92541  0.45240  0.50954  1.0000
  C   C7        1.0  0.02050  0.79310  0.60270  1.0000
  C   C8        1.0  0.97950  0.20690  0.39730  1.0000
  H   H5        1.0  0.00846  0.85945  0.63099  1.0000
  H   H6        1.0  0.99154  0.14055  0.36901  1.0000
  C   C9        1.0  0.32760  0.67920  0.51520  1.0000
  C   C10       1.0  0.67240  0.32080  0.48480  1.0000
  C   C11       1.0  0.36310  0.77150  0.55840  1.0000
  C   C12       1.0  0.63690  0.22850  0.44160  1.0000
  H   H7        1.0  0.33115  0.82913  0.55630  1.0000
  H   H8        1.0  0.66885  0.17087  0.44370  1.0000
  C   C13       1.0  0.37550  0.60090  0.51940  1.0000
  C   C14       1.0  0.62450  0.39910  0.48060  1.0000
  H   H9        1.0  0.35297  0.53629  0.48888  1.0000
  H   H10       1.0  0.64703  0.46371  0.51112  1.0000
  C   C15       1.0  0.22110  0.75130  0.40430  1.0000
  C   C16       1.0  0.77890  0.24870  0.59570  1.0000
  C   C17       1.0  0.13640  0.76640  0.37250  1.0000
  C   C18       1.0  0.86360  0.23360  0.62750  1.0000
  H   H11       1.0  0.07959  0.73160  0.38022  1.0000
  H   H12       1.0  0.92041  0.26840  0.61978  1.0000
  C   C19       1.0  0.29740  0.79190  0.38420  1.0000
  C   C20       1.0  0.70260  0.20810  0.61580  1.0000
  H   H13       1.0  0.35890  0.77496  0.39918  1.0000
  H   H14       1.0  0.64110  0.22504  0.60082  1.0000
  C   C21       1.0  0.76100  0.76190  0.08760  1.0000
  C   C22       1.0  0.23900  0.23810  0.91240  1.0000
  C   C23       1.0  0.74470  0.85070  0.07410  1.0000
  C   C24       1.0  0.25530  0.14930  0.92590  1.0000
  H   H15       1.0  0.73515  0.90789  0.11572  1.0000
  H   H16       1.0  0.26485  0.09211  0.88428  1.0000
  C   C25       1.0  0.74190  0.85780  0.99990  1.0000
  C   C26       1.0  0.25810  0.14220  0.00010  1.0000
  H   H17       1.0  0.72952  0.91939  0.99095  1.0000
  H   H18       1.0  0.27048  0.08061  0.00905  1.0000
  C   C27       1.0  0.75740  0.77400  0.93870  1.0000
  C   C28       1.0  0.24260  0.22600  0.06130  1.0000
  C   C29       1.0  0.77390  0.68500  0.95220  1.0000
  C   C30       1.0  0.22610  0.31500  0.04780  1.0000
  H   H19       1.0  0.78319  0.62759  0.91068  1.0000
  H   H20       1.0  0.21681  0.37241  0.08932  1.0000
  C   C31       1.0  0.77690  0.67890  0.02680  1.0000
  C   C32       1.0  0.22310  0.32110  0.97320  1.0000
  H   H21       1.0  0.78990  0.61761  0.03606  1.0000
  H   H22       1.0  0.21010  0.38239  0.96394  1.0000
  C   C33       1.0  0.75650  0.78150  0.85910  1.0000
  C   C34       1.0  0.24350  0.21850  0.14090  1.0000
  C   C35       1.0  0.13010  0.83250  0.32830  1.0000
  C   C36       1.0  0.86990  0.16750  0.67170  1.0000
  H   H23       1.0  0.06968  0.84478  0.30804  1.0000
  H   H24       1.0  0.93032  0.15522  0.69196  1.0000
  C   C37       1.0  0.21330  0.87870  0.31540  1.0000
  C   C38       1.0  0.78670  0.12130  0.68460  1.0000
  C   C39       1.0  0.29330  0.85810  0.34230  1.0000
  C   C40       1.0  0.70670  0.14190  0.65770  1.0000
  H   H25       1.0  0.35143  0.88947  0.33303  1.0000
  H   H26       1.0  0.64857  0.11053  0.66697  1.0000
  C   C41       1.0  0.20390  0.95580  0.26940  1.0000
  C   C42       1.0  0.79610  0.04420  0.73060  1.0000
  C   C43       1.0  0.44430  0.78070  0.60430  1.0000
  C   C44       1.0  0.55570  0.21930  0.39570  1.0000
  H   H27       1.0  0.46875  0.84548  0.63306  1.0000
  H   H28       1.0  0.53125  0.15452  0.36694  1.0000
  C   C45       1.0  0.49220  0.69970  0.61050  1.0000
  C   C46       1.0  0.50780  0.30030  0.38950  1.0000
  C   C47       1.0  0.45760  0.61090  0.56720  1.0000
  C   C48       1.0  0.54240  0.38910  0.43280  1.0000
  H   H29       1.0  0.48945  0.55316  0.56893  1.0000
  H   H30       1.0  0.51055  0.44684  0.43107  1.0000
  C   C49       1.0  0.58170  0.70980  0.66030  1.0000
  C   C50       1.0  0.41830  0.29020  0.33970  1.0000
  C   C51       1.0  0.98070  0.63090  0.56440  1.0000
  C   C52       1.0  0.01930  0.36910  0.43560  1.0000
  H   H31       1.0  0.93975  0.57582  0.56560  1.0000
  H   H32       1.0  0.06025  0.42418  0.43440  1.0000
  C   C53       1.0  0.96100  0.71930  0.60420  1.0000
  C   C54       1.0  0.03900  0.28070  0.39580  1.0000
  C   C55       1.0  0.87250  0.73510  0.64930  1.0000
  C   C56       1.0  0.12750  0.26490  0.35070  1.0000
  C   C57       1.0  0.65420  0.69770  0.20070  1.0000
  C   C58       1.0  0.34580  0.30230  0.79930  1.0000
  C   C59       1.0  0.61700  0.73060  0.27090  1.0000
  C   C60       1.0  0.38300  0.26940  0.72910  1.0000
  H   H33       1.0  0.64579  0.78786  0.30804  1.0000
  H   H34       1.0  0.35421  0.21214  0.69196  1.0000
  C   C61       1.0  0.53670  0.68030  0.28830  1.0000
  C   C62       1.0  0.46330  0.31970  0.71170  1.0000
  H   H35       1.0  0.51149  0.70298  0.33749  1.0000
  H   H36       1.0  0.48851  0.29702  0.66251  1.0000
  C   C63       1.0  0.49340  0.59740  0.23430  1.0000
  C   C64       1.0  0.50660  0.40260  0.76570  1.0000
  C   C65       1.0  0.52820  0.56800  0.16270  1.0000
  C   C66       1.0  0.47180  0.43200  0.83730  1.0000
  H   H37       1.0  0.49710  0.51352  0.12428  1.0000
  H   H38       1.0  0.50290  0.48648  0.87572  1.0000
  C   C67       1.0  0.60850  0.61750  0.14630  1.0000
  C   C68       1.0  0.39150  0.38250  0.85370  1.0000
  H   H39       1.0  0.63261  0.59594  0.09664  1.0000
  H   H40       1.0  0.36739  0.40406  0.90336  1.0000
  C   C69       1.0  0.40900  0.54110  0.25380  1.0000
  C   C70       1.0  0.59100  0.45890  0.74620  1.0000
  C   C71       1.0  0.85920  0.67810  0.19290  1.0000
  C   C72       1.0  0.14080  0.32190  0.80710  1.0000
  C   C73       1.0  0.84500  0.59490  0.21720  1.0000
  C   C74       1.0  0.15500  0.40510  0.78280  1.0000
  H   H41       1.0  0.78154  0.57476  0.22591  1.0000
  H   H42       1.0  0.21846  0.42524  0.77409  1.0000
  C   C75       1.0  0.92000  0.54090  0.22910  1.0000
  C   C76       1.0  0.08000  0.45910  0.77090  1.0000
  H   H43       1.0  0.90824  0.48439  0.24638  1.0000
  H   H44       1.0  0.09176  0.51561  0.75362  1.0000
  C   C77       1.0  0.01240  0.56750  0.21620  1.0000
  C   C78       1.0  0.98760  0.43250  0.78380  1.0000
  C   C79       1.0  0.02640  0.64360  0.18780  1.0000
  C   C80       1.0  0.97360  0.35640  0.81220  1.0000
  H   H45       1.0  0.08961  0.66030  0.17598  1.0000
  H   H46       1.0  0.91039  0.33970  0.82402  1.0000
  C   C81       1.0  0.95070  0.69920  0.17520  1.0000
  C   C82       1.0  0.04930  0.30080  0.82480  1.0000
  H   H47       1.0  0.96265  0.75220  0.15401  1.0000
  H   H48       1.0  0.03735  0.24780  0.84599  1.0000
  C   C83       1.0  0.09480  0.51150  0.23280  1.0000
  C   C84       1.0  0.90520  0.48850  0.76720  1.0000
  Zn  Zn1       1.0  0.73932  0.85741  0.74071  1.0000
  Zn  Zn2       1.0  0.26068  0.14259  0.25929  1.0000
