data_image0
_chemical_formula_structural       Tb6O48C24H6C12H6C6H6C6H6C12H6C30H6C6
_chemical_formula_sum              "Tb6 O48 C96 H36"
_cell_length_a       13.797
_cell_length_b       13.797
_cell_length_c       22.938
_cell_angle_alpha    90
_cell_angle_beta     90
_cell_angle_gamma    120

_space_group_name_H-M_alt    "P 1"
_space_group_IT_number       1

loop_
  _space_group_symop_operation_xyz
  'x, y, z'

loop_
  _atom_site_type_symbol
  _atom_site_label
  _atom_site_symmetry_multiplicity
  _atom_site_fract_x
  _atom_site_fract_y
  _atom_site_fract_z
  _atom_site_occupancy
  Tb  Tb1       1.0  0.69477  0.66564  0.58961  1.0000
  Tb  Tb2       1.0  0.33436  0.02913  0.25628  1.0000
  Tb  Tb3       1.0  0.97087  0.30523  0.92294  1.0000
  Tb  Tb4       1.0  0.66564  0.69477  0.41039  1.0000
  Tb  Tb5       1.0  0.30523  0.97087  0.07706  1.0000
  Tb  Tb6       1.0  0.02913  0.33436  0.74372  1.0000
  O   O1        1.0  0.60170  0.72200  0.66020  1.0000
  O   O2        1.0  0.27800  0.87970  0.32687  1.0000
  O   O3        1.0  0.12030  0.39830  0.99353  1.0000
  O   O4        1.0  0.72200  0.60170  0.33980  1.0000
  O   O5        1.0  0.39830  0.12030  0.00647  1.0000
  O   O6        1.0  0.87970  0.27800  0.67313  1.0000
  O   O7        1.0  0.78480  0.81460  0.66780  1.0000
  O   O8        1.0  0.18540  0.97020  0.33447  1.0000
  O   O9        1.0  0.02980  0.21520  0.00113  1.0000
  O   O10       1.0  0.81460  0.78480  0.33220  1.0000
  O   O11       1.0  0.21520  0.02980  0.99887  1.0000
  O   O12       1.0  0.97020  0.18540  0.66553  1.0000
  O   O13       1.0  0.23400  0.81490  0.00830  1.0000
  O   O14       1.0  0.18510  0.41910  0.67497  1.0000
  O   O15       1.0  0.58090  0.76600  0.34163  1.0000
  O   O16       1.0  0.81490  0.23400  0.99170  1.0000
  O   O17       1.0  0.76600  0.58090  0.65837  1.0000
  O   O18       1.0  0.41910  0.18510  0.32503  1.0000
  O   O19       1.0  0.41390  0.92280  0.01010  1.0000
  O   O20       1.0  0.07720  0.49110  0.67677  1.0000
  O   O21       1.0  0.50890  0.58610  0.34343  1.0000
  O   O22       1.0  0.92280  0.41390  0.98990  1.0000
  O   O23       1.0  0.58610  0.50890  0.65657  1.0000
  O   O24       1.0  0.49110  0.07720  0.32323  1.0000
  O   O25       1.0  0.90100  0.17770  0.79470  1.0000
  O   O26       1.0  0.82230  0.72330  0.46137  1.0000
  O   O27       1.0  0.27670  0.09900  0.12803  1.0000
  O   O28       1.0  0.17770  0.90100  0.20530  1.0000
  O   O29       1.0  0.09900  0.27670  0.87197  1.0000
  O   O30       1.0  0.72330  0.82230  0.53863  1.0000
  O   O31       1.0  0.08140  0.47850  0.88160  1.0000
  O   O32       1.0  0.52150  0.60290  0.54827  1.0000
  O   O33       1.0  0.39710  0.91860  0.21493  1.0000
  O   O34       1.0  0.47850  0.08140  0.11840  1.0000
  O   O35       1.0  0.91860  0.39710  0.78507  1.0000
  O   O36       1.0  0.60290  0.52150  0.45173  1.0000
  O   O37       1.0  0.16630  0.48960  0.79670  1.0000
  O   O38       1.0  0.51040  0.67670  0.46337  1.0000
  O   O39       1.0  0.32330  0.83370  0.13003  1.0000
  O   O40       1.0  0.48960  0.16630  0.20330  1.0000
  O   O41       1.0  0.83370  0.32330  0.86997  1.0000
  O   O42       1.0  0.67670  0.51040  0.53663  1.0000
  O   O43       1.0  0.85380  0.12260  0.88660  1.0000
  O   O44       1.0  0.87740  0.73120  0.55327  1.0000
  O   O45       1.0  0.26880  0.14620  0.21993  1.0000
  O   O46       1.0  0.12260  0.85380  0.11340  1.0000
  O   O47       1.0  0.14620  0.26880  0.78007  1.0000
  O   O48       1.0  0.73120  0.87740  0.44673  1.0000
  C   C1        1.0  0.69180  0.79340  0.68580  1.0000
  C   C2        1.0  0.20660  0.89840  0.35247  1.0000
  C   C3        1.0  0.10160  0.30820  0.01913  1.0000
  C   C4        1.0  0.79340  0.69180  0.31420  1.0000
  C   C5        1.0  0.30820  0.10160  0.98087  1.0000
  C   C6        1.0  0.89840  0.20660  0.64753  1.0000
  C   C7        1.0  0.32910  0.84600  0.98740  1.0000
  C   C8        1.0  0.15400  0.48310  0.65407  1.0000
  C   C9        1.0  0.51690  0.67090  0.32073  1.0000
  C   C10       1.0  0.84600  0.32910  0.01260  1.0000
  C   C11       1.0  0.67090  0.51690  0.67927  1.0000
  C   C12       1.0  0.48310  0.15400  0.34593  1.0000
  C   C13       1.0  0.67580  0.84680  0.73980  1.0000
  C   C14       1.0  0.15320  0.82900  0.40647  1.0000
  C   C15       1.0  0.17100  0.32420  0.07313  1.0000
  C   C16       1.0  0.84680  0.67580  0.26020  1.0000
  C   C17       1.0  0.32420  0.17100  0.92687  1.0000
  C   C18       1.0  0.82900  0.15320  0.59353  1.0000
  C   C19       1.0  0.57570  0.79400  0.77020  1.0000
  C   C20       1.0  0.20600  0.78170  0.43687  1.0000
  C   C21       1.0  0.21830  0.42430  0.10353  1.0000
  C   C22       1.0  0.79400  0.57570  0.22980  1.0000
  C   C23       1.0  0.42430  0.21830  0.89647  1.0000
  C   C24       1.0  0.78170  0.20600  0.56313  1.0000
  H   H1        1.0  0.51740  0.72630  0.75660  1.0000
  H   H2        1.0  0.27370  0.79110  0.42327  1.0000
  H   H3        1.0  0.20890  0.48260  0.08993  1.0000
  H   H4        1.0  0.72630  0.51740  0.24340  1.0000
  H   H5        1.0  0.48260  0.20890  0.91007  1.0000
  H   H6        1.0  0.79110  0.27370  0.57673  1.0000
  C   C25       1.0  0.56120  0.84140  0.82120  1.0000
  C   C26       1.0  0.15860  0.71980  0.48787  1.0000
  C   C27       1.0  0.28020  0.43880  0.15453  1.0000
  C   C28       1.0  0.84140  0.56120  0.17880  1.0000
  C   C29       1.0  0.43880  0.28020  0.84547  1.0000
  C   C30       1.0  0.71980  0.15860  0.51213  1.0000
  C   C31       1.0  0.65300  0.93970  0.84100  1.0000
  C   C32       1.0  0.06030  0.71330  0.50767  1.0000
  C   C33       1.0  0.28670  0.34700  0.17433  1.0000
  C   C34       1.0  0.93970  0.65300  0.15900  1.0000
  C   C35       1.0  0.34700  0.28670  0.82567  1.0000
  C   C36       1.0  0.71330  0.06030  0.49233  1.0000
  H   H7        1.0  0.64660  0.96940  0.87620  1.0000
  H   H8        1.0  0.03060  0.67720  0.54287  1.0000
  H   H9        1.0  0.32280  0.35340  0.20953  1.0000
  H   H10       1.0  0.96940  0.64660  0.12380  1.0000
  H   H11       1.0  0.35340  0.32280  0.79047  1.0000
  H   H12       1.0  0.67720  0.03060  0.45713  1.0000
  C   C37       1.0  0.76610  0.95110  0.76050  1.0000
  C   C38       1.0  0.04890  0.81500  0.42717  1.0000
  C   C39       1.0  0.18500  0.23390  0.09383  1.0000
  C   C40       1.0  0.95110  0.76610  0.23950  1.0000
  C   C41       1.0  0.23390  0.18500  0.90617  1.0000
  C   C42       1.0  0.81500  0.04890  0.57283  1.0000
  H   H13       1.0  0.83280  0.98790  0.73980  1.0000
  H   H14       1.0  0.01210  0.84490  0.40647  1.0000
  H   H15       1.0  0.15510  0.16720  0.07313  1.0000
  H   H16       1.0  0.98790  0.83280  0.26020  1.0000
  H   H17       1.0  0.16720  0.15510  0.92687  1.0000
  H   H18       1.0  0.84490  0.01210  0.59353  1.0000
  C   C43       1.0  0.25010  0.68620  0.91600  1.0000
  C   C44       1.0  0.31380  0.56390  0.58267  1.0000
  C   C45       1.0  0.43610  0.74990  0.24933  1.0000
  C   C46       1.0  0.68620  0.25010  0.08400  1.0000
  C   C47       1.0  0.74990  0.43610  0.75067  1.0000
  C   C48       1.0  0.56390  0.31380  0.41733  1.0000
  H   H19       1.0  0.18300  0.65280  0.93660  1.0000
  H   H20       1.0  0.34720  0.53020  0.60327  1.0000
  H   H21       1.0  0.46980  0.81700  0.26993  1.0000
  H   H22       1.0  0.65280  0.18300  0.06340  1.0000
  H   H23       1.0  0.81700  0.46980  0.73007  1.0000
  H   H24       1.0  0.53020  0.34720  0.39673  1.0000
  C   C49       1.0  0.33870  0.78540  0.93490  1.0000
  C   C50       1.0  0.21460  0.55330  0.60157  1.0000
  C   C51       1.0  0.44670  0.66130  0.26823  1.0000
  C   C52       1.0  0.78540  0.33870  0.06510  1.0000
  C   C53       1.0  0.66130  0.44670  0.73177  1.0000
  C   C54       1.0  0.55330  0.21460  0.39843  1.0000
  C   C55       1.0  0.43820  0.83470  0.90410  1.0000
  C   C56       1.0  0.16530  0.60350  0.57077  1.0000
  C   C57       1.0  0.39650  0.56180  0.23743  1.0000
  C   C58       1.0  0.83470  0.43820  0.09590  1.0000
  C   C59       1.0  0.56180  0.39650  0.76257  1.0000
  C   C60       1.0  0.60350  0.16530  0.42923  1.0000
  H   H25       1.0  0.49760  0.90200  0.91750  1.0000
  H   H26       1.0  0.09800  0.59560  0.58417  1.0000
  H   H27       1.0  0.40440  0.50240  0.25083  1.0000
  H   H28       1.0  0.90200  0.49760  0.08250  1.0000
  H   H29       1.0  0.50240  0.40440  0.74917  1.0000
  H   H30       1.0  0.59560  0.09800  0.41583  1.0000
  C   C61       1.0  0.45210  0.78650  0.85370  1.0000
  C   C62       1.0  0.21350  0.66560  0.52037  1.0000
  C   C63       1.0  0.33440  0.54790  0.18703  1.0000
  C   C64       1.0  0.78650  0.45210  0.14630  1.0000
  C   C65       1.0  0.54790  0.33440  0.81297  1.0000
  C   C66       1.0  0.66560  0.21350  0.47963  1.0000
  C   C67       1.0  0.75310  0.99580  0.81110  1.0000
  C   C68       1.0  0.00420  0.75730  0.47777  1.0000
  C   C69       1.0  0.24270  0.24690  0.14443  1.0000
  C   C70       1.0  0.99580  0.75310  0.18890  1.0000
  C   C71       1.0  0.24690  0.24270  0.85557  1.0000
  C   C72       1.0  0.75730  0.00420  0.52223  1.0000
  C   C73       1.0  0.84260  0.10670  0.83200  1.0000
  C   C74       1.0  0.89330  0.73590  0.49867  1.0000
  C   C75       1.0  0.26410  0.15740  0.16533  1.0000
  C   C76       1.0  0.10670  0.84260  0.16800  1.0000
  C   C77       1.0  0.15740  0.26410  0.83467  1.0000
  C   C78       1.0  0.73590  0.89330  0.50133  1.0000
  C   C79       1.0  0.26130  0.63590  0.86610  1.0000
  C   C80       1.0  0.36410  0.62540  0.53277  1.0000
  C   C81       1.0  0.37460  0.73870  0.19943  1.0000
  C   C82       1.0  0.63590  0.26130  0.13390  1.0000
  C   C83       1.0  0.73870  0.37460  0.80057  1.0000
  C   C84       1.0  0.62540  0.36410  0.46723  1.0000
  C   C85       1.0  0.36080  0.68500  0.83490  1.0000
  C   C86       1.0  0.31500  0.67580  0.50157  1.0000
  C   C87       1.0  0.32420  0.63920  0.16823  1.0000
  C   C88       1.0  0.68500  0.36080  0.16510  1.0000
  C   C89       1.0  0.63920  0.32420  0.83177  1.0000
  C   C90       1.0  0.67580  0.31500  0.49843  1.0000
  H   H31       1.0  0.36710  0.65050  0.80140  1.0000
  H   H32       1.0  0.34950  0.71660  0.46807  1.0000
  H   H33       1.0  0.28340  0.63290  0.13473  1.0000
  H   H34       1.0  0.65050  0.36710  0.19860  1.0000
  H   H35       1.0  0.63290  0.28340  0.86527  1.0000
  H   H36       1.0  0.71660  0.34950  0.53193  1.0000
  C   C91       1.0  0.16170  0.52480  0.84590  1.0000
  C   C92       1.0  0.47520  0.63690  0.51257  1.0000
  C   C93       1.0  0.36310  0.83830  0.17923  1.0000
  C   C94       1.0  0.52480  0.16170  0.15410  1.0000
  C   C95       1.0  0.83830  0.36310  0.82077  1.0000
  C   C96       1.0  0.63690  0.47520  0.48743  1.0000
