data_image0
_chemical_formula_structural       Tb6O48C24H6C12H6C18H6C6H6C18H6C12H6C6
_chemical_formula_sum              "Tb6 O48 C96 H36"
_cell_length_a       13.7685
_cell_length_b       13.7685
_cell_length_c       22.892
_cell_angle_alpha    90
_cell_angle_beta     90
_cell_angle_gamma    120

_space_group_name_H-M_alt    "P 1"
_space_group_IT_number       1

loop_
  _space_group_symop_operation_xyz
  'x, y, z'

loop_
  _atom_site_type_symbol
  _atom_site_label
  _atom_site_symmetry_multiplicity
  _atom_site_fract_x
  _atom_site_fract_y
  _atom_site_fract_z
  _atom_site_occupancy
  Tb  Tb1       1.0  0.66567  0.97093  0.74371  1.0000
  Tb  Tb2       1.0  0.02907  0.69474  0.07704  1.0000
  Tb  Tb3       1.0  0.30526  0.33433  0.41038  1.0000
  Tb  Tb4       1.0  0.97093  0.66567  0.25629  1.0000
  Tb  Tb5       1.0  0.33433  0.30526  0.58962  1.0000
  Tb  Tb6       1.0  0.69474  0.02907  0.92296  1.0000
  O   O1        1.0  0.58020  0.81440  0.67490  1.0000
  O   O2        1.0  0.18560  0.76580  0.00823  1.0000
  O   O3        1.0  0.23420  0.41980  0.34157  1.0000
  O   O4        1.0  0.81440  0.58020  0.32510  1.0000
  O   O5        1.0  0.41980  0.23420  0.65843  1.0000
  O   O6        1.0  0.76580  0.18560  0.99177  1.0000
  O   O7        1.0  0.50920  0.92370  0.67680  1.0000
  O   O8        1.0  0.07630  0.58550  0.01013  1.0000
  O   O9        1.0  0.41450  0.49080  0.34347  1.0000
  O   O10       1.0  0.92370  0.50920  0.32320  1.0000
  O   O11       1.0  0.49080  0.41450  0.65653  1.0000
  O   O12       1.0  0.58550  0.07630  0.98987  1.0000
  O   O13       1.0  0.12110  0.72290  0.32620  1.0000
  O   O14       1.0  0.27710  0.39820  0.65953  1.0000
  O   O15       1.0  0.60180  0.87890  0.99287  1.0000
  O   O16       1.0  0.72290  0.12110  0.67380  1.0000
  O   O17       1.0  0.87890  0.60180  0.00713  1.0000
  O   O18       1.0  0.39820  0.27710  0.34047  1.0000
  O   O19       1.0  0.02990  0.81490  0.33450  1.0000
  O   O20       1.0  0.18510  0.21500  0.66783  1.0000
  O   O21       1.0  0.78500  0.97010  0.00117  1.0000
  O   O22       1.0  0.81490  0.02990  0.66550  1.0000
  O   O23       1.0  0.97010  0.78500  0.99883  1.0000
  O   O24       1.0  0.21500  0.18510  0.33217  1.0000
  O   O25       1.0  0.26870  0.12180  0.55280  1.0000
  O   O26       1.0  0.87820  0.14690  0.88613  1.0000
  O   O27       1.0  0.85310  0.73130  0.21947  1.0000
  O   O28       1.0  0.12180  0.26870  0.44720  1.0000
  O   O29       1.0  0.73130  0.85310  0.78053  1.0000
  O   O30       1.0  0.14690  0.87820  0.11387  1.0000
  O   O31       1.0  0.39720  0.47850  0.54820  1.0000
  O   O32       1.0  0.52150  0.91870  0.88153  1.0000
  O   O33       1.0  0.08130  0.60280  0.21487  1.0000
  O   O34       1.0  0.47850  0.39720  0.45180  1.0000
  O   O35       1.0  0.60280  0.08130  0.78513  1.0000
  O   O36       1.0  0.91870  0.52150  0.11847  1.0000
  O   O37       1.0  0.32320  0.48930  0.46320  1.0000
  O   O38       1.0  0.51070  0.83390  0.79653  1.0000
  O   O39       1.0  0.16610  0.67680  0.12987  1.0000
  O   O40       1.0  0.48930  0.32320  0.53680  1.0000
  O   O41       1.0  0.67680  0.16610  0.87013  1.0000
  O   O42       1.0  0.83390  0.51070  0.20347  1.0000
  O   O43       1.0  0.27680  0.17800  0.46150  1.0000
  O   O44       1.0  0.82200  0.09880  0.79483  1.0000
  O   O45       1.0  0.90120  0.72320  0.12817  1.0000
  O   O46       1.0  0.17800  0.27680  0.53850  1.0000
  O   O47       1.0  0.72320  0.90120  0.87183  1.0000
  O   O48       1.0  0.09880  0.82200  0.20517  1.0000
  C   C1        1.0  0.17100  0.84660  0.40640  1.0000
  C   C2        1.0  0.15340  0.32440  0.73973  1.0000
  C   C3        1.0  0.67560  0.82900  0.07307  1.0000
  C   C4        1.0  0.84660  0.17100  0.59360  1.0000
  C   C5        1.0  0.82900  0.67560  0.92693  1.0000
  C   C6        1.0  0.32440  0.15340  0.26027  1.0000
  C   C7        1.0  0.10090  0.79330  0.35200  1.0000
  C   C8        1.0  0.20670  0.30760  0.68533  1.0000
  C   C9        1.0  0.69240  0.89910  0.01867  1.0000
  C   C10       1.0  0.79330  0.10090  0.64800  1.0000
  C   C11       1.0  0.89910  0.69240  0.98133  1.0000
  C   C12       1.0  0.30760  0.20670  0.31467  1.0000
  C   C13       1.0  0.51610  0.84570  0.65360  1.0000
  C   C14       1.0  0.15430  0.67040  0.98693  1.0000
  C   C15       1.0  0.32960  0.48390  0.32027  1.0000
  C   C16       1.0  0.84570  0.51610  0.34640  1.0000
  C   C17       1.0  0.48390  0.32960  0.67973  1.0000
  C   C18       1.0  0.67040  0.15430  0.01307  1.0000
  C   C19       1.0  0.21820  0.79470  0.43690  1.0000
  C   C20       1.0  0.20530  0.42350  0.77023  1.0000
  C   C21       1.0  0.57650  0.78180  0.10357  1.0000
  C   C22       1.0  0.79470  0.21820  0.56310  1.0000
  C   C23       1.0  0.78180  0.57650  0.89643  1.0000
  C   C24       1.0  0.42350  0.20530  0.22977  1.0000
  H   H1        1.0  0.20820  0.72650  0.42340  1.0000
  H   H2        1.0  0.27350  0.48170  0.75673  1.0000
  H   H3        1.0  0.51830  0.79180  0.09007  1.0000
  H   H4        1.0  0.72650  0.20820  0.57660  1.0000
  H   H5        1.0  0.79180  0.51830  0.90993  1.0000
  H   H6        1.0  0.48170  0.27350  0.24327  1.0000
  C   C25       1.0  0.28110  0.84140  0.48770  1.0000
  C   C26       1.0  0.15860  0.43970  0.82103  1.0000
  C   C27       1.0  0.56030  0.71890  0.15437  1.0000
  C   C28       1.0  0.84140  0.28110  0.51230  1.0000
  C   C29       1.0  0.71890  0.56030  0.84563  1.0000
  C   C30       1.0  0.43970  0.15860  0.17897  1.0000
  C   C31       1.0  0.18310  0.94970  0.42640  1.0000
  C   C32       1.0  0.05030  0.23340  0.75973  1.0000
  C   C33       1.0  0.76660  0.81690  0.09307  1.0000
  C   C34       1.0  0.94970  0.18310  0.57360  1.0000
  C   C35       1.0  0.81690  0.76660  0.90693  1.0000
  C   C36       1.0  0.23340  0.05030  0.24027  1.0000
  H   H7        1.0  0.15160  0.98550  0.40590  1.0000
  H   H8        1.0  0.01450  0.16610  0.73923  1.0000
  H   H9        1.0  0.83390  0.84840  0.07257  1.0000
  H   H10       1.0  0.98550  0.15160  0.59410  1.0000
  H   H11       1.0  0.84840  0.83390  0.92743  1.0000
  H   H12       1.0  0.16610  0.01450  0.26077  1.0000
  C   C37       1.0  0.24320  0.99560  0.47750  1.0000
  C   C38       1.0  0.00440  0.24760  0.81083  1.0000
  C   C39       1.0  0.75240  0.75680  0.14417  1.0000
  C   C40       1.0  0.99560  0.24320  0.52250  1.0000
  C   C41       1.0  0.75680  0.75240  0.85583  1.0000
  C   C42       1.0  0.24760  0.00440  0.18917  1.0000
  C   C43       1.0  0.44820  0.78530  0.60090  1.0000
  C   C44       1.0  0.21470  0.66290  0.93423  1.0000
  C   C45       1.0  0.33710  0.55180  0.26757  1.0000
  C   C46       1.0  0.78530  0.44820  0.39910  1.0000
  C   C47       1.0  0.55180  0.33710  0.73243  1.0000
  C   C48       1.0  0.66290  0.21470  0.06577  1.0000
  C   C49       1.0  0.39640  0.83520  0.57030  1.0000
  C   C50       1.0  0.16480  0.56120  0.90363  1.0000
  C   C51       1.0  0.43880  0.60360  0.23697  1.0000
  C   C52       1.0  0.83520  0.39640  0.42970  1.0000
  C   C53       1.0  0.60360  0.43880  0.76303  1.0000
  C   C54       1.0  0.56120  0.16480  0.09637  1.0000
  H   H13       1.0  0.40380  0.90220  0.58390  1.0000
  H   H14       1.0  0.09780  0.50160  0.91723  1.0000
  H   H15       1.0  0.49840  0.59620  0.25057  1.0000
  H   H16       1.0  0.90220  0.40380  0.41610  1.0000
  H   H17       1.0  0.59620  0.49840  0.74943  1.0000
  H   H18       1.0  0.50160  0.09780  0.08277  1.0000
  C   C55       1.0  0.43510  0.68600  0.58220  1.0000
  C   C56       1.0  0.31400  0.74910  0.91553  1.0000
  C   C57       1.0  0.25090  0.56490  0.24887  1.0000
  C   C58       1.0  0.68600  0.43510  0.41780  1.0000
  C   C59       1.0  0.56490  0.25090  0.75113  1.0000
  C   C60       1.0  0.74910  0.31400  0.08447  1.0000
  H   H19       1.0  0.46790  0.65180  0.60300  1.0000
  H   H20       1.0  0.34820  0.81610  0.93633  1.0000
  H   H21       1.0  0.18390  0.53210  0.26967  1.0000
  H   H22       1.0  0.65180  0.46790  0.39700  1.0000
  H   H23       1.0  0.53210  0.18390  0.73033  1.0000
  H   H24       1.0  0.81610  0.34820  0.06367  1.0000
  C   C61       1.0  0.36290  0.52560  0.51290  1.0000
  C   C62       1.0  0.47440  0.83730  0.84623  1.0000
  C   C63       1.0  0.16270  0.63710  0.17957  1.0000
  C   C64       1.0  0.52560  0.36290  0.48710  1.0000
  C   C65       1.0  0.63710  0.16270  0.82043  1.0000
  C   C66       1.0  0.83730  0.47440  0.15377  1.0000
  C   C67       1.0  0.37400  0.63550  0.53300  1.0000
  C   C68       1.0  0.36450  0.73850  0.86633  1.0000
  C   C69       1.0  0.26150  0.62600  0.19967  1.0000
  C   C70       1.0  0.63550  0.37400  0.46700  1.0000
  C   C71       1.0  0.62600  0.26150  0.80033  1.0000
  C   C72       1.0  0.73850  0.36450  0.13367  1.0000
  C   C73       1.0  0.32430  0.68490  0.50200  1.0000
  C   C74       1.0  0.31510  0.63940  0.83533  1.0000
  C   C75       1.0  0.36060  0.67570  0.16867  1.0000
  C   C76       1.0  0.68490  0.32430  0.49800  1.0000
  C   C77       1.0  0.67570  0.36060  0.83133  1.0000
  C   C78       1.0  0.63940  0.31510  0.16467  1.0000
  H   H25       1.0  0.28340  0.65020  0.46850  1.0000
  H   H26       1.0  0.34980  0.63320  0.80183  1.0000
  H   H27       1.0  0.36680  0.71660  0.13517  1.0000
  H   H28       1.0  0.65020  0.28340  0.53150  1.0000
  H   H29       1.0  0.71660  0.36680  0.86483  1.0000
  H   H30       1.0  0.63320  0.34980  0.19817  1.0000
  C   C79       1.0  0.33450  0.78690  0.52030  1.0000
  C   C80       1.0  0.21310  0.54760  0.85363  1.0000
  C   C81       1.0  0.45240  0.66550  0.18697  1.0000
  C   C82       1.0  0.78690  0.33450  0.47970  1.0000
  C   C83       1.0  0.66550  0.45240  0.81303  1.0000
  C   C84       1.0  0.54760  0.21310  0.14637  1.0000
  C   C85       1.0  0.28690  0.93970  0.50800  1.0000
  C   C86       1.0  0.06030  0.34720  0.84133  1.0000
  C   C87       1.0  0.65280  0.71310  0.17467  1.0000
  C   C88       1.0  0.93970  0.28690  0.49200  1.0000
  C   C89       1.0  0.71310  0.65280  0.82533  1.0000
  C   C90       1.0  0.34720  0.06030  0.15867  1.0000
  H   H31       1.0  0.32190  0.96890  0.54360  1.0000
  H   H32       1.0  0.03110  0.35300  0.87693  1.0000
  H   H33       1.0  0.64700  0.67810  0.21027  1.0000
  H   H34       1.0  0.96890  0.32190  0.45640  1.0000
  H   H35       1.0  0.67810  0.64700  0.78973  1.0000
  H   H36       1.0  0.35300  0.03110  0.12307  1.0000
  C   C91       1.0  0.26370  0.10680  0.49920  1.0000
  C   C92       1.0  0.89320  0.15690  0.83253  1.0000
  C   C93       1.0  0.84310  0.73630  0.16587  1.0000
  C   C94       1.0  0.10680  0.26370  0.50080  1.0000
  C   C95       1.0  0.73630  0.84310  0.83413  1.0000
  C   C96       1.0  0.15690  0.89320  0.16747  1.0000
