data_image0
_chemical_formula_structural       Cd3O24C36H12C12H12
_chemical_formula_sum              "Cd3 O24 C48 H24"
_cell_length_a       13.9227
_cell_length_b       13.9227
_cell_length_c       13.3089
_cell_angle_alpha    90
_cell_angle_beta     90
_cell_angle_gamma    120

_space_group_name_H-M_alt    "P 1"
_space_group_IT_number       1

loop_
  _space_group_symop_operation_xyz
  'x, y, z'

loop_
  _atom_site_type_symbol
  _atom_site_label
  _atom_site_symmetry_multiplicity
  _atom_site_fract_x
  _atom_site_fract_y
  _atom_site_fract_z
  _atom_site_occupancy
  Cd  Cd1       1.0  0.50000  0.00000  0.50000  1.0000
  Cd  Cd2       1.0  0.00000  0.50000  0.16667  1.0000
  Cd  Cd3       1.0  0.50000  0.50000  0.83333  1.0000
  O   O1        1.0  0.41900  0.86210  0.37540  1.0000
  O   O2        1.0  0.13790  0.55690  0.04207  1.0000
  O   O3        1.0  0.44310  0.58100  0.70873  1.0000
  O   O4        1.0  0.58100  0.13790  0.37540  1.0000
  O   O5        1.0  0.86210  0.44310  0.04207  1.0000
  O   O6        1.0  0.55690  0.41900  0.70873  1.0000
  O   O7        1.0  0.86210  0.41900  0.29127  1.0000
  O   O8        1.0  0.55690  0.13790  0.62460  1.0000
  O   O9        1.0  0.58100  0.44310  0.95793  1.0000
  O   O10       1.0  0.13790  0.58100  0.29127  1.0000
  O   O11       1.0  0.44310  0.86210  0.62460  1.0000
  O   O12       1.0  0.41900  0.55690  0.95793  1.0000
  O   O13       1.0  0.59820  0.93160  0.39260  1.0000
  O   O14       1.0  0.06840  0.66660  0.05927  1.0000
  O   O15       1.0  0.33340  0.40180  0.72593  1.0000
  O   O16       1.0  0.40180  0.06840  0.39260  1.0000
  O   O17       1.0  0.93160  0.33340  0.05927  1.0000
  O   O18       1.0  0.66660  0.59820  0.72593  1.0000
  O   O19       1.0  0.93160  0.59820  0.27407  1.0000
  O   O20       1.0  0.66660  0.06840  0.60740  1.0000
  O   O21       1.0  0.40180  0.33340  0.94073  1.0000
  O   O22       1.0  0.06840  0.40180  0.27407  1.0000
  O   O23       1.0  0.33340  0.93160  0.60740  1.0000
  O   O24       1.0  0.59820  0.66660  0.94073  1.0000
  C   C1        1.0  0.50590  0.86950  0.34860  1.0000
  C   C2        1.0  0.13050  0.63640  0.01527  1.0000
  C   C3        1.0  0.36360  0.49410  0.68193  1.0000
  C   C4        1.0  0.49410  0.13050  0.34860  1.0000
  C   C5        1.0  0.86950  0.36360  0.01527  1.0000
  C   C6        1.0  0.63640  0.50590  0.68193  1.0000
  C   C7        1.0  0.86950  0.50590  0.31807  1.0000
  C   C8        1.0  0.63640  0.13050  0.65140  1.0000
  C   C9        1.0  0.49410  0.36360  0.98473  1.0000
  C   C10       1.0  0.13050  0.49410  0.31807  1.0000
  C   C11       1.0  0.36360  0.86950  0.65140  1.0000
  C   C12       1.0  0.50590  0.63640  0.98473  1.0000
  C   C13       1.0  0.50910  0.80860  0.25510  1.0000
  C   C14       1.0  0.19140  0.70050  0.92177  1.0000
  C   C15       1.0  0.29950  0.49090  0.58843  1.0000
  C   C16       1.0  0.49090  0.19140  0.25510  1.0000
  C   C17       1.0  0.80860  0.29950  0.92177  1.0000
  C   C18       1.0  0.70050  0.50910  0.58843  1.0000
  C   C19       1.0  0.80860  0.50910  0.41157  1.0000
  C   C20       1.0  0.70050  0.19140  0.74490  1.0000
  C   C21       1.0  0.49090  0.29950  0.07823  1.0000
  C   C22       1.0  0.19140  0.49090  0.41157  1.0000
  C   C23       1.0  0.29950  0.80860  0.74490  1.0000
  C   C24       1.0  0.50910  0.70050  0.07823  1.0000
  C   C25       1.0  0.41000  0.73290  0.21020  1.0000
  C   C26       1.0  0.26710  0.67710  0.87687  1.0000
  C   C27       1.0  0.32290  0.59000  0.54353  1.0000
  C   C28       1.0  0.59000  0.26710  0.21020  1.0000
  C   C29       1.0  0.73290  0.32290  0.87687  1.0000
  C   C30       1.0  0.67710  0.41000  0.54353  1.0000
  C   C31       1.0  0.73290  0.41000  0.45647  1.0000
  C   C32       1.0  0.67710  0.26710  0.78980  1.0000
  C   C33       1.0  0.59000  0.32290  0.12313  1.0000
  C   C34       1.0  0.26710  0.59000  0.45647  1.0000
  C   C35       1.0  0.32290  0.73290  0.78980  1.0000
  C   C36       1.0  0.41000  0.67710  0.12313  1.0000
  H   H1        1.0  0.34310  0.71920  0.23820  1.0000
  H   H2        1.0  0.28080  0.62390  0.90487  1.0000
  H   H3        1.0  0.37610  0.65690  0.57153  1.0000
  H   H4        1.0  0.65690  0.28080  0.23820  1.0000
  H   H5        1.0  0.71920  0.37610  0.90487  1.0000
  H   H6        1.0  0.62390  0.34310  0.57153  1.0000
  H   H7        1.0  0.71920  0.34310  0.42847  1.0000
  H   H8        1.0  0.62390  0.28080  0.76180  1.0000
  H   H9        1.0  0.65690  0.37610  0.09513  1.0000
  H   H10       1.0  0.28080  0.65690  0.42847  1.0000
  H   H11       1.0  0.37610  0.71920  0.76180  1.0000
  H   H12       1.0  0.34310  0.62390  0.09513  1.0000
  C   C37       1.0  0.60920  0.82960  0.21080  1.0000
  C   C38       1.0  0.17040  0.77960  0.87747  1.0000
  C   C39       1.0  0.22040  0.39080  0.54413  1.0000
  C   C40       1.0  0.39080  0.17040  0.21080  1.0000
  C   C41       1.0  0.82960  0.22040  0.87747  1.0000
  C   C42       1.0  0.77960  0.60920  0.54413  1.0000
  C   C43       1.0  0.82960  0.60920  0.45587  1.0000
  C   C44       1.0  0.77960  0.17040  0.78920  1.0000
  C   C45       1.0  0.39080  0.22040  0.12253  1.0000
  C   C46       1.0  0.17040  0.39080  0.45587  1.0000
  C   C47       1.0  0.22040  0.82960  0.78920  1.0000
  C   C48       1.0  0.60920  0.77960  0.12253  1.0000
  H   H13       1.0  0.67620  0.87800  0.24190  1.0000
  H   H14       1.0  0.12200  0.79820  0.90857  1.0000
  H   H15       1.0  0.20180  0.32380  0.57523  1.0000
  H   H16       1.0  0.32380  0.12200  0.24190  1.0000
  H   H17       1.0  0.87800  0.20180  0.90857  1.0000
  H   H18       1.0  0.79820  0.67620  0.57523  1.0000
  H   H19       1.0  0.87800  0.67620  0.42477  1.0000
  H   H20       1.0  0.79820  0.12200  0.75810  1.0000
  H   H21       1.0  0.32380  0.20180  0.09143  1.0000
  H   H22       1.0  0.12200  0.32380  0.42477  1.0000
  H   H23       1.0  0.20180  0.87800  0.75810  1.0000
  H   H24       1.0  0.67620  0.79820  0.09143  1.0000
