data_image0
_chemical_formula_structural       Cd8Br8O32C16H8C16H8C16H8C16H8
_chemical_formula_sum              "Cd8 Br8 O32 C64 H32"
_cell_length_a       13.0306
_cell_length_b       15.5816
_cell_length_c       15.3792
_cell_angle_alpha    90
_cell_angle_beta     112.927
_cell_angle_gamma    90

_space_group_name_H-M_alt    "P 1"
_space_group_IT_number       1

loop_
  _space_group_symop_operation_xyz
  'x, y, z'

loop_
  _atom_site_type_symbol
  _atom_site_label
  _atom_site_symmetry_multiplicity
  _atom_site_fract_x
  _atom_site_fract_y
  _atom_site_fract_z
  _atom_site_occupancy
  Cd  Cd1       1.0  0.50000  0.49903  0.25000  1.0000
  Cd  Cd2       1.0  0.00000  0.99903  0.25000  1.0000
  Cd  Cd3       1.0  0.50000  0.50097  0.75000  1.0000
  Cd  Cd4       1.0  0.00000  0.00097  0.75000  1.0000
  Cd  Cd5       1.0  0.50000  0.25873  0.25000  1.0000
  Cd  Cd6       1.0  0.00000  0.75873  0.25000  1.0000
  Cd  Cd7       1.0  0.50000  0.74127  0.75000  1.0000
  Cd  Cd8       1.0  0.00000  0.24127  0.75000  1.0000
  Br  Br1       1.0  0.35460  0.37882  0.24814  1.0000
  Br  Br2       1.0  0.64540  0.37882  0.25186  1.0000
  Br  Br3       1.0  0.85460  0.87882  0.24814  1.0000
  Br  Br4       1.0  0.14540  0.87882  0.25186  1.0000
  Br  Br5       1.0  0.64540  0.62118  0.75186  1.0000
  Br  Br6       1.0  0.35460  0.62118  0.74814  1.0000
  Br  Br7       1.0  0.14540  0.12118  0.75186  1.0000
  Br  Br8       1.0  0.85460  0.12118  0.74814  1.0000
  O   O1        1.0  0.57110  0.56490  0.39380  1.0000
  O   O2        1.0  0.42890  0.56490  0.10620  1.0000
  O   O3        1.0  0.07110  0.06490  0.39380  1.0000
  O   O4        1.0  0.92890  0.06490  0.10620  1.0000
  O   O5        1.0  0.42890  0.43510  0.60620  1.0000
  O   O6        1.0  0.57110  0.43510  0.89380  1.0000
  O   O7        1.0  0.92890  0.93510  0.60620  1.0000
  O   O8        1.0  0.07110  0.93510  0.89380  1.0000
  O   O9        1.0  0.64020  0.60930  0.29160  1.0000
  O   O10       1.0  0.35980  0.60930  0.20840  1.0000
  O   O11       1.0  0.14020  0.10930  0.29160  1.0000
  O   O12       1.0  0.85980  0.10930  0.20840  1.0000
  O   O13       1.0  0.35980  0.39070  0.70840  1.0000
  O   O14       1.0  0.64020  0.39070  0.79160  1.0000
  O   O15       1.0  0.85980  0.89070  0.70840  1.0000
  O   O16       1.0  0.14020  0.89070  0.79160  1.0000
  O   O17       1.0  0.58330  0.18590  0.39390  1.0000
  O   O18       1.0  0.41670  0.18590  0.10610  1.0000
  O   O19       1.0  0.08330  0.68590  0.39390  1.0000
  O   O20       1.0  0.91670  0.68590  0.10610  1.0000
  O   O21       1.0  0.41670  0.81410  0.60610  1.0000
  O   O22       1.0  0.58330  0.81410  0.89390  1.0000
  O   O23       1.0  0.91670  0.31410  0.60610  1.0000
  O   O24       1.0  0.08330  0.31410  0.89390  1.0000
  O   O25       1.0  0.41130  0.15150  0.30210  1.0000
  O   O26       1.0  0.58870  0.15150  0.19790  1.0000
  O   O27       1.0  0.91130  0.65150  0.30210  1.0000
  O   O28       1.0  0.08870  0.65150  0.19790  1.0000
  O   O29       1.0  0.58870  0.84850  0.69790  1.0000
  O   O30       1.0  0.41130  0.84850  0.80210  1.0000
  O   O31       1.0  0.08870  0.34850  0.69790  1.0000
  O   O32       1.0  0.91130  0.34850  0.80210  1.0000
  C   C1        1.0  0.63190  0.61480  0.37050  1.0000
  C   C2        1.0  0.36810  0.61480  0.12950  1.0000
  C   C3        1.0  0.13190  0.11480  0.37050  1.0000
  C   C4        1.0  0.86810  0.11480  0.12950  1.0000
  C   C5        1.0  0.36810  0.38520  0.62950  1.0000
  C   C6        1.0  0.63190  0.38520  0.87050  1.0000
  C   C7        1.0  0.86810  0.88520  0.62950  1.0000
  C   C8        1.0  0.13190  0.88520  0.87050  1.0000
  C   C9        1.0  0.67900  0.69670  0.52200  1.0000
  C   C10       1.0  0.32100  0.69670  0.97800  1.0000
  C   C11       1.0  0.17900  0.19670  0.52200  1.0000
  C   C12       1.0  0.82100  0.19670  0.97800  1.0000
  C   C13       1.0  0.32100  0.30330  0.47800  1.0000
  C   C14       1.0  0.67900  0.30330  0.02200  1.0000
  C   C15       1.0  0.82100  0.80330  0.47800  1.0000
  C   C16       1.0  0.17900  0.80330  0.02200  1.0000
  H   H1        1.0  0.63020  0.66000  0.53730  1.0000
  H   H2        1.0  0.36980  0.66000  0.96270  1.0000
  H   H3        1.0  0.13020  0.16000  0.53730  1.0000
  H   H4        1.0  0.86980  0.16000  0.96270  1.0000
  H   H5        1.0  0.36980  0.34000  0.46270  1.0000
  H   H6        1.0  0.63020  0.34000  0.03730  1.0000
  H   H7        1.0  0.86980  0.84000  0.46270  1.0000
  H   H8        1.0  0.13020  0.84000  0.03730  1.0000
  C   C17       1.0  0.69440  0.68400  0.43840  1.0000
  C   C18       1.0  0.30560  0.68400  0.06160  1.0000
  C   C19       1.0  0.19440  0.18400  0.43840  1.0000
  C   C20       1.0  0.80560  0.18400  0.06160  1.0000
  C   C21       1.0  0.30560  0.31600  0.56160  1.0000
  C   C22       1.0  0.69440  0.31600  0.93840  1.0000
  C   C23       1.0  0.80560  0.81600  0.56160  1.0000
  C   C24       1.0  0.19440  0.81600  0.93840  1.0000
  C   C25       1.0  0.76650  0.73840  0.41710  1.0000
  C   C26       1.0  0.23350  0.73840  0.08290  1.0000
  C   C27       1.0  0.26650  0.23840  0.41710  1.0000
  C   C28       1.0  0.73350  0.23840  0.08290  1.0000
  C   C29       1.0  0.23350  0.26160  0.58290  1.0000
  C   C30       1.0  0.76650  0.26160  0.91710  1.0000
  C   C31       1.0  0.73350  0.76160  0.58290  1.0000
  C   C32       1.0  0.26650  0.76160  0.91710  1.0000
  H   H9        1.0  0.77800  0.73050  0.36030  1.0000
  H   H10       1.0  0.22200  0.73050  0.13970  1.0000
  H   H11       1.0  0.27800  0.23050  0.36030  1.0000
  H   H12       1.0  0.72200  0.23050  0.13970  1.0000
  H   H13       1.0  0.22200  0.26950  0.63970  1.0000
  H   H14       1.0  0.77800  0.26950  0.86030  1.0000
  H   H15       1.0  0.72200  0.76950  0.63970  1.0000
  H   H16       1.0  0.27800  0.76950  0.86030  1.0000
  C   C33       1.0  0.49790  0.14020  0.37590  1.0000
  C   C34       1.0  0.50210  0.14020  0.12410  1.0000
  C   C35       1.0  0.99790  0.64020  0.37590  1.0000
  C   C36       1.0  0.00210  0.64020  0.12410  1.0000
  C   C37       1.0  0.50210  0.85980  0.62410  1.0000
  C   C38       1.0  0.49790  0.85980  0.87590  1.0000
  C   C39       1.0  0.00210  0.35980  0.62410  1.0000
  C   C40       1.0  0.99790  0.35980  0.87590  1.0000
  C   C41       1.0  0.59360  0.05150  0.52190  1.0000
  C   C42       1.0  0.40640  0.05150  0.97810  1.0000
  C   C43       1.0  0.09360  0.55150  0.52190  1.0000
  C   C44       1.0  0.90640  0.55150  0.97810  1.0000
  C   C45       1.0  0.40640  0.94850  0.47810  1.0000
  C   C46       1.0  0.59360  0.94850  0.02190  1.0000
  C   C47       1.0  0.90640  0.44850  0.47810  1.0000
  C   C48       1.0  0.09360  0.44850  0.02190  1.0000
  H   H17       1.0  0.65760  0.08670  0.53660  1.0000
  H   H18       1.0  0.34240  0.08670  0.96340  1.0000
  H   H19       1.0  0.15760  0.58670  0.53660  1.0000
  H   H20       1.0  0.84240  0.58670  0.96340  1.0000
  H   H21       1.0  0.34240  0.91330  0.46340  1.0000
  H   H22       1.0  0.65760  0.91330  0.03660  1.0000
  H   H23       1.0  0.84240  0.41330  0.46340  1.0000
  H   H24       1.0  0.15760  0.41330  0.03660  1.0000
  C   C49       1.0  0.49790  0.06860  0.44140  1.0000
  C   C50       1.0  0.50210  0.06860  0.05860  1.0000
  C   C51       1.0  0.99790  0.56860  0.44140  1.0000
  C   C52       1.0  0.00210  0.56860  0.05860  1.0000
  C   C53       1.0  0.50210  0.93140  0.55860  1.0000
  C   C54       1.0  0.49790  0.93140  0.94140  1.0000
  C   C55       1.0  0.00210  0.43140  0.55860  1.0000
  C   C56       1.0  0.99790  0.43140  0.94140  1.0000
  C   C57       1.0  0.40470  0.01630  0.42010  1.0000
  C   C58       1.0  0.59530  0.01630  0.07990  1.0000
  C   C59       1.0  0.90470  0.51630  0.42010  1.0000
  C   C60       1.0  0.09530  0.51630  0.07990  1.0000
  C   C61       1.0  0.59530  0.98370  0.57990  1.0000
  C   C62       1.0  0.40470  0.98370  0.92010  1.0000
  C   C63       1.0  0.09530  0.48370  0.57990  1.0000
  C   C64       1.0  0.90470  0.48370  0.92010  1.0000
  H   H25       1.0  0.33960  0.02740  0.36530  1.0000
  H   H26       1.0  0.66040  0.02740  0.13470  1.0000
  H   H27       1.0  0.83960  0.52740  0.36530  1.0000
  H   H28       1.0  0.16040  0.52740  0.13470  1.0000
  H   H29       1.0  0.66040  0.97260  0.63470  1.0000
  H   H30       1.0  0.33960  0.97260  0.86530  1.0000
  H   H31       1.0  0.16040  0.47260  0.63470  1.0000
  H   H32       1.0  0.83960  0.47260  0.86530  1.0000
