data_image0
_chemical_formula_structural       Ca5O20N4O2C2N2C2N2C2N2O2C2N2C2H2C8H2C4H2C2H2C4H2C2O2C2H2C2H2C4H2C12H2C8H2C2H2C2H2C4H2C2H2C6H2C2H2C2H2C4H2C2H2C2H2C2H2O2C2H2C4H2C2H2C2N2C2H6N2C2H6C2H6C4H6C2H6C2H6
_chemical_formula_sum              "Ca5 O28 N16 C112 H84"
_cell_length_a       17.0339
_cell_length_b       17.1196
_cell_length_c       17.9227
_cell_angle_alpha    90.805
_cell_angle_beta     116.455
_cell_angle_gamma    117.979

_space_group_name_H-M_alt    "P 1"
_space_group_IT_number       1

loop_
  _space_group_symop_operation_xyz
  'x, y, z'

loop_
  _atom_site_type_symbol
  _atom_site_label
  _atom_site_symmetry_multiplicity
  _atom_site_fract_x
  _atom_site_fract_y
  _atom_site_fract_z
  _atom_site_occupancy
  Ca  Ca1       1.0  0.50000  0.50000  1.00000  1.0000
  Ca  Ca2       1.0  0.77881  0.61973  0.12899  1.0000
  Ca  Ca3       1.0  0.22119  0.38027  0.87101  1.0000
  Ca  Ca4       1.0  0.95048  0.84919  0.28418  1.0000
  Ca  Ca5       1.0  0.04952  0.15081  0.71582  1.0000
  O   O1        1.0  0.36685  0.35556  0.90531  1.0000
  O   O2        1.0  0.63315  0.64444  0.09469  1.0000
  O   O3        1.0  0.04996  0.23200  0.82342  1.0000
  O   O4        1.0  0.95004  0.76800  0.17658  1.0000
  O   O5        1.0  0.62288  0.52186  0.96697  1.0000
  O   O6        1.0  0.37712  0.47814  0.03303  1.0000
  O   O7        1.0  0.21836  0.22307  0.84706  1.0000
  O   O8        1.0  0.78164  0.77693  0.15294  1.0000
  O   O9        1.0  0.40460  0.54034  0.88975  1.0000
  O   O10       1.0  0.59540  0.45966  0.11025  1.0000
  O   O11       1.0  0.76636  0.64687  0.99188  1.0000
  O   O12       1.0  0.23364  0.35313  0.00812  1.0000
  O   O13       1.0  0.06034  0.36329  0.85127  1.0000
  O   O14       1.0  0.93966  0.63671  0.14873  1.0000
  O   O15       1.0  0.83910  0.67479  0.27374  1.0000
  O   O16       1.0  0.16090  0.32521  0.72626  1.0000
  O   O17       1.0  0.26071  0.53126  0.86356  1.0000
  O   O18       1.0  0.73929  0.46874  0.13644  1.0000
  O   O19       1.0  0.00278  0.97797  0.23900  1.0000
  O   O20       1.0  0.99722  0.02203  0.76100  1.0000
  N   N1        1.0  0.60607  0.99237  0.85390  1.0000
  N   N2        1.0  0.39393  0.00763  0.14610  1.0000
  N   N3        1.0  0.47000  0.99194  0.86130  1.0000
  N   N4        1.0  0.53000  0.00806  0.13870  1.0000
  O   O21       1.0  0.12494  0.89942  0.36860  1.0000
  O   O22       1.0  0.87506  0.10058  0.63140  1.0000
  C   C1        1.0  0.68250  0.57419  0.94177  1.0000
  C   C2        1.0  0.31750  0.42581  0.05823  1.0000
  N   N5        1.0  0.59980  0.12807  0.85790  1.0000
  N   N6        1.0  0.40020  0.87193  0.14210  1.0000
  C   C3        1.0  0.36677  0.22064  0.87315  1.0000
  C   C4        1.0  0.63323  0.77936  0.12685  1.0000
  N   N7        1.0  0.47630  0.37966  0.53499  1.0000
  N   N8        1.0  0.52370  0.62034  0.46501  1.0000
  C   C5        1.0  0.31385  0.26899  0.87522  1.0000
  C   C6        1.0  0.68615  0.73101  0.12478  1.0000
  N   N9        1.0  0.51880  0.39705  0.42453  1.0000
  N   N10       1.0  0.48120  0.60295  0.57547  1.0000
  O   O23       1.0  0.03190  0.01931  0.13352  1.0000
  O   O24       1.0  0.96810  0.98069  0.86648  1.0000
  C   C7        1.0  0.01540  0.27838  0.83757  1.0000
  C   C8        1.0  0.98460  0.72162  0.16243  1.0000
  N   N11       1.0  0.63860  0.50511  0.56429  1.0000
  N   N12       1.0  0.36140  0.49489  0.43571  1.0000
  C   C9        1.0  0.46970  0.27045  0.89489  1.0000
  C   C10       1.0  0.53030  0.72955  0.10511  1.0000
  H   H1        1.0  0.50749  0.33592  0.91287  1.0000
  H   H2        1.0  0.49251  0.66408  0.08713  1.0000
  C   C11       1.0  0.46320  0.12929  0.86580  1.0000
  C   C12       1.0  0.53680  0.87071  0.13420  1.0000
  C   C13       1.0  0.65160  0.54437  0.84901  1.0000
  C   C14       1.0  0.34840  0.45563  0.15099  1.0000
  C   C15       1.0  0.47600  0.85441  0.86120  1.0000
  C   C16       1.0  0.52400  0.14559  0.13880  1.0000
  C   C17       1.0  0.51720  0.22492  0.89040  1.0000
  C   C18       1.0  0.48280  0.77508  0.10960  1.0000
  H   H3        1.0  0.58721  0.25934  0.90428  1.0000
  H   H4        1.0  0.41279  0.74066  0.09572  1.0000
  C   C19       1.0  0.39300  0.67205  0.86830  1.0000
  C   C20       1.0  0.60700  0.32795  0.13170  1.0000
  C   C21       1.0  0.77170  0.08318  0.82150  1.0000
  C   C22       1.0  0.22830  0.91682  0.17850  1.0000
  H   H5        1.0  0.73439  0.01774  0.80651  1.0000
  H   H6        1.0  0.26561  0.98226  0.19349  1.0000
  C   C23       1.0  0.48550  0.71885  0.86890  1.0000
  C   C24       1.0  0.51450  0.28115  0.13110  1.0000
  H   H7        1.0  0.52136  0.68876  0.87259  1.0000
  H   H8        1.0  0.47864  0.31124  0.12741  1.0000
  C   C25       1.0  0.35010  0.57477  0.87490  1.0000
  C   C26       1.0  0.64990  0.42523  0.12510  1.0000
  C   C27       1.0  0.86050  0.13079  0.81670  1.0000
  C   C28       1.0  0.13950  0.86921  0.18330  1.0000
  H   H9        1.0  0.88317  0.09769  0.79778  1.0000
  H   H10       1.0  0.11683  0.90231  0.20222  1.0000
  C   C29       1.0  0.51990  0.95169  0.85830  1.0000
  C   C30       1.0  0.48010  0.04831  0.14170  1.0000
  O   O25       1.0  0.94780  0.77420  0.40107  1.0000
  O   O26       1.0  0.05220  0.22580  0.59893  1.0000
  C   C31       1.0  0.31200  0.12467  0.84800  1.0000
  C   C32       1.0  0.68800  0.87533  0.15200  1.0000
  H   H11       1.0  0.24171  0.09043  0.83318  1.0000
  H   H12       1.0  0.75829  0.90957  0.16682  1.0000
  C   C33       1.0  0.55260  0.47250  0.78911  1.0000
  C   C34       1.0  0.44740  0.52750  0.21089  1.0000
  H   H13       1.0  0.50296  0.44282  0.80637  1.0000
  H   H14       1.0  0.49704  0.55718  0.19363  1.0000
  C   C35       1.0  0.91610  0.22587  0.83910  1.0000
  C   C36       1.0  0.08390  0.77413  0.16090  1.0000
  C   C37       1.0  0.52610  0.80870  0.86430  1.0000
  C   C38       1.0  0.47390  0.19130  0.13570  1.0000
  H   H15       1.0  0.58861  0.83939  0.86326  1.0000
  H   H16       1.0  0.41139  0.16061  0.13674  1.0000
  C   C39       1.0  0.64190  0.08052  0.85320  1.0000
  C   C40       1.0  0.35810  0.91948  0.14680  1.0000
  C   C41       1.0  0.59760  0.48730  0.67798  1.0000
  C   C42       1.0  0.40240  0.51270  0.32202  1.0000
  C   C43       1.0  0.16080  0.11524  0.27550  1.0000
  C   C44       1.0  0.83920  0.88476  0.72450  1.0000
  C   C45       1.0  0.73730  0.13054  0.84820  1.0000
  C   C46       1.0  0.26270  0.86946  0.15180  1.0000
  C   C47       1.0  0.51340  0.08017  0.86100  1.0000
  C   C48       1.0  0.48660  0.91983  0.13900  1.0000
  C   C49       1.0  0.72300  0.58760  0.82236  1.0000
  C   C50       1.0  0.27700  0.41240  0.17764  1.0000
  H   H17       1.0  0.79100  0.63722  0.86311  1.0000
  H   H18       1.0  0.20900  0.36278  0.13689  1.0000
  C   C51       1.0  0.60880  0.47360  0.48161  1.0000
  C   C52       1.0  0.39120  0.52640  0.51839  1.0000
  C   C53       1.0  0.56970  0.45550  0.58740  1.0000
  C   C54       1.0  0.43030  0.54450  0.41260  1.0000
  C   C55       1.0  0.35360  0.27040  0.39267  1.0000
  C   C56       1.0  0.64640  0.72960  0.60733  1.0000
  C   C57       1.0  0.35950  0.07914  0.84440  1.0000
  C   C58       1.0  0.64050  0.92086  0.15560  1.0000
  H   H19       1.0  0.32196  0.01366  0.82748  1.0000
  H   H20       1.0  0.67804  0.98634  0.17252  1.0000
  C   C59       1.0  0.52550  0.44380  0.70421  1.0000
  C   C60       1.0  0.47450  0.55620  0.29579  1.0000
  H   H21       1.0  0.45750  0.39424  0.66347  1.0000
  H   H22       1.0  0.54250  0.60576  0.33653  1.0000
  C   C61       1.0  0.69660  0.55960  0.73800  1.0000
  C   C62       1.0  0.30340  0.44040  0.26200  1.0000
  H   H23       1.0  0.74625  0.58982  0.72087  1.0000
  H   H24       1.0  0.25375  0.41018  0.27913  1.0000
  C   C63       1.0  0.45590  0.35340  0.45430  1.0000
  C   C64       1.0  0.54410  0.64660  0.54570  1.0000
  C   C65       1.0  0.18710  0.14420  0.35980  1.0000
  C   C66       1.0  0.81290  0.85580  0.64020  1.0000
  H   H25       1.0  0.13930  0.11090  0.37812  1.0000
  H   H26       1.0  0.86070  0.88910  0.62188  1.0000
  C   C67       1.0  0.65380  0.49820  0.36570  1.0000
  C   C68       1.0  0.34620  0.50180  0.63430  1.0000
  H   H27       1.0  0.59381  0.43960  0.32936  1.0000
  H   H28       1.0  0.40619  0.56040  0.67064  1.0000
  C   C69       1.0  0.05630  0.03130  0.21140  1.0000
  C   C70       1.0  0.94370  0.96870  0.78860  1.0000
  C   C71       1.0  0.67920  0.52870  0.45010  1.0000
  C   C72       1.0  0.32080  0.47130  0.54990  1.0000
  C   C73       1.0  0.23200  0.16320  0.25090  1.0000
  C   C74       1.0  0.76800  0.83680  0.74910  1.0000
  H   H29       1.0  0.21496  0.14307  0.19317  1.0000
  H   H30       1.0  0.78504  0.85693  0.80683  1.0000
  C   C75       1.0  0.38250  0.80710  0.85910  1.0000
  C   C76       1.0  0.61750  0.19290  0.14090  1.0000
  H   H31       1.0  0.34645  0.83693  0.85546  1.0000
  H   H32       1.0  0.65355  0.16307  0.14454  1.0000
  C   C77       1.0  0.71520  0.55260  0.33430  1.0000
  C   C78       1.0  0.28480  0.44740  0.66570  1.0000
  H   H33       1.0  0.69643  0.53176  0.27612  1.0000
  H   H34       1.0  0.30357  0.46824  0.72388  1.0000
  C   C79       1.0  0.86800  0.69910  0.35140  1.0000
  C   C80       1.0  0.13200  0.30090  0.64860  1.0000
  C   C81       1.0  0.28260  0.22150  0.41810  1.0000
  C   C82       1.0  0.71740  0.77850  0.58190  1.0000
  H   H35       1.0  0.29958  0.24121  0.47591  1.0000
  H   H36       1.0  0.70042  0.75879  0.52409  1.0000
  C   C83       1.0  0.79290  0.22590  0.86990  1.0000
  C   C84       1.0  0.20710  0.77410  0.13010  1.0000
  H   H37       1.0  0.76958  0.25911  0.88771  1.0000
  H   H38       1.0  0.23042  0.74089  0.11229  1.0000
  C   C85       1.0  0.88250  0.27350  0.86610  1.0000
  C   C86       1.0  0.11750  0.72650  0.13390  1.0000
  H   H39       1.0  0.92066  0.33896  0.88205  1.0000
  H   H40       1.0  0.07934  0.66104  0.11795  1.0000
  C   C87       1.0  0.34140  0.71580  0.86230  1.0000
  C   C88       1.0  0.65860  0.28420  0.13770  1.0000
  H   H41       1.0  0.27707  0.68367  0.86025  1.0000
  H   H42       1.0  0.72293  0.31633  0.13975  1.0000
  O   O27       1.0  0.89330  0.91100  0.34520  1.0000
  O   O28       1.0  0.10670  0.08900  0.65480  1.0000
  C   C89       1.0  0.32730  0.23980  0.30830  1.0000
  C   C90       1.0  0.67270  0.76020  0.69170  1.0000
  H   H43       1.0  0.37533  0.27189  0.29000  1.0000
  H   H44       1.0  0.62467  0.72811  0.71000  1.0000
  C   C91       1.0  0.80350  0.63690  0.38680  1.0000
  C   C92       1.0  0.19650  0.36310  0.61320  1.0000
  C   C93       1.0  0.76800  0.61290  0.50280  1.0000
  C   C94       1.0  0.23200  0.38710  0.49720  1.0000
  H   H45       1.0  0.78679  0.63431  0.56082  1.0000
  H   H46       1.0  0.21321  0.36569  0.43918  1.0000
  C   C95       1.0  0.82940  0.66580  0.47110  1.0000
  C   C96       1.0  0.17060  0.33420  0.52890  1.0000
  H   H47       1.0  0.89087  0.72345  0.50802  1.0000
  H   H48       1.0  0.10913  0.27655  0.49198  1.0000
  C   C97       1.0  0.19100  0.87750  0.38710  1.0000
  C   C98       1.0  0.80900  0.12250  0.61290  1.0000
  N   N13       1.0  0.80560  0.92910  0.39370  1.0000
  N   N14       1.0  0.19440  0.07090  0.60630  1.0000
  C   C99       1.0  0.14980  0.76870  0.38470  1.0000
  C   C100      1.0  0.85020  0.23130  0.61530  1.0000
  H   H49       1.0  0.08192  0.73885  0.37995  1.0000
  H   H50       1.0  0.91808  0.26115  0.62005  1.0000
  H   H51       1.0  0.19902  0.76508  0.43820  1.0000
  H   H52       1.0  0.80098  0.23492  0.56180  1.0000
  H   H53       1.0  0.14373  0.73728  0.33453  1.0000
  H   H54       1.0  0.85627  0.26272  0.66547  1.0000
  N   N15       1.0  0.28010  0.92030  0.40940  1.0000
  N   N16       1.0  0.71990  0.07970  0.59060  1.0000
  C   C101      1.0  0.31550  0.01370  0.41230  1.0000
  C   C102      1.0  0.68450  0.98630  0.58770  1.0000
  H   H55       1.0  0.33801  0.02893  0.36995  1.0000
  H   H56       1.0  0.66199  0.97107  0.63005  1.0000
  H   H57       1.0  0.37383  0.05277  0.47066  1.0000
  H   H58       1.0  0.62617  0.94723  0.52934  1.0000
  H   H59       1.0  0.25934  0.02425  0.39814  1.0000
  H   H60       1.0  0.74066  0.97575  0.60186  1.0000
  C   C103      1.0  0.72590  0.81630  0.35800  1.0000
  C   C104      1.0  0.27410  0.18370  0.64200  1.0000
  H   H61       1.0  0.65641  0.80102  0.31439  1.0000
  H   H62       1.0  0.34359  0.19898  0.68561  1.0000
  H   H63       1.0  0.72372  0.79179  0.40663  1.0000
  H   H64       1.0  0.27628  0.20821  0.59337  1.0000
  H   H65       1.0  0.75019  0.78888  0.33183  1.0000
  H   H66       1.0  0.24981  0.21112  0.66817  1.0000
  C   C105      1.0  0.86820  0.95110  0.37740  1.0000
  C   C106      1.0  0.13180  0.04890  0.62260  1.0000
  C   C107      1.0  0.93660  0.06360  0.40490  1.0000
  C   C108      1.0  0.06340  0.93640  0.59510  1.0000
  H   H67       1.0  0.99537  0.08419  0.39621  1.0000
  H   H68       1.0  0.00463  0.91581  0.60379  1.0000
  H   H69       1.0  0.96224  0.08804  0.46622  1.0000
  H   H70       1.0  0.03776  0.91196  0.53378  1.0000
  H   H71       1.0  0.89331  0.08619  0.36889  1.0000
  H   H72       1.0  0.10669  0.91381  0.63111  1.0000
  C   C109      1.0  0.77070  0.96990  0.43440  1.0000
  C   C110      1.0  0.22930  0.03010  0.56560  1.0000
  H   H73       1.0  0.70516  0.92150  0.42791  1.0000
  H   H74       1.0  0.29484  0.07850  0.57209  1.0000
  H   H75       1.0  0.76061  0.01575  0.40623  1.0000
  H   H76       1.0  0.23939  0.98425  0.59377  1.0000
  H   H77       1.0  0.82289  0.99979  0.49622  1.0000
  H   H78       1.0  0.17711  0.00021  0.50378  1.0000
  C   C111      1.0  0.34070  0.87340  0.41870  1.0000
  C   C112      1.0  0.65930  0.12660  0.58130  1.0000
  H   H79       1.0  0.29421  0.80644  0.40252  1.0000
  H   H80       1.0  0.70579  0.19356  0.59748  1.0000
  H   H81       1.0  0.39721  0.89502  0.47908  1.0000
  H   H82       1.0  0.60279  0.10498  0.52092  1.0000
  H   H83       1.0  0.36942  0.88894  0.38048  1.0000
  H   H84       1.0  0.63058  0.11106  0.61952  1.0000
