data_image0
_chemical_formula_structural       Cu18O126N18C36H18C36H18C36H18C72H18C36H18C18H18C18
_chemical_formula_sum              "Cu18 O126 N18 C252 H108"
_cell_length_a       18.0487
_cell_length_b       18.0487
_cell_length_c       36.3959
_cell_angle_alpha    90
_cell_angle_beta     90
_cell_angle_gamma    120

_space_group_name_H-M_alt    "P 1"
_space_group_IT_number       1

loop_
  _space_group_symop_operation_xyz
  'x, y, z'

loop_
  _atom_site_type_symbol
  _atom_site_label
  _atom_site_symmetry_multiplicity
  _atom_site_fract_x
  _atom_site_fract_y
  _atom_site_fract_z
  _atom_site_occupancy
  Cu  Cu1       1.0  0.83246  0.11213  0.69476  1.0000
  Cu  Cu2       1.0  0.88787  0.72033  0.69476  1.0000
  Cu  Cu3       1.0  0.27967  0.16754  0.69476  1.0000
  Cu  Cu4       1.0  0.11213  0.83246  0.30524  1.0000
  Cu  Cu5       1.0  0.72033  0.88787  0.30524  1.0000
  Cu  Cu6       1.0  0.16754  0.27967  0.30524  1.0000
  Cu  Cu7       1.0  0.49913  0.44546  0.02809  1.0000
  Cu  Cu8       1.0  0.55454  0.05366  0.02809  1.0000
  Cu  Cu9       1.0  0.94634  0.50087  0.02809  1.0000
  Cu  Cu10      1.0  0.77880  0.16579  0.63857  1.0000
  Cu  Cu11      1.0  0.38700  0.22120  0.63857  1.0000
  Cu  Cu12      1.0  0.83421  0.61300  0.63857  1.0000
  Cu  Cu13      1.0  0.16579  0.77880  0.36143  1.0000
  Cu  Cu14      1.0  0.22120  0.38700  0.36143  1.0000
  Cu  Cu15      1.0  0.61300  0.83421  0.36143  1.0000
  Cu  Cu16      1.0  0.44546  0.49913  0.97191  1.0000
  Cu  Cu17      1.0  0.05366  0.55454  0.97191  1.0000
  Cu  Cu18      1.0  0.50087  0.94634  0.97191  1.0000
  O   O1        1.0  0.75103  0.05369  0.61666  1.0000
  O   O2        1.0  0.94631  0.69734  0.61666  1.0000
  O   O3        1.0  0.30266  0.24897  0.61666  1.0000
  O   O4        1.0  0.05369  0.75103  0.38334  1.0000
  O   O5        1.0  0.69734  0.94631  0.38334  1.0000
  O   O6        1.0  0.24897  0.30266  0.38334  1.0000
  O   O7        1.0  0.41770  0.38702  0.94999  1.0000
  O   O8        1.0  0.61298  0.03067  0.94999  1.0000
  O   O9        1.0  0.96933  0.58230  0.94999  1.0000
  O   O10       1.0  0.72036  0.08436  0.71667  1.0000
  O   O11       1.0  0.36401  0.27964  0.71667  1.0000
  O   O12       1.0  0.91564  0.63599  0.71667  1.0000
  O   O13       1.0  0.08436  0.72036  0.28333  1.0000
  O   O14       1.0  0.27964  0.36401  0.28333  1.0000
  O   O15       1.0  0.63599  0.91564  0.28333  1.0000
  O   O16       1.0  0.38702  0.41770  0.05001  1.0000
  O   O17       1.0  0.03067  0.61298  0.05001  1.0000
  O   O18       1.0  0.58230  0.96933  0.05001  1.0000
  O   O19       1.0  0.78170  0.00508  0.66824  1.0000
  O   O20       1.0  0.99492  0.77662  0.66824  1.0000
  O   O21       1.0  0.22338  0.21830  0.66824  1.0000
  O   O22       1.0  0.00508  0.78170  0.33176  1.0000
  O   O23       1.0  0.77662  0.99492  0.33176  1.0000
  O   O24       1.0  0.21830  0.22338  0.33176  1.0000
  O   O25       1.0  0.44837  0.33841  0.00157  1.0000
  O   O26       1.0  0.66159  0.10995  0.00157  1.0000
  O   O27       1.0  0.89005  0.55163  0.00157  1.0000
  O   O28       1.0  0.67175  0.11503  0.66509  1.0000
  O   O29       1.0  0.44329  0.32825  0.66509  1.0000
  O   O30       1.0  0.88497  0.55671  0.66509  1.0000
  O   O31       1.0  0.11503  0.67175  0.33491  1.0000
  O   O32       1.0  0.32825  0.44329  0.33491  1.0000
  O   O33       1.0  0.55671  0.88497  0.33491  1.0000
  O   O34       1.0  0.33841  0.44837  0.99843  1.0000
  O   O35       1.0  0.10995  0.66159  0.99843  1.0000
  O   O36       1.0  0.55163  0.89005  0.99843  1.0000
  O   O37       1.0  0.84421  0.77798  0.66165  1.0000
  O   O38       1.0  0.22202  0.06623  0.66165  1.0000
  O   O39       1.0  0.93377  0.15579  0.66165  1.0000
  O   O40       1.0  0.77798  0.84421  0.33835  1.0000
  O   O41       1.0  0.06623  0.22202  0.33835  1.0000
  O   O42       1.0  0.15579  0.93377  0.33835  1.0000
  O   O43       1.0  0.51088  0.11131  0.99498  1.0000
  O   O44       1.0  0.88869  0.39956  0.99498  1.0000
  O   O45       1.0  0.60044  0.48912  0.99498  1.0000
  O   O46       1.0  0.44465  0.17754  0.67168  1.0000
  O   O47       1.0  0.73290  0.55535  0.67168  1.0000
  O   O48       1.0  0.82246  0.26710  0.67168  1.0000
  O   O49       1.0  0.17754  0.44465  0.32832  1.0000
  O   O50       1.0  0.55535  0.73290  0.32832  1.0000
  O   O51       1.0  0.26710  0.82246  0.32832  1.0000
  O   O52       1.0  0.11131  0.51088  0.00502  1.0000
  O   O53       1.0  0.39956  0.88869  0.00502  1.0000
  O   O54       1.0  0.48912  0.60044  0.00502  1.0000
  O   O55       1.0  0.78523  0.67856  0.61755  1.0000
  O   O56       1.0  0.32144  0.10667  0.61755  1.0000
  O   O57       1.0  0.89333  0.21477  0.61755  1.0000
  O   O58       1.0  0.67856  0.78523  0.38245  1.0000
  O   O59       1.0  0.10667  0.32144  0.38245  1.0000
  O   O60       1.0  0.21477  0.89333  0.38245  1.0000
  O   O61       1.0  0.45190  0.01189  0.95088  1.0000
  O   O62       1.0  0.98811  0.44000  0.95088  1.0000
  O   O63       1.0  0.56000  0.54810  0.95088  1.0000
  O   O64       1.0  0.34523  0.11856  0.71578  1.0000
  O   O65       1.0  0.77334  0.65477  0.71578  1.0000
  O   O66       1.0  0.88144  0.22666  0.71578  1.0000
  O   O67       1.0  0.11856  0.34523  0.28422  1.0000
  O   O68       1.0  0.65477  0.77334  0.28422  1.0000
  O   O69       1.0  0.22666  0.88144  0.28422  1.0000
  O   O70       1.0  0.01189  0.45190  0.04912  1.0000
  O   O71       1.0  0.44000  0.98811  0.04912  1.0000
  O   O72       1.0  0.54810  0.56000  0.04912  1.0000
  O   O73       1.0  0.56810  0.66190  0.54701  1.0000
  O   O74       1.0  0.33810  0.90620  0.54701  1.0000
  O   O75       1.0  0.09380  0.43190  0.54701  1.0000
  O   O76       1.0  0.66190  0.56810  0.45299  1.0000
  O   O77       1.0  0.90620  0.33810  0.45299  1.0000
  O   O78       1.0  0.43190  0.09380  0.45299  1.0000
  O   O79       1.0  0.23477  0.99523  0.88034  1.0000
  O   O80       1.0  0.00477  0.23953  0.88034  1.0000
  O   O81       1.0  0.76047  0.76523  0.88034  1.0000
  O   O82       1.0  0.32857  0.90143  0.78632  1.0000
  O   O83       1.0  0.57287  0.67143  0.78632  1.0000
  O   O84       1.0  0.09857  0.42713  0.78632  1.0000
  O   O85       1.0  0.90143  0.32857  0.21368  1.0000
  O   O86       1.0  0.67143  0.57287  0.21368  1.0000
  O   O87       1.0  0.42713  0.09857  0.21368  1.0000
  O   O88       1.0  0.99523  0.23477  0.11966  1.0000
  O   O89       1.0  0.23953  0.00477  0.11966  1.0000
  O   O90       1.0  0.76523  0.76047  0.11966  1.0000
  O   O91       1.0  0.46352  0.65321  0.42148  1.0000
  O   O92       1.0  0.34679  0.81031  0.42148  1.0000
  O   O93       1.0  0.18969  0.53648  0.42148  1.0000
  O   O94       1.0  0.65321  0.46352  0.57852  1.0000
  O   O95       1.0  0.81031  0.34679  0.57852  1.0000
  O   O96       1.0  0.53648  0.18969  0.57852  1.0000
  O   O97       1.0  0.13019  0.98654  0.75481  1.0000
  O   O98       1.0  0.01346  0.14364  0.75481  1.0000
  O   O99       1.0  0.85636  0.86981  0.75481  1.0000
  O   O100      1.0  0.31988  0.79685  0.91185  1.0000
  O   O101      1.0  0.47698  0.68012  0.91185  1.0000
  O   O102      1.0  0.20315  0.52302  0.91185  1.0000
  O   O103      1.0  0.79685  0.31988  0.08815  1.0000
  O   O104      1.0  0.68012  0.47698  0.08815  1.0000
  O   O105      1.0  0.52302  0.20315  0.08815  1.0000
  O   O106      1.0  0.98654  0.13019  0.24519  1.0000
  O   O107      1.0  0.14364  0.01346  0.24519  1.0000
  O   O108      1.0  0.86981  0.85636  0.24519  1.0000
  O   O109      1.0  0.52518  0.79030  0.40523  1.0000
  O   O110      1.0  0.20970  0.73488  0.40523  1.0000
  O   O111      1.0  0.26512  0.47482  0.40523  1.0000
  O   O112      1.0  0.79030  0.52518  0.59477  1.0000
  O   O113      1.0  0.73488  0.20970  0.59477  1.0000
  O   O114      1.0  0.47482  0.26512  0.59477  1.0000
  O   O115      1.0  0.19185  0.12363  0.73856  1.0000
  O   O116      1.0  0.87637  0.06821  0.73856  1.0000
  O   O117      1.0  0.93179  0.80815  0.73856  1.0000
  O   O118      1.0  0.45697  0.85851  0.92810  1.0000
  O   O119      1.0  0.40155  0.54303  0.92810  1.0000
  O   O120      1.0  0.14149  0.59845  0.92810  1.0000
  O   O121      1.0  0.85851  0.45697  0.07190  1.0000
  O   O122      1.0  0.54303  0.40155  0.07190  1.0000
  O   O123      1.0  0.59845  0.14149  0.07190  1.0000
  O   O124      1.0  0.12363  0.19185  0.26144  1.0000
  O   O125      1.0  0.06821  0.87637  0.26144  1.0000
  O   O126      1.0  0.80815  0.93179  0.26144  1.0000
  N   N1        1.0  0.59266  0.71916  0.52136  1.0000
  N   N2        1.0  0.28084  0.87350  0.52136  1.0000
  N   N3        1.0  0.12650  0.40734  0.52136  1.0000
  N   N4        1.0  0.71916  0.59266  0.47864  1.0000
  N   N5        1.0  0.87350  0.28084  0.47864  1.0000
  N   N6        1.0  0.40734  0.12650  0.47864  1.0000
  N   N7        1.0  0.25933  0.05249  0.85469  1.0000
  N   N8        1.0  0.94751  0.20683  0.85469  1.0000
  N   N9        1.0  0.79317  0.74067  0.85469  1.0000
  N   N10       1.0  0.38583  0.92599  0.81197  1.0000
  N   N11       1.0  0.54017  0.61417  0.81197  1.0000
  N   N12       1.0  0.07401  0.45983  0.81197  1.0000
  N   N13       1.0  0.92599  0.38583  0.18803  1.0000
  N   N14       1.0  0.61417  0.54017  0.18803  1.0000
  N   N15       1.0  0.45983  0.07401  0.18803  1.0000
  N   N16       1.0  0.05249  0.25933  0.14531  1.0000
  N   N17       1.0  0.20683  0.94751  0.14531  1.0000
  N   N18       1.0  0.74067  0.79317  0.14531  1.0000
  C   C1        1.0  0.74712  0.92019  0.61550  1.0000
  C   C2        1.0  0.07981  0.82693  0.61550  1.0000
  C   C3        1.0  0.17307  0.25288  0.61550  1.0000
  C   C4        1.0  0.92019  0.74712  0.38450  1.0000
  C   C5        1.0  0.82693  0.07981  0.38450  1.0000
  C   C6        1.0  0.25288  0.17307  0.38450  1.0000
  C   C7        1.0  0.41379  0.25352  0.94883  1.0000
  C   C8        1.0  0.74648  0.16026  0.94883  1.0000
  C   C9        1.0  0.83974  0.58621  0.94883  1.0000
  C   C10       1.0  0.58686  0.08045  0.71783  1.0000
  C   C11       1.0  0.49360  0.41314  0.71783  1.0000
  C   C12       1.0  0.91955  0.50640  0.71783  1.0000
  C   C13       1.0  0.08045  0.58686  0.28217  1.0000
  C   C14       1.0  0.41314  0.49360  0.28217  1.0000
  C   C15       1.0  0.50640  0.91955  0.28217  1.0000
  C   C16       1.0  0.25352  0.41379  0.05117  1.0000
  C   C17       1.0  0.16026  0.74648  0.05117  1.0000
  C   C18       1.0  0.58621  0.83974  0.05117  1.0000
  C   C19       1.0  0.77687  0.87079  0.63216  1.0000
  C   C20       1.0  0.12921  0.90608  0.63216  1.0000
  C   C21       1.0  0.09392  0.22313  0.63216  1.0000
  C   C22       1.0  0.87079  0.77687  0.36784  1.0000
  C   C23       1.0  0.90608  0.12921  0.36784  1.0000
  C   C24       1.0  0.22313  0.09392  0.36784  1.0000
  C   C25       1.0  0.44354  0.20412  0.96549  1.0000
  C   C26       1.0  0.79588  0.23941  0.96549  1.0000
  C   C27       1.0  0.76059  0.55646  0.96549  1.0000
  C   C28       1.0  0.53746  0.11020  0.70117  1.0000
  C   C29       1.0  0.57275  0.46254  0.70117  1.0000
  C   C30       1.0  0.88980  0.42725  0.70117  1.0000
  C   C31       1.0  0.11020  0.53746  0.29883  1.0000
  C   C32       1.0  0.46254  0.57275  0.29883  1.0000
  C   C33       1.0  0.42725  0.88980  0.29883  1.0000
  C   C34       1.0  0.20412  0.44354  0.03451  1.0000
  C   C35       1.0  0.23941  0.79588  0.03451  1.0000
  C   C36       1.0  0.55646  0.76059  0.03451  1.0000
  H   H1        1.0  0.80310  0.88620  0.65570  1.0000
  H   H2        1.0  0.11380  0.91690  0.65570  1.0000
  H   H3        1.0  0.08310  0.19690  0.65570  1.0000
  H   H4        1.0  0.88620  0.80310  0.34430  1.0000
  H   H5        1.0  0.91690  0.11380  0.34430  1.0000
  H   H6        1.0  0.19690  0.08310  0.34430  1.0000
  H   H7        1.0  0.46977  0.21953  0.98903  1.0000
  H   H8        1.0  0.78047  0.25023  0.98903  1.0000
  H   H9        1.0  0.74977  0.53023  0.98903  1.0000
  H   H10       1.0  0.55287  0.13643  0.67763  1.0000
  H   H11       1.0  0.58357  0.44713  0.67763  1.0000
  H   H12       1.0  0.86357  0.41643  0.67763  1.0000
  H   H13       1.0  0.13643  0.55287  0.32237  1.0000
  H   H14       1.0  0.44713  0.58357  0.32237  1.0000
  H   H15       1.0  0.41643  0.86357  0.32237  1.0000
  H   H16       1.0  0.21953  0.46977  0.01097  1.0000
  H   H17       1.0  0.25023  0.78047  0.01097  1.0000
  H   H18       1.0  0.53023  0.74977  0.01097  1.0000
  C   C37       1.0  0.76813  0.79888  0.61440  1.0000
  C   C38       1.0  0.20112  0.96925  0.61440  1.0000
  C   C39       1.0  0.03075  0.23187  0.61440  1.0000
  C   C40       1.0  0.79888  0.76813  0.38560  1.0000
  C   C41       1.0  0.96925  0.20112  0.38560  1.0000
  C   C42       1.0  0.23187  0.03075  0.38560  1.0000
  C   C43       1.0  0.43480  0.13221  0.94773  1.0000
  C   C44       1.0  0.86779  0.30258  0.94773  1.0000
  C   C45       1.0  0.69742  0.56520  0.94773  1.0000
  C   C46       1.0  0.46555  0.10146  0.71893  1.0000
  C   C47       1.0  0.63592  0.53445  0.71893  1.0000
  C   C48       1.0  0.89854  0.36408  0.71893  1.0000
  C   C49       1.0  0.10146  0.46555  0.28107  1.0000
  C   C50       1.0  0.53445  0.63592  0.28107  1.0000
  C   C51       1.0  0.36408  0.89854  0.28107  1.0000
  C   C52       1.0  0.13221  0.43480  0.05227  1.0000
  C   C53       1.0  0.30258  0.86779  0.05227  1.0000
  C   C54       1.0  0.56520  0.69742  0.05227  1.0000
  C   C55       1.0  0.72882  0.77533  0.58044  1.0000
  C   C56       1.0  0.22467  0.95349  0.58044  1.0000
  C   C57       1.0  0.04651  0.27118  0.58044  1.0000
  C   C58       1.0  0.77533  0.72882  0.41956  1.0000
  C   C59       1.0  0.95349  0.22467  0.41956  1.0000
  C   C60       1.0  0.27118  0.04651  0.41956  1.0000
  C   C61       1.0  0.39549  0.10866  0.91377  1.0000
  C   C62       1.0  0.89134  0.28682  0.91377  1.0000
  C   C63       1.0  0.71318  0.60451  0.91377  1.0000
  C   C64       1.0  0.44200  0.06215  0.75289  1.0000
  C   C65       1.0  0.62016  0.55800  0.75289  1.0000
  C   C66       1.0  0.93785  0.37984  0.75289  1.0000
  C   C67       1.0  0.06215  0.44200  0.24711  1.0000
  C   C68       1.0  0.55800  0.62016  0.24711  1.0000
  C   C69       1.0  0.37984  0.93785  0.24711  1.0000
  C   C70       1.0  0.10866  0.39549  0.08623  1.0000
  C   C71       1.0  0.28682  0.89134  0.08623  1.0000
  C   C72       1.0  0.60451  0.71318  0.08623  1.0000
  H   H19       1.0  0.72200  0.72520  0.56880  1.0000
  H   H20       1.0  0.27480  0.99680  0.56880  1.0000
  H   H21       1.0  0.00320  0.27800  0.56880  1.0000
  H   H22       1.0  0.72520  0.72200  0.43120  1.0000
  H   H23       1.0  0.99680  0.27480  0.43120  1.0000
  H   H24       1.0  0.27800  0.00320  0.43120  1.0000
  H   H25       1.0  0.38867  0.05853  0.90213  1.0000
  H   H26       1.0  0.94147  0.33013  0.90213  1.0000
  H   H27       1.0  0.66987  0.61133  0.90213  1.0000
  H   H28       1.0  0.39187  0.05533  0.76453  1.0000
  H   H29       1.0  0.66347  0.60813  0.76453  1.0000
  H   H30       1.0  0.94467  0.33653  0.76453  1.0000
  H   H31       1.0  0.05533  0.39187  0.23547  1.0000
  H   H32       1.0  0.60813  0.66347  0.23547  1.0000
  H   H33       1.0  0.33653  0.94467  0.23547  1.0000
  H   H34       1.0  0.05853  0.38867  0.09787  1.0000
  H   H35       1.0  0.33013  0.94147  0.09787  1.0000
  H   H36       1.0  0.61133  0.66987  0.09787  1.0000
  C   C73       1.0  0.69931  0.82392  0.56318  1.0000
  C   C74       1.0  0.17608  0.87539  0.56318  1.0000
  C   C75       1.0  0.12461  0.30069  0.56318  1.0000
  C   C76       1.0  0.82392  0.69931  0.43682  1.0000
  C   C77       1.0  0.87539  0.17608  0.43682  1.0000
  C   C78       1.0  0.30069  0.12461  0.43682  1.0000
  C   C79       1.0  0.36598  0.15725  0.89651  1.0000
  C   C80       1.0  0.84275  0.20872  0.89651  1.0000
  C   C81       1.0  0.79128  0.63402  0.89651  1.0000
  C   C82       1.0  0.49059  0.03264  0.77015  1.0000
  C   C83       1.0  0.54206  0.50941  0.77015  1.0000
  C   C84       1.0  0.96736  0.45794  0.77015  1.0000
  C   C85       1.0  0.03264  0.49059  0.22985  1.0000
  C   C86       1.0  0.50941  0.54206  0.22985  1.0000
  C   C87       1.0  0.45794  0.96736  0.22985  1.0000
  C   C88       1.0  0.15725  0.36598  0.10349  1.0000
  C   C89       1.0  0.20872  0.84275  0.10349  1.0000
  C   C90       1.0  0.63402  0.79128  0.10349  1.0000
  C   C91       1.0  0.70994  0.89864  0.58053  1.0000
  C   C92       1.0  0.10136  0.81130  0.58053  1.0000
  C   C93       1.0  0.18870  0.29006  0.58053  1.0000
  C   C94       1.0  0.89864  0.70994  0.41947  1.0000
  C   C95       1.0  0.81130  0.10136  0.41947  1.0000
  C   C96       1.0  0.29006  0.18870  0.41947  1.0000
  C   C97       1.0  0.37661  0.23197  0.91386  1.0000
  C   C98       1.0  0.76803  0.14463  0.91386  1.0000
  C   C99       1.0  0.85537  0.62339  0.91386  1.0000
  C   C100      1.0  0.56531  0.04327  0.75280  1.0000
  C   C101      1.0  0.47797  0.43469  0.75280  1.0000
  C   C102      1.0  0.95673  0.52203  0.75280  1.0000
  C   C103      1.0  0.04327  0.56531  0.24720  1.0000
  C   C104      1.0  0.43469  0.47797  0.24720  1.0000
  C   C105      1.0  0.52203  0.95673  0.24720  1.0000
  C   C106      1.0  0.23197  0.37661  0.08614  1.0000
  C   C107      1.0  0.14463  0.76803  0.08614  1.0000
  C   C108      1.0  0.62339  0.85537  0.08614  1.0000
  H   H37       1.0  0.69210  0.93390  0.56860  1.0000
  H   H38       1.0  0.06610  0.75820  0.56860  1.0000
  H   H39       1.0  0.24180  0.30790  0.56860  1.0000
  H   H40       1.0  0.93390  0.69210  0.43140  1.0000
  H   H41       1.0  0.75820  0.06610  0.43140  1.0000
  H   H42       1.0  0.30790  0.24180  0.43140  1.0000
  H   H43       1.0  0.35877  0.26723  0.90193  1.0000
  H   H44       1.0  0.73277  0.09153  0.90193  1.0000
  H   H45       1.0  0.90847  0.64123  0.90193  1.0000
  H   H46       1.0  0.60057  0.02543  0.76473  1.0000
  H   H47       1.0  0.42487  0.39943  0.76473  1.0000
  H   H48       1.0  0.97457  0.57513  0.76473  1.0000
  H   H49       1.0  0.02543  0.60057  0.23527  1.0000
  H   H50       1.0  0.39943  0.42487  0.23527  1.0000
  H   H51       1.0  0.57513  0.97457  0.23527  1.0000
  H   H52       1.0  0.26723  0.35877  0.09807  1.0000
  H   H53       1.0  0.09153  0.73277  0.09807  1.0000
  H   H54       1.0  0.64123  0.90847  0.09807  1.0000
  C   C109      1.0  0.75938  0.99889  0.63499  1.0000
  C   C110      1.0  0.00111  0.76049  0.63499  1.0000
  C   C111      1.0  0.23951  0.24062  0.63499  1.0000
  C   C112      1.0  0.99889  0.75938  0.36501  1.0000
  C   C113      1.0  0.76049  0.00111  0.36501  1.0000
  C   C114      1.0  0.24062  0.23951  0.36501  1.0000
  C   C115      1.0  0.42605  0.33222  0.96832  1.0000
  C   C116      1.0  0.66778  0.09382  0.96832  1.0000
  C   C117      1.0  0.90618  0.57395  0.96832  1.0000
  C   C118      1.0  0.66556  0.09271  0.69834  1.0000
  C   C119      1.0  0.42716  0.33444  0.69834  1.0000
  C   C120      1.0  0.90729  0.57284  0.69834  1.0000
  C   C121      1.0  0.09271  0.66556  0.30166  1.0000
  C   C122      1.0  0.33444  0.42716  0.30166  1.0000
  C   C123      1.0  0.57284  0.90729  0.30166  1.0000
  C   C124      1.0  0.33222  0.42605  0.03168  1.0000
  C   C125      1.0  0.09382  0.66778  0.03168  1.0000
  C   C126      1.0  0.57395  0.90618  0.03168  1.0000
  C   C127      1.0  0.80275  0.74829  0.63273  1.0000
  C   C128      1.0  0.25171  0.05446  0.63273  1.0000
  C   C129      1.0  0.94554  0.19725  0.63273  1.0000
  C   C130      1.0  0.74829  0.80275  0.36727  1.0000
  C   C131      1.0  0.05446  0.25171  0.36727  1.0000
  C   C132      1.0  0.19725  0.94554  0.36727  1.0000
  C   C133      1.0  0.46942  0.08162  0.96606  1.0000
  C   C134      1.0  0.91838  0.38779  0.96606  1.0000
  C   C135      1.0  0.61221  0.53058  0.96606  1.0000
  C   C136      1.0  0.41496  0.13608  0.70060  1.0000
  C   C137      1.0  0.72113  0.58504  0.70060  1.0000
  C   C138      1.0  0.86392  0.27887  0.70060  1.0000
  C   C139      1.0  0.13608  0.41496  0.29940  1.0000
  C   C140      1.0  0.58504  0.72113  0.29940  1.0000
  C   C141      1.0  0.27887  0.86392  0.29940  1.0000
  C   C142      1.0  0.08162  0.46942  0.03394  1.0000
  C   C143      1.0  0.38779  0.91838  0.03394  1.0000
  C   C144      1.0  0.53058  0.61221  0.03394  1.0000
  C   C145      1.0  0.65682  0.80038  0.52696  1.0000
  C   C146      1.0  0.19962  0.85644  0.52696  1.0000
  C   C147      1.0  0.14356  0.34318  0.52696  1.0000
  C   C148      1.0  0.80038  0.65682  0.47304  1.0000
  C   C149      1.0  0.85644  0.19962  0.47304  1.0000
  C   C150      1.0  0.34318  0.14356  0.47304  1.0000
  C   C151      1.0  0.32349  0.13371  0.86029  1.0000
  C   C152      1.0  0.86629  0.18977  0.86029  1.0000
  C   C153      1.0  0.81023  0.67651  0.86029  1.0000
  C   C154      1.0  0.46705  0.99015  0.80637  1.0000
  C   C155      1.0  0.52311  0.53295  0.80637  1.0000
  C   C156      1.0  0.00985  0.47689  0.80637  1.0000
  C   C157      1.0  0.99015  0.46705  0.19363  1.0000
  C   C158      1.0  0.53295  0.52311  0.19363  1.0000
  C   C159      1.0  0.47689  0.00985  0.19363  1.0000
  C   C160      1.0  0.13371  0.32349  0.13971  1.0000
  C   C161      1.0  0.18977  0.86629  0.13971  1.0000
  C   C162      1.0  0.67651  0.81023  0.13971  1.0000
  C   C163      1.0  0.54850  0.69650  0.48859  1.0000
  C   C164      1.0  0.30350  0.85200  0.48859  1.0000
  C   C165      1.0  0.14800  0.45150  0.48859  1.0000
  C   C166      1.0  0.69650  0.54850  0.51141  1.0000
  C   C167      1.0  0.85200  0.30350  0.51141  1.0000
  C   C168      1.0  0.45150  0.14800  0.51141  1.0000
  C   C169      1.0  0.21517  0.02983  0.82192  1.0000
  C   C170      1.0  0.97017  0.18533  0.82192  1.0000
  C   C171      1.0  0.81467  0.78483  0.82192  1.0000
  C   C172      1.0  0.36317  0.88183  0.84474  1.0000
  C   C173      1.0  0.51867  0.63683  0.84474  1.0000
  C   C174      1.0  0.11817  0.48133  0.84474  1.0000
  C   C175      1.0  0.88183  0.36317  0.15526  1.0000
  C   C176      1.0  0.63683  0.51867  0.15526  1.0000
  C   C177      1.0  0.48133  0.11817  0.15526  1.0000
  C   C178      1.0  0.02983  0.21517  0.17808  1.0000
  C   C179      1.0  0.18533  0.97017  0.17808  1.0000
  C   C180      1.0  0.78483  0.81467  0.17808  1.0000
  H   H55       1.0  0.50340  0.63930  0.48510  1.0000
  H   H56       1.0  0.36070  0.86410  0.48510  1.0000
  H   H57       1.0  0.13590  0.49660  0.48510  1.0000
  H   H58       1.0  0.63930  0.50340  0.51490  1.0000
  H   H59       1.0  0.86410  0.36070  0.51490  1.0000
  H   H60       1.0  0.49660  0.13590  0.51490  1.0000
  H   H61       1.0  0.17007  0.97263  0.81843  1.0000
  H   H62       1.0  0.02737  0.19743  0.81843  1.0000
  H   H63       1.0  0.80257  0.82993  0.81843  1.0000
  H   H64       1.0  0.30597  0.83673  0.84823  1.0000
  H   H65       1.0  0.53077  0.69403  0.84823  1.0000
  H   H66       1.0  0.16327  0.46923  0.84823  1.0000
  H   H67       1.0  0.83673  0.30597  0.15177  1.0000
  H   H68       1.0  0.69403  0.53077  0.15177  1.0000
  H   H69       1.0  0.46923  0.16327  0.15177  1.0000
  H   H70       1.0  0.97263  0.17007  0.18157  1.0000
  H   H71       1.0  0.19743  0.02737  0.18157  1.0000
  H   H72       1.0  0.82993  0.80257  0.18157  1.0000
  C   C181      1.0  0.56862  0.75503  0.46097  1.0000
  C   C182      1.0  0.24497  0.81359  0.46097  1.0000
  C   C183      1.0  0.18641  0.43138  0.46097  1.0000
  C   C184      1.0  0.75503  0.56862  0.53903  1.0000
  C   C185      1.0  0.81359  0.24497  0.53903  1.0000
  C   C186      1.0  0.43138  0.18641  0.53903  1.0000
  C   C187      1.0  0.23529  0.08836  0.79430  1.0000
  C   C188      1.0  0.91164  0.14692  0.79430  1.0000
  C   C189      1.0  0.85308  0.76471  0.79430  1.0000
  C   C190      1.0  0.42170  0.90195  0.87236  1.0000
  C   C191      1.0  0.48026  0.57830  0.87236  1.0000
  C   C192      1.0  0.09805  0.51974  0.87236  1.0000
  C   C193      1.0  0.90195  0.42170  0.12764  1.0000
  C   C194      1.0  0.57830  0.48026  0.12764  1.0000
  C   C195      1.0  0.51974  0.09805  0.12764  1.0000
  C   C196      1.0  0.08836  0.23529  0.20570  1.0000
  C   C197      1.0  0.14692  0.91164  0.20570  1.0000
  C   C198      1.0  0.76471  0.85308  0.20570  1.0000
  C   C199      1.0  0.63602  0.83827  0.46606  1.0000
  C   C200      1.0  0.16173  0.79775  0.46606  1.0000
  C   C201      1.0  0.20225  0.36398  0.46606  1.0000
  C   C202      1.0  0.83827  0.63602  0.53394  1.0000
  C   C203      1.0  0.79775  0.16173  0.53394  1.0000
  C   C204      1.0  0.36398  0.20225  0.53394  1.0000
  C   C205      1.0  0.30269  0.17160  0.79939  1.0000
  C   C206      1.0  0.82840  0.13108  0.79939  1.0000
  C   C207      1.0  0.86892  0.69731  0.79939  1.0000
  C   C208      1.0  0.50494  0.96935  0.86727  1.0000
  C   C209      1.0  0.46442  0.49506  0.86727  1.0000
  C   C210      1.0  0.03065  0.53558  0.86727  1.0000
  C   C211      1.0  0.96935  0.50494  0.13273  1.0000
  C   C212      1.0  0.49506  0.46442  0.13273  1.0000
  C   C213      1.0  0.53558  0.03065  0.13273  1.0000
  C   C214      1.0  0.17160  0.30269  0.20061  1.0000
  C   C215      1.0  0.13108  0.82840  0.20061  1.0000
  C   C216      1.0  0.69731  0.86892  0.20061  1.0000
  H   H73       1.0  0.65210  0.87950  0.44700  1.0000
  H   H74       1.0  0.12050  0.77260  0.44700  1.0000
  H   H75       1.0  0.22740  0.34790  0.44700  1.0000
  H   H76       1.0  0.87950  0.65210  0.55300  1.0000
  H   H77       1.0  0.77260  0.12050  0.55300  1.0000
  H   H78       1.0  0.34790  0.22740  0.55300  1.0000
  H   H79       1.0  0.31877  0.21283  0.78033  1.0000
  H   H80       1.0  0.78717  0.10593  0.78033  1.0000
  H   H81       1.0  0.89407  0.68123  0.78033  1.0000
  H   H82       1.0  0.54617  0.98543  0.88633  1.0000
  H   H83       1.0  0.43927  0.45383  0.88633  1.0000
  H   H84       1.0  0.01457  0.56073  0.88633  1.0000
  H   H85       1.0  0.98543  0.54617  0.11367  1.0000
  H   H86       1.0  0.45383  0.43927  0.11367  1.0000
  H   H87       1.0  0.56073  0.01457  0.11367  1.0000
  H   H88       1.0  0.21283  0.31877  0.21967  1.0000
  H   H89       1.0  0.10593  0.78717  0.21967  1.0000
  H   H90       1.0  0.68123  0.89407  0.21967  1.0000
  C   C217      1.0  0.67904  0.85989  0.49916  1.0000
  C   C218      1.0  0.14011  0.81915  0.49916  1.0000
  C   C219      1.0  0.18085  0.32096  0.49916  1.0000
  C   C220      1.0  0.85989  0.67904  0.50084  1.0000
  C   C221      1.0  0.81915  0.14011  0.50084  1.0000
  C   C222      1.0  0.32096  0.18085  0.50084  1.0000
  C   C223      1.0  0.34571  0.19322  0.83249  1.0000
  C   C224      1.0  0.80678  0.15248  0.83249  1.0000
  C   C225      1.0  0.84752  0.65429  0.83249  1.0000
  C   C226      1.0  0.52656  0.01237  0.83417  1.0000
  C   C227      1.0  0.48582  0.47344  0.83417  1.0000
  C   C228      1.0  0.98763  0.51418  0.83417  1.0000
  C   C229      1.0  0.01237  0.52656  0.16583  1.0000
  C   C230      1.0  0.47344  0.48582  0.16583  1.0000
  C   C231      1.0  0.51418  0.98763  0.16583  1.0000
  C   C232      1.0  0.19322  0.34571  0.16751  1.0000
  C   C233      1.0  0.15248  0.80678  0.16751  1.0000
  C   C234      1.0  0.65429  0.84752  0.16751  1.0000
  H   H91       1.0  0.72470  0.91660  0.50290  1.0000
  H   H92       1.0  0.08340  0.80810  0.50290  1.0000
  H   H93       1.0  0.19190  0.27530  0.50290  1.0000
  H   H94       1.0  0.91660  0.72470  0.49710  1.0000
  H   H95       1.0  0.80810  0.08340  0.49710  1.0000
  H   H96       1.0  0.27530  0.19190  0.49710  1.0000
  H   H97       1.0  0.39137  0.24993  0.83623  1.0000
  H   H98       1.0  0.75007  0.14143  0.83623  1.0000
  H   H99       1.0  0.85857  0.60863  0.83623  1.0000
  H   H100      1.0  0.58327  0.05803  0.83043  1.0000
  H   H101      1.0  0.47477  0.41673  0.83043  1.0000
  H   H102      1.0  0.94197  0.52523  0.83043  1.0000
  H   H103      1.0  0.05803  0.58327  0.16957  1.0000
  H   H104      1.0  0.41673  0.47477  0.16957  1.0000
  H   H105      1.0  0.52523  0.94197  0.16957  1.0000
  H   H106      1.0  0.24993  0.39137  0.16377  1.0000
  H   H107      1.0  0.14143  0.75007  0.16377  1.0000
  H   H108      1.0  0.60863  0.85857  0.16377  1.0000
  C   C235      1.0  0.51424  0.73028  0.42670  1.0000
  C   C236      1.0  0.26972  0.78396  0.42670  1.0000
  C   C237      1.0  0.21604  0.48576  0.42670  1.0000
  C   C238      1.0  0.73028  0.51424  0.57330  1.0000
  C   C239      1.0  0.78396  0.26972  0.57330  1.0000
  C   C240      1.0  0.48576  0.21604  0.57330  1.0000
  C   C241      1.0  0.18091  0.06361  0.76003  1.0000
  C   C242      1.0  0.93639  0.11729  0.76003  1.0000
  C   C243      1.0  0.88271  0.81909  0.76003  1.0000
  C   C244      1.0  0.39695  0.84757  0.90663  1.0000
  C   C245      1.0  0.45063  0.60305  0.90663  1.0000
  C   C246      1.0  0.15243  0.54937  0.90663  1.0000
  C   C247      1.0  0.84757  0.39695  0.09337  1.0000
  C   C248      1.0  0.60305  0.45063  0.09337  1.0000
  C   C249      1.0  0.54937  0.15243  0.09337  1.0000
  C   C250      1.0  0.06361  0.18091  0.23997  1.0000
  C   C251      1.0  0.11729  0.93639  0.23997  1.0000
  C   C252      1.0  0.81909  0.88271  0.23997  1.0000
