data_image0
_chemical_formula_structural       Sr20O88H16O8H16O8H16O16C24H8C8H8C16H8C8H8C16H8C16H8C16H8C16H8C8H8C8H8C16H8C8H8C8H8C24H8C8H8C24H8C24H8C24H8C8H8C16H8C8H8C16H8C16H8C16H8C16H8C8H8C24H8C8H8C16H8C8H8
_chemical_formula_sum              "Sr20 O120 H288 C432"
_cell_length_a       18.2197
_cell_length_b       31.5978
_cell_length_c       29.862
_cell_angle_alpha    90
_cell_angle_beta     101.311
_cell_angle_gamma    90

_space_group_name_H-M_alt    "P 1"
_space_group_IT_number       1

loop_
  _space_group_symop_operation_xyz
  'x, y, z'

loop_
  _atom_site_type_symbol
  _atom_site_label
  _atom_site_symmetry_multiplicity
  _atom_site_fract_x
  _atom_site_fract_y
  _atom_site_fract_z
  _atom_site_occupancy
  Sr  Sr1       1.0  0.30382  0.35018  0.57790  1.0000
  Sr  Sr2       1.0  0.69618  0.35018  0.92210  1.0000
  Sr  Sr3       1.0  0.80382  0.85018  0.57790  1.0000
  Sr  Sr4       1.0  0.19618  0.85018  0.92210  1.0000
  Sr  Sr5       1.0  0.69618  0.64982  0.42210  1.0000
  Sr  Sr6       1.0  0.30382  0.64982  0.07790  1.0000
  Sr  Sr7       1.0  0.19618  0.14982  0.42210  1.0000
  Sr  Sr8       1.0  0.80382  0.14982  0.07790  1.0000
  Sr  Sr9       1.0  0.25000  0.25000  0.50000  1.0000
  Sr  Sr10      1.0  0.75000  0.25000  0.00000  1.0000
  Sr  Sr11      1.0  0.75000  0.75000  0.50000  1.0000
  Sr  Sr12      1.0  0.25000  0.75000  0.00000  1.0000
  Sr  Sr13      1.0  0.35143  0.46056  0.53012  1.0000
  Sr  Sr14      1.0  0.64857  0.46056  0.96988  1.0000
  Sr  Sr15      1.0  0.85143  0.96056  0.53012  1.0000
  Sr  Sr16      1.0  0.14857  0.96056  0.96988  1.0000
  Sr  Sr17      1.0  0.64857  0.53944  0.46988  1.0000
  Sr  Sr18      1.0  0.35143  0.53944  0.03012  1.0000
  Sr  Sr19      1.0  0.14857  0.03944  0.46988  1.0000
  Sr  Sr20      1.0  0.85143  0.03944  0.03012  1.0000
  O   O1        1.0  0.27430  0.39228  0.49875  1.0000
  O   O2        1.0  0.72570  0.39228  0.00125  1.0000
  O   O3        1.0  0.77430  0.89228  0.49875  1.0000
  O   O4        1.0  0.22570  0.89228  0.00125  1.0000
  O   O5        1.0  0.72570  0.60772  0.50125  1.0000
  O   O6        1.0  0.27430  0.60772  0.99875  1.0000
  O   O7        1.0  0.22570  0.10772  0.50125  1.0000
  O   O8        1.0  0.77430  0.10772  0.99875  1.0000
  O   O9        1.0  0.29120  0.32404  0.48971  1.0000
  O   O10       1.0  0.70880  0.32404  0.01029  1.0000
  O   O11       1.0  0.79120  0.82404  0.48971  1.0000
  O   O12       1.0  0.20880  0.82404  0.01029  1.0000
  O   O13       1.0  0.70880  0.67596  0.51029  1.0000
  O   O14       1.0  0.29120  0.67596  0.98971  1.0000
  O   O15       1.0  0.20880  0.17596  0.51029  1.0000
  O   O16       1.0  0.79120  0.17596  0.98971  1.0000
  O   O17       1.0  0.16170  0.35192  0.57620  1.0000
  O   O18       1.0  0.83830  0.35192  0.92380  1.0000
  O   O19       1.0  0.66170  0.85192  0.57620  1.0000
  O   O20       1.0  0.33830  0.85192  0.92380  1.0000
  O   O21       1.0  0.83830  0.64808  0.42380  1.0000
  O   O22       1.0  0.16170  0.64808  0.07620  1.0000
  O   O23       1.0  0.33830  0.14808  0.42380  1.0000
  O   O24       1.0  0.66170  0.14808  0.07620  1.0000
  O   O25       1.0  0.19100  0.29001  0.55255  1.0000
  O   O26       1.0  0.80900  0.29001  0.94745  1.0000
  O   O27       1.0  0.69100  0.79001  0.55255  1.0000
  O   O28       1.0  0.30900  0.79001  0.94745  1.0000
  O   O29       1.0  0.80900  0.70999  0.44745  1.0000
  O   O30       1.0  0.19100  0.70999  0.05255  1.0000
  O   O31       1.0  0.30900  0.20999  0.44745  1.0000
  O   O32       1.0  0.69100  0.20999  0.05255  1.0000
  O   O33       1.0  0.85690  0.24650  0.06430  1.0000
  O   O34       1.0  0.14310  0.24650  0.43570  1.0000
  O   O35       1.0  0.35690  0.74650  0.06430  1.0000
  O   O36       1.0  0.64310  0.74650  0.43570  1.0000
  O   O37       1.0  0.14310  0.75350  0.93570  1.0000
  O   O38       1.0  0.85690  0.75350  0.56430  1.0000
  O   O39       1.0  0.64310  0.25350  0.93570  1.0000
  O   O40       1.0  0.35690  0.25350  0.56430  1.0000
  O   O41       1.0  0.87650  0.20580  0.12440  1.0000
  O   O42       1.0  0.12350  0.20580  0.37560  1.0000
  O   O43       1.0  0.37650  0.70580  0.12440  1.0000
  O   O44       1.0  0.62350  0.70580  0.37560  1.0000
  O   O45       1.0  0.12350  0.79420  0.87560  1.0000
  O   O46       1.0  0.87650  0.79420  0.62440  1.0000
  O   O47       1.0  0.62350  0.29420  0.87560  1.0000
  O   O48       1.0  0.37650  0.29420  0.62440  1.0000
  O   O49       1.0  0.27210  0.56952  0.08522  1.0000
  O   O50       1.0  0.72790  0.56952  0.41478  1.0000
  O   O51       1.0  0.77210  0.06952  0.08522  1.0000
  O   O52       1.0  0.22790  0.06952  0.41478  1.0000
  O   O53       1.0  0.72790  0.43048  0.91478  1.0000
  O   O54       1.0  0.27210  0.43048  0.58522  1.0000
  O   O55       1.0  0.22790  0.93048  0.91478  1.0000
  O   O56       1.0  0.77210  0.93048  0.58522  1.0000
  O   O57       1.0  0.29260  0.60430  0.14991  1.0000
  O   O58       1.0  0.70740  0.60430  0.35009  1.0000
  O   O59       1.0  0.79260  0.10430  0.14991  1.0000
  O   O60       1.0  0.20740  0.10430  0.35009  1.0000
  O   O61       1.0  0.70740  0.39570  0.85009  1.0000
  O   O62       1.0  0.29260  0.39570  0.64991  1.0000
  O   O63       1.0  0.20740  0.89570  0.85009  1.0000
  O   O64       1.0  0.79260  0.89570  0.64991  1.0000
  O   O65       1.0  0.42040  0.38761  0.57019  1.0000
  O   O66       1.0  0.57960  0.38761  0.92981  1.0000
  O   O67       1.0  0.92040  0.88761  0.57019  1.0000
  O   O68       1.0  0.07960  0.88761  0.92981  1.0000
  O   O69       1.0  0.57960  0.61239  0.42981  1.0000
  O   O70       1.0  0.42040  0.61239  0.07019  1.0000
  O   O71       1.0  0.07960  0.11239  0.42981  1.0000
  O   O72       1.0  0.92040  0.11239  0.07019  1.0000
  O   O73       1.0  0.48570  0.43124  0.53560  1.0000
  O   O74       1.0  0.51430  0.43124  0.96440  1.0000
  O   O75       1.0  0.98570  0.93124  0.53560  1.0000
  O   O76       1.0  0.01430  0.93124  0.96440  1.0000
  O   O77       1.0  0.51430  0.56876  0.46440  1.0000
  O   O78       1.0  0.48570  0.56876  0.03560  1.0000
  O   O79       1.0  0.01430  0.06876  0.46440  1.0000
  O   O80       1.0  0.98570  0.06876  0.03560  1.0000
  O   O81       1.0  0.40650  0.49491  0.60794  1.0000
  O   O82       1.0  0.59350  0.49491  0.89206  1.0000
  O   O83       1.0  0.90650  0.99491  0.60794  1.0000
  O   O84       1.0  0.09350  0.99491  0.89206  1.0000
  O   O85       1.0  0.59350  0.50509  0.39206  1.0000
  O   O86       1.0  0.40650  0.50509  0.10794  1.0000
  O   O87       1.0  0.09350  0.00509  0.39206  1.0000
  O   O88       1.0  0.90650  0.00509  0.10794  1.0000
  H   H1        1.0  0.42440  0.50530  0.63410  1.0000
  H   H2        1.0  0.57560  0.50530  0.86590  1.0000
  H   H3        1.0  0.92440  0.00530  0.63410  1.0000
  H   H4        1.0  0.07560  0.00530  0.86590  1.0000
  H   H5        1.0  0.57560  0.49470  0.36590  1.0000
  H   H6        1.0  0.42440  0.49470  0.13410  1.0000
  H   H7        1.0  0.07560  0.99470  0.36590  1.0000
  H   H8        1.0  0.92440  0.99470  0.13410  1.0000
  H   H9        1.0  0.35970  0.49110  0.60540  1.0000
  H   H10       1.0  0.64030  0.49110  0.89460  1.0000
  H   H11       1.0  0.85970  0.99110  0.60540  1.0000
  H   H12       1.0  0.14030  0.99110  0.89460  1.0000
  H   H13       1.0  0.64030  0.50890  0.39460  1.0000
  H   H14       1.0  0.35970  0.50890  0.10540  1.0000
  H   H15       1.0  0.14030  0.00890  0.39460  1.0000
  H   H16       1.0  0.85970  0.00890  0.10540  1.0000
  O   O89       1.0  0.43060  0.53006  0.52333  1.0000
  O   O90       1.0  0.56940  0.53006  0.97667  1.0000
  O   O91       1.0  0.93060  0.03006  0.52333  1.0000
  O   O92       1.0  0.06940  0.03006  0.97667  1.0000
  O   O93       1.0  0.56940  0.46994  0.47667  1.0000
  O   O94       1.0  0.43060  0.46994  0.02333  1.0000
  O   O95       1.0  0.06940  0.96994  0.47667  1.0000
  O   O96       1.0  0.93060  0.96994  0.02333  1.0000
  H   H17       1.0  0.46160  0.52030  0.50810  1.0000
  H   H18       1.0  0.53840  0.52030  0.99190  1.0000
  H   H19       1.0  0.96160  0.02030  0.50810  1.0000
  H   H20       1.0  0.03840  0.02030  0.99190  1.0000
  H   H21       1.0  0.53840  0.47970  0.49190  1.0000
  H   H22       1.0  0.46160  0.47970  0.00810  1.0000
  H   H23       1.0  0.03840  0.97970  0.49190  1.0000
  H   H24       1.0  0.96160  0.97970  0.00810  1.0000
  H   H25       1.0  0.43300  0.51570  0.54770  1.0000
  H   H26       1.0  0.56700  0.51570  0.95230  1.0000
  H   H27       1.0  0.93300  0.01570  0.54770  1.0000
  H   H28       1.0  0.06700  0.01570  0.95230  1.0000
  H   H29       1.0  0.56700  0.48430  0.45230  1.0000
  H   H30       1.0  0.43300  0.48430  0.04770  1.0000
  H   H31       1.0  0.06700  0.98430  0.45230  1.0000
  H   H32       1.0  0.93300  0.98430  0.04770  1.0000
  O   O97       1.0  0.35760  0.47180  0.44757  1.0000
  O   O98       1.0  0.64240  0.47180  0.05243  1.0000
  O   O99       1.0  0.85760  0.97180  0.44757  1.0000
  O   O100      1.0  0.14240  0.97180  0.05243  1.0000
  O   O101      1.0  0.64240  0.52820  0.55243  1.0000
  O   O102      1.0  0.35760  0.52820  0.94757  1.0000
  O   O103      1.0  0.14240  0.02820  0.55243  1.0000
  O   O104      1.0  0.85760  0.02820  0.94757  1.0000
  H   H33       1.0  0.32260  0.45360  0.44260  1.0000
  H   H34       1.0  0.67740  0.45360  0.05740  1.0000
  H   H35       1.0  0.82260  0.95360  0.44260  1.0000
  H   H36       1.0  0.17740  0.95360  0.05740  1.0000
  H   H37       1.0  0.67740  0.54640  0.55740  1.0000
  H   H38       1.0  0.32260  0.54640  0.94260  1.0000
  H   H39       1.0  0.17740  0.04640  0.55740  1.0000
  H   H40       1.0  0.82260  0.04640  0.94260  1.0000
  H   H41       1.0  0.36040  0.48430  0.42270  1.0000
  H   H42       1.0  0.63960  0.48430  0.07730  1.0000
  H   H43       1.0  0.86040  0.98430  0.42270  1.0000
  H   H44       1.0  0.13960  0.98430  0.07730  1.0000
  H   H45       1.0  0.63960  0.51570  0.57730  1.0000
  H   H46       1.0  0.36040  0.51570  0.92270  1.0000
  H   H47       1.0  0.13960  0.01570  0.57730  1.0000
  H   H48       1.0  0.86040  0.01570  0.92270  1.0000
  O   O105      1.0  0.73140  0.99926  0.50826  1.0000
  O   O106      1.0  0.26860  0.99926  0.99174  1.0000
  O   O107      1.0  0.23140  0.49926  0.50826  1.0000
  O   O108      1.0  0.76860  0.49926  0.99174  1.0000
  O   O109      1.0  0.26860  0.00074  0.49174  1.0000
  O   O110      1.0  0.73140  0.00074  0.00826  1.0000
  O   O111      1.0  0.76860  0.50074  0.49174  1.0000
  O   O112      1.0  0.23140  0.50074  0.00826  1.0000
  O   O113      1.0  0.61430  0.01745  0.48250  1.0000
  O   O114      1.0  0.38570  0.01745  0.01750  1.0000
  O   O115      1.0  0.11430  0.51745  0.48250  1.0000
  O   O116      1.0  0.88570  0.51745  0.01750  1.0000
  O   O117      1.0  0.38570  0.98255  0.51750  1.0000
  O   O118      1.0  0.61430  0.98255  0.98250  1.0000
  O   O119      1.0  0.88570  0.48255  0.51750  1.0000
  O   O120      1.0  0.11430  0.48255  0.98250  1.0000
  C   C1        1.0  0.27290  0.36056  0.47270  1.0000
  C   C2        1.0  0.72710  0.36056  0.02730  1.0000
  C   C3        1.0  0.77290  0.86056  0.47270  1.0000
  C   C4        1.0  0.22710  0.86056  0.02730  1.0000
  C   C5        1.0  0.72710  0.63944  0.52730  1.0000
  C   C6        1.0  0.27290  0.63944  0.97270  1.0000
  C   C7        1.0  0.22710  0.13944  0.52730  1.0000
  C   C8        1.0  0.77290  0.13944  0.97270  1.0000
  C   C9        1.0  0.24700  0.36542  0.42390  1.0000
  C   C10       1.0  0.75300  0.36542  0.07610  1.0000
  C   C11       1.0  0.74700  0.86542  0.42390  1.0000
  C   C12       1.0  0.25300  0.86542  0.07610  1.0000
  C   C13       1.0  0.75300  0.63458  0.57610  1.0000
  C   C14       1.0  0.24700  0.63458  0.92390  1.0000
  C   C15       1.0  0.25300  0.13458  0.57610  1.0000
  C   C16       1.0  0.74700  0.13458  0.92390  1.0000
  C   C17       1.0  0.24260  0.33140  0.39420  1.0000
  C   C18       1.0  0.75740  0.33140  0.10580  1.0000
  C   C19       1.0  0.74260  0.83140  0.39420  1.0000
  C   C20       1.0  0.25740  0.83140  0.10580  1.0000
  C   C21       1.0  0.75740  0.66860  0.60580  1.0000
  C   C22       1.0  0.24260  0.66860  0.89420  1.0000
  C   C23       1.0  0.25740  0.16860  0.60580  1.0000
  C   C24       1.0  0.74260  0.16860  0.89420  1.0000
  H   H49       1.0  0.25690  0.30460  0.40560  1.0000
  H   H50       1.0  0.74310  0.30460  0.09440  1.0000
  H   H51       1.0  0.75690  0.80460  0.40560  1.0000
  H   H52       1.0  0.24310  0.80460  0.09440  1.0000
  H   H53       1.0  0.74310  0.69540  0.59440  1.0000
  H   H54       1.0  0.25690  0.69540  0.90560  1.0000
  H   H55       1.0  0.24310  0.19540  0.59440  1.0000
  H   H56       1.0  0.75690  0.19540  0.90560  1.0000
  C   C25       1.0  0.21690  0.33670  0.34730  1.0000
  C   C26       1.0  0.78310  0.33670  0.15270  1.0000
  C   C27       1.0  0.71690  0.83670  0.34730  1.0000
  C   C28       1.0  0.28310  0.83670  0.15270  1.0000
  C   C29       1.0  0.78310  0.66330  0.65270  1.0000
  C   C30       1.0  0.21690  0.66330  0.84730  1.0000
  C   C31       1.0  0.28310  0.16330  0.65270  1.0000
  C   C32       1.0  0.71690  0.16330  0.84730  1.0000
  H   H57       1.0  0.21490  0.31360  0.32780  1.0000
  H   H58       1.0  0.78510  0.31360  0.17220  1.0000
  H   H59       1.0  0.71490  0.81360  0.32780  1.0000
  H   H60       1.0  0.28510  0.81360  0.17220  1.0000
  H   H61       1.0  0.78510  0.68640  0.67220  1.0000
  H   H62       1.0  0.21490  0.68640  0.82780  1.0000
  H   H63       1.0  0.28510  0.18640  0.67220  1.0000
  H   H64       1.0  0.71490  0.18640  0.82780  1.0000
  C   C33       1.0  0.19450  0.37620  0.32970  1.0000
  C   C34       1.0  0.80550  0.37620  0.17030  1.0000
  C   C35       1.0  0.69450  0.87620  0.32970  1.0000
  C   C36       1.0  0.30550  0.87620  0.17030  1.0000
  C   C37       1.0  0.80550  0.62380  0.67030  1.0000
  C   C38       1.0  0.19450  0.62380  0.82970  1.0000
  C   C39       1.0  0.30550  0.12380  0.67030  1.0000
  C   C40       1.0  0.69450  0.12380  0.82970  1.0000
  C   C41       1.0  0.19710  0.40990  0.35920  1.0000
  C   C42       1.0  0.80290  0.40990  0.14080  1.0000
  C   C43       1.0  0.69710  0.90990  0.35920  1.0000
  C   C44       1.0  0.30290  0.90990  0.14080  1.0000
  C   C45       1.0  0.80290  0.59010  0.64080  1.0000
  C   C46       1.0  0.19710  0.59010  0.85920  1.0000
  C   C47       1.0  0.30290  0.09010  0.64080  1.0000
  C   C48       1.0  0.69710  0.09010  0.85920  1.0000
  H   H65       1.0  0.18190  0.43650  0.34770  1.0000
  H   H66       1.0  0.81810  0.43650  0.15230  1.0000
  H   H67       1.0  0.68190  0.93650  0.34770  1.0000
  H   H68       1.0  0.31810  0.93650  0.15230  1.0000
  H   H69       1.0  0.81810  0.56350  0.65230  1.0000
  H   H70       1.0  0.18190  0.56350  0.84770  1.0000
  H   H71       1.0  0.31810  0.06350  0.65230  1.0000
  H   H72       1.0  0.68190  0.06350  0.84770  1.0000
  C   C49       1.0  0.22230  0.40490  0.40590  1.0000
  C   C50       1.0  0.77770  0.40490  0.09410  1.0000
  C   C51       1.0  0.72230  0.90490  0.40590  1.0000
  C   C52       1.0  0.27770  0.90490  0.09410  1.0000
  C   C53       1.0  0.77770  0.59510  0.59410  1.0000
  C   C54       1.0  0.22230  0.59510  0.90590  1.0000
  C   C55       1.0  0.27770  0.09510  0.59410  1.0000
  C   C56       1.0  0.72230  0.09510  0.90590  1.0000
  H   H73       1.0  0.22260  0.42790  0.42540  1.0000
  H   H74       1.0  0.77740  0.42790  0.07460  1.0000
  H   H75       1.0  0.72260  0.92790  0.42540  1.0000
  H   H76       1.0  0.27740  0.92790  0.07460  1.0000
  H   H77       1.0  0.77740  0.57210  0.57460  1.0000
  H   H78       1.0  0.22260  0.57210  0.92540  1.0000
  H   H79       1.0  0.27740  0.07210  0.57460  1.0000
  H   H80       1.0  0.72260  0.07210  0.92540  1.0000
  C   C57       1.0  0.16920  0.38230  0.27990  1.0000
  C   C58       1.0  0.83080  0.38230  0.22010  1.0000
  C   C59       1.0  0.66920  0.88230  0.27990  1.0000
  C   C60       1.0  0.33080  0.88230  0.22010  1.0000
  C   C61       1.0  0.83080  0.61770  0.72010  1.0000
  C   C62       1.0  0.16920  0.61770  0.77990  1.0000
  C   C63       1.0  0.33080  0.11770  0.72010  1.0000
  C   C64       1.0  0.66920  0.11770  0.77990  1.0000
  C   C65       1.0  0.12220  0.35340  0.25350  1.0000
  C   C66       1.0  0.87780  0.35340  0.24650  1.0000
  C   C67       1.0  0.62220  0.85340  0.25350  1.0000
  C   C68       1.0  0.37780  0.85340  0.24650  1.0000
  C   C69       1.0  0.87780  0.64660  0.74650  1.0000
  C   C70       1.0  0.12220  0.64660  0.75350  1.0000
  C   C71       1.0  0.37780  0.14660  0.74650  1.0000
  C   C72       1.0  0.62220  0.14660  0.75350  1.0000
  H   H81       1.0  0.10820  0.32900  0.26710  1.0000
  H   H82       1.0  0.89180  0.32900  0.23290  1.0000
  H   H83       1.0  0.60820  0.82900  0.26710  1.0000
  H   H84       1.0  0.39180  0.82900  0.23290  1.0000
  H   H85       1.0  0.89180  0.67100  0.73290  1.0000
  H   H86       1.0  0.10820  0.67100  0.76710  1.0000
  H   H87       1.0  0.39180  0.17100  0.73290  1.0000
  H   H88       1.0  0.60820  0.17100  0.76710  1.0000
  C   C73       1.0  0.09520  0.36010  0.20680  1.0000
  C   C74       1.0  0.90480  0.36010  0.29320  1.0000
  C   C75       1.0  0.59520  0.86010  0.20680  1.0000
  C   C76       1.0  0.40480  0.86010  0.29320  1.0000
  C   C77       1.0  0.90480  0.63990  0.79320  1.0000
  C   C78       1.0  0.09520  0.63990  0.70680  1.0000
  C   C79       1.0  0.40480  0.13990  0.79320  1.0000
  C   C80       1.0  0.59520  0.13990  0.70680  1.0000
  C   C81       1.0  0.12110  0.39500  0.18710  1.0000
  C   C82       1.0  0.87890  0.39500  0.31290  1.0000
  C   C83       1.0  0.62110  0.89500  0.18710  1.0000
  C   C84       1.0  0.37890  0.89500  0.31290  1.0000
  C   C85       1.0  0.87890  0.60500  0.81290  1.0000
  C   C86       1.0  0.12110  0.60500  0.68710  1.0000
  C   C87       1.0  0.37890  0.10500  0.81290  1.0000
  C   C88       1.0  0.62110  0.10500  0.68710  1.0000
  H   H89       1.0  0.10660  0.39890  0.15570  1.0000
  H   H90       1.0  0.89340  0.39890  0.34430  1.0000
  H   H91       1.0  0.60660  0.89890  0.15570  1.0000
  H   H92       1.0  0.39340  0.89890  0.34430  1.0000
  H   H93       1.0  0.89340  0.60110  0.84430  1.0000
  H   H94       1.0  0.10660  0.60110  0.65570  1.0000
  H   H95       1.0  0.39340  0.10110  0.84430  1.0000
  H   H96       1.0  0.60660  0.10110  0.65570  1.0000
  C   C89       1.0  0.16820  0.42460  0.21270  1.0000
  C   C90       1.0  0.83180  0.42460  0.28730  1.0000
  C   C91       1.0  0.66820  0.92460  0.21270  1.0000
  C   C92       1.0  0.33180  0.92460  0.28730  1.0000
  C   C93       1.0  0.83180  0.57540  0.78730  1.0000
  C   C94       1.0  0.16820  0.57540  0.71270  1.0000
  C   C95       1.0  0.33180  0.07540  0.78730  1.0000
  C   C96       1.0  0.66820  0.07540  0.71270  1.0000
  C   C97       1.0  0.19190  0.41750  0.25820  1.0000
  C   C98       1.0  0.80810  0.41750  0.24180  1.0000
  C   C99       1.0  0.69190  0.91750  0.25820  1.0000
  C   C100      1.0  0.30810  0.91750  0.24180  1.0000
  C   C101      1.0  0.80810  0.58250  0.74180  1.0000
  C   C102      1.0  0.19190  0.58250  0.75820  1.0000
  C   C103      1.0  0.30810  0.08250  0.74180  1.0000
  C   C104      1.0  0.69190  0.08250  0.75820  1.0000
  H   H97       1.0  0.22430  0.43690  0.27530  1.0000
  H   H98       1.0  0.77570  0.43690  0.22470  1.0000
  H   H99       1.0  0.72430  0.93690  0.27530  1.0000
  H   H100      1.0  0.27570  0.93690  0.22470  1.0000
  H   H101      1.0  0.77570  0.56310  0.72470  1.0000
  H   H102      1.0  0.22430  0.56310  0.77530  1.0000
  H   H103      1.0  0.27570  0.06310  0.72470  1.0000
  H   H104      1.0  0.72430  0.06310  0.77530  1.0000
  C   C105      1.0  0.19320  0.46320  0.19060  1.0000
  C   C106      1.0  0.80680  0.46320  0.30940  1.0000
  C   C107      1.0  0.69320  0.96320  0.19060  1.0000
  C   C108      1.0  0.30680  0.96320  0.30940  1.0000
  C   C109      1.0  0.80680  0.53680  0.80940  1.0000
  C   C110      1.0  0.19320  0.53680  0.69060  1.0000
  C   C111      1.0  0.30680  0.03680  0.80940  1.0000
  C   C112      1.0  0.69320  0.03680  0.69060  1.0000
  C   C113      1.0  0.20280  0.46200  0.14620  1.0000
  C   C114      1.0  0.79720  0.46200  0.35380  1.0000
  C   C115      1.0  0.70280  0.96200  0.14620  1.0000
  C   C116      1.0  0.29720  0.96200  0.35380  1.0000
  C   C117      1.0  0.79720  0.53800  0.85380  1.0000
  C   C118      1.0  0.20280  0.53800  0.64620  1.0000
  C   C119      1.0  0.29720  0.03800  0.85380  1.0000
  C   C120      1.0  0.70280  0.03800  0.64620  1.0000
  H   H105      1.0  0.19250  0.43710  0.12950  1.0000
  H   H106      1.0  0.80750  0.43710  0.37050  1.0000
  H   H107      1.0  0.69250  0.93710  0.12950  1.0000
  H   H108      1.0  0.30750  0.93710  0.37050  1.0000
  H   H109      1.0  0.80750  0.56290  0.87050  1.0000
  H   H110      1.0  0.19250  0.56290  0.62950  1.0000
  H   H111      1.0  0.30750  0.06290  0.87050  1.0000
  H   H112      1.0  0.69250  0.06290  0.62950  1.0000
  C   C121      1.0  0.20740  0.50040  0.21390  1.0000
  C   C122      1.0  0.79260  0.50040  0.28610  1.0000
  C   C123      1.0  0.70740  0.00040  0.21390  1.0000
  C   C124      1.0  0.29260  0.00040  0.28610  1.0000
  C   C125      1.0  0.79260  0.49960  0.78610  1.0000
  C   C126      1.0  0.20740  0.49960  0.71390  1.0000
  C   C127      1.0  0.29260  0.99960  0.78610  1.0000
  C   C128      1.0  0.70740  0.99960  0.71390  1.0000
  H   H113      1.0  0.19790  0.50230  0.24330  1.0000
  H   H114      1.0  0.80210  0.50230  0.25670  1.0000
  H   H115      1.0  0.69790  0.00230  0.24330  1.0000
  H   H116      1.0  0.30210  0.00230  0.25670  1.0000
  H   H117      1.0  0.80210  0.49770  0.75670  1.0000
  H   H118      1.0  0.19790  0.49770  0.74330  1.0000
  H   H119      1.0  0.30210  0.99770  0.75670  1.0000
  H   H120      1.0  0.69790  0.99770  0.74330  1.0000
  C   C129      1.0  0.23610  0.53590  0.19450  1.0000
  C   C130      1.0  0.76390  0.53590  0.30550  1.0000
  C   C131      1.0  0.73610  0.03590  0.19450  1.0000
  C   C132      1.0  0.26390  0.03590  0.30550  1.0000
  C   C133      1.0  0.76390  0.46410  0.80550  1.0000
  C   C134      1.0  0.23610  0.46410  0.69450  1.0000
  C   C135      1.0  0.26390  0.96410  0.80550  1.0000
  C   C136      1.0  0.73610  0.96410  0.69450  1.0000
  H   H121      1.0  0.24920  0.56030  0.21160  1.0000
  H   H122      1.0  0.75080  0.56030  0.28840  1.0000
  H   H123      1.0  0.74920  0.06030  0.21160  1.0000
  H   H124      1.0  0.25080  0.06030  0.28840  1.0000
  H   H125      1.0  0.75080  0.43970  0.78840  1.0000
  H   H126      1.0  0.24920  0.43970  0.71160  1.0000
  H   H127      1.0  0.25080  0.93970  0.78840  1.0000
  H   H128      1.0  0.74920  0.93970  0.71160  1.0000
  C   C137      1.0  0.04460  0.32770  0.17910  1.0000
  C   C138      1.0  0.95540  0.32770  0.32090  1.0000
  C   C139      1.0  0.54460  0.82770  0.17910  1.0000
  C   C140      1.0  0.45540  0.82770  0.32090  1.0000
  C   C141      1.0  0.95540  0.67230  0.82090  1.0000
  C   C142      1.0  0.04460  0.67230  0.67910  1.0000
  C   C143      1.0  0.45540  0.17230  0.82090  1.0000
  C   C144      1.0  0.54460  0.17230  0.67910  1.0000
  C   C145      1.0  0.03610  0.28850  0.19450  1.0000
  C   C146      1.0  0.96390  0.28850  0.30550  1.0000
  C   C147      1.0  0.53610  0.78850  0.19450  1.0000
  C   C148      1.0  0.46390  0.78850  0.30550  1.0000
  C   C149      1.0  0.96390  0.71150  0.80550  1.0000
  C   C150      1.0  0.03610  0.71150  0.69450  1.0000
  C   C151      1.0  0.46390  0.21150  0.80550  1.0000
  C   C152      1.0  0.53610  0.21150  0.69450  1.0000
  H   H129      1.0  0.06480  0.28020  0.22240  1.0000
  H   H130      1.0  0.93520  0.28020  0.27760  1.0000
  H   H131      1.0  0.56480  0.78020  0.22240  1.0000
  H   H132      1.0  0.43520  0.78020  0.27760  1.0000
  H   H133      1.0  0.93520  0.71980  0.77760  1.0000
  H   H134      1.0  0.06480  0.71980  0.72240  1.0000
  H   H135      1.0  0.43520  0.21980  0.77760  1.0000
  H   H136      1.0  0.56480  0.21980  0.72240  1.0000
  C   C153      1.0  0.00090  0.33790  0.13770  1.0000
  C   C154      1.0  0.99910  0.33790  0.36230  1.0000
  C   C155      1.0  0.50090  0.83790  0.13770  1.0000
  C   C156      1.0  0.49910  0.83790  0.36230  1.0000
  C   C157      1.0  0.99910  0.66210  0.86230  1.0000
  C   C158      1.0  0.00090  0.66210  0.63770  1.0000
  C   C159      1.0  0.49910  0.16210  0.86230  1.0000
  C   C160      1.0  0.50090  0.16210  0.63770  1.0000
  H   H137      1.0  0.00520  0.36470  0.12550  1.0000
  H   H138      1.0  0.99480  0.36470  0.37450  1.0000
  H   H139      1.0  0.50520  0.86470  0.12550  1.0000
  H   H140      1.0  0.49480  0.86470  0.37450  1.0000
  H   H141      1.0  0.99480  0.63530  0.87450  1.0000
  H   H142      1.0  0.00520  0.63530  0.62550  1.0000
  H   H143      1.0  0.49480  0.13530  0.87450  1.0000
  H   H144      1.0  0.50520  0.13530  0.62550  1.0000
  C   C161      1.0  0.95010  0.30920  0.11350  1.0000
  C   C162      1.0  0.04990  0.30920  0.38650  1.0000
  C   C163      1.0  0.45010  0.80920  0.11350  1.0000
  C   C164      1.0  0.54990  0.80920  0.38650  1.0000
  C   C165      1.0  0.04990  0.69080  0.88650  1.0000
  C   C166      1.0  0.95010  0.69080  0.61350  1.0000
  C   C167      1.0  0.54990  0.19080  0.88650  1.0000
  C   C168      1.0  0.45010  0.19080  0.61350  1.0000
  H   H145      1.0  0.92020  0.31720  0.08580  1.0000
  H   H146      1.0  0.07980  0.31720  0.41420  1.0000
  H   H147      1.0  0.42020  0.81720  0.08580  1.0000
  H   H148      1.0  0.57980  0.81720  0.41420  1.0000
  H   H149      1.0  0.07980  0.68280  0.91420  1.0000
  H   H150      1.0  0.92020  0.68280  0.58580  1.0000
  H   H151      1.0  0.57980  0.18280  0.91420  1.0000
  H   H152      1.0  0.42020  0.18280  0.58580  1.0000
  C   C169      1.0  0.14440  0.31510  0.56380  1.0000
  C   C170      1.0  0.85560  0.31510  0.93620  1.0000
  C   C171      1.0  0.64440  0.81510  0.56380  1.0000
  C   C172      1.0  0.35560  0.81510  0.93620  1.0000
  C   C173      1.0  0.85560  0.68490  0.43620  1.0000
  C   C174      1.0  0.14440  0.68490  0.06380  1.0000
  C   C175      1.0  0.35560  0.18490  0.43620  1.0000
  C   C176      1.0  0.64440  0.18490  0.06380  1.0000
  C   C177      1.0  0.06740  0.29920  0.56410  1.0000
  C   C178      1.0  0.93260  0.29920  0.93590  1.0000
  C   C179      1.0  0.56740  0.79920  0.56410  1.0000
  C   C180      1.0  0.43260  0.79920  0.93590  1.0000
  C   C181      1.0  0.93260  0.70080  0.43590  1.0000
  C   C182      1.0  0.06740  0.70080  0.06410  1.0000
  C   C183      1.0  0.43260  0.20080  0.43590  1.0000
  C   C184      1.0  0.56740  0.20080  0.06410  1.0000
  C   C185      1.0  0.03660  0.26570  0.53630  1.0000
  C   C186      1.0  0.96340  0.26570  0.96370  1.0000
  C   C187      1.0  0.53660  0.76570  0.53630  1.0000
  C   C188      1.0  0.46340  0.76570  0.96370  1.0000
  C   C189      1.0  0.96340  0.73430  0.46370  1.0000
  C   C190      1.0  0.03660  0.73430  0.03630  1.0000
  C   C191      1.0  0.46340  0.23430  0.46370  1.0000
  C   C192      1.0  0.53660  0.23430  0.03630  1.0000
  H   H153      1.0  0.06350  0.25310  0.51640  1.0000
  H   H154      1.0  0.93650  0.25310  0.98360  1.0000
  H   H155      1.0  0.56350  0.75310  0.51640  1.0000
  H   H156      1.0  0.43650  0.75310  0.98360  1.0000
  H   H157      1.0  0.93650  0.74690  0.48360  1.0000
  H   H158      1.0  0.06350  0.74690  0.01640  1.0000
  H   H159      1.0  0.43650  0.24690  0.48360  1.0000
  H   H160      1.0  0.56350  0.24690  0.01640  1.0000
  C   C193      1.0  0.02340  0.31890  0.59100  1.0000
  C   C194      1.0  0.97660  0.31890  0.90900  1.0000
  C   C195      1.0  0.52340  0.81890  0.59100  1.0000
  C   C196      1.0  0.47660  0.81890  0.90900  1.0000
  C   C197      1.0  0.97660  0.68110  0.40900  1.0000
  C   C198      1.0  0.02340  0.68110  0.09100  1.0000
  C   C199      1.0  0.47660  0.18110  0.40900  1.0000
  C   C200      1.0  0.52340  0.18110  0.09100  1.0000
  H   H161      1.0  0.04220  0.34190  0.60910  1.0000
  H   H162      1.0  0.95780  0.34190  0.89090  1.0000
  H   H163      1.0  0.54220  0.84190  0.60910  1.0000
  H   H164      1.0  0.45780  0.84190  0.89090  1.0000
  H   H165      1.0  0.95780  0.65810  0.39090  1.0000
  H   H166      1.0  0.04220  0.65810  0.10910  1.0000
  H   H167      1.0  0.45780  0.15810  0.39090  1.0000
  H   H168      1.0  0.54220  0.15810  0.10910  1.0000
  C   C201      1.0  0.88730  0.23870  0.10340  1.0000
  C   C202      1.0  0.11270  0.23870  0.39660  1.0000
  C   C203      1.0  0.38730  0.73870  0.10340  1.0000
  C   C204      1.0  0.61270  0.73870  0.39660  1.0000
  C   C205      1.0  0.11270  0.76130  0.89660  1.0000
  C   C206      1.0  0.88730  0.76130  0.60340  1.0000
  C   C207      1.0  0.61270  0.26130  0.89660  1.0000
  C   C208      1.0  0.38730  0.26130  0.60340  1.0000
  C   C209      1.0  0.94400  0.27040  0.12970  1.0000
  C   C210      1.0  0.05600  0.27040  0.37030  1.0000
  C   C211      1.0  0.44400  0.77040  0.12970  1.0000
  C   C212      1.0  0.55600  0.77040  0.37030  1.0000
  C   C213      1.0  0.05600  0.72960  0.87030  1.0000
  C   C214      1.0  0.94400  0.72960  0.62970  1.0000
  C   C215      1.0  0.55600  0.22960  0.87030  1.0000
  C   C216      1.0  0.44400  0.22960  0.62970  1.0000
  C   C217      1.0  0.98560  0.25970  0.17010  1.0000
  C   C218      1.0  0.01440  0.25970  0.32990  1.0000
  C   C219      1.0  0.48560  0.75970  0.17010  1.0000
  C   C220      1.0  0.51440  0.75970  0.32990  1.0000
  C   C221      1.0  0.01440  0.74030  0.82990  1.0000
  C   C222      1.0  0.98560  0.74030  0.67010  1.0000
  C   C223      1.0  0.51440  0.24030  0.82990  1.0000
  C   C224      1.0  0.48560  0.24030  0.67010  1.0000
  H   H169      1.0  0.98080  0.23290  0.18200  1.0000
  H   H170      1.0  0.01920  0.23290  0.31800  1.0000
  H   H171      1.0  0.48080  0.73290  0.18200  1.0000
  H   H172      1.0  0.51920  0.73290  0.31800  1.0000
  H   H173      1.0  0.01920  0.76710  0.81800  1.0000
  H   H174      1.0  0.98080  0.76710  0.68200  1.0000
  H   H175      1.0  0.51920  0.26710  0.81800  1.0000
  H   H176      1.0  0.48080  0.26710  0.68200  1.0000
  C   C225      1.0  0.27240  0.57187  0.12710  1.0000
  C   C226      1.0  0.72760  0.57187  0.37290  1.0000
  C   C227      1.0  0.77240  0.07187  0.12710  1.0000
  C   C228      1.0  0.22760  0.07187  0.37290  1.0000
  C   C229      1.0  0.72760  0.42813  0.87290  1.0000
  C   C230      1.0  0.27240  0.42813  0.62710  1.0000
  C   C231      1.0  0.22760  0.92813  0.87290  1.0000
  C   C232      1.0  0.77240  0.92813  0.62710  1.0000
  C   C233      1.0  0.24440  0.53360  0.14960  1.0000
  C   C234      1.0  0.75560  0.53360  0.35040  1.0000
  C   C235      1.0  0.74440  0.03360  0.14960  1.0000
  C   C236      1.0  0.25560  0.03360  0.35040  1.0000
  C   C237      1.0  0.75560  0.46640  0.85040  1.0000
  C   C238      1.0  0.24440  0.46640  0.64960  1.0000
  C   C239      1.0  0.25560  0.96640  0.85040  1.0000
  C   C240      1.0  0.74440  0.96640  0.64960  1.0000
  C   C241      1.0  0.22750  0.49719  0.12570  1.0000
  C   C242      1.0  0.77250  0.49719  0.37430  1.0000
  C   C243      1.0  0.72750  0.99719  0.12570  1.0000
  C   C244      1.0  0.27250  0.99719  0.37430  1.0000
  C   C245      1.0  0.77250  0.50281  0.87430  1.0000
  C   C246      1.0  0.22750  0.50281  0.62570  1.0000
  C   C247      1.0  0.27250  0.00281  0.87430  1.0000
  C   C248      1.0  0.72750  0.00281  0.62570  1.0000
  H   H177      1.0  0.23250  0.49580  0.09540  1.0000
  H   H178      1.0  0.76750  0.49580  0.40460  1.0000
  H   H179      1.0  0.73250  0.99580  0.09540  1.0000
  H   H180      1.0  0.26750  0.99580  0.40460  1.0000
  H   H181      1.0  0.76750  0.50420  0.90460  1.0000
  H   H182      1.0  0.23250  0.50420  0.59540  1.0000
  H   H183      1.0  0.26750  0.00420  0.90460  1.0000
  H   H184      1.0  0.73250  0.00420  0.59540  1.0000
  C   C249      1.0  0.47870  0.39700  0.55530  1.0000
  C   C250      1.0  0.52130  0.39700  0.94470  1.0000
  C   C251      1.0  0.97870  0.89700  0.55530  1.0000
  C   C252      1.0  0.02130  0.89700  0.94470  1.0000
  C   C253      1.0  0.52130  0.60300  0.44470  1.0000
  C   C254      1.0  0.47870  0.60300  0.05530  1.0000
  C   C255      1.0  0.02130  0.10300  0.44470  1.0000
  C   C256      1.0  0.97870  0.10300  0.05530  1.0000
  C   C257      1.0  0.54170  0.36482  0.56130  1.0000
  C   C258      1.0  0.45830  0.36482  0.93870  1.0000
  C   C259      1.0  0.04170  0.86482  0.56130  1.0000
  C   C260      1.0  0.95830  0.86482  0.93870  1.0000
  C   C261      1.0  0.45830  0.63518  0.43870  1.0000
  C   C262      1.0  0.54170  0.63518  0.06130  1.0000
  C   C263      1.0  0.95830  0.13518  0.43870  1.0000
  C   C264      1.0  0.04170  0.13518  0.06130  1.0000
  C   C265      1.0  0.60530  0.37400  0.54430  1.0000
  C   C266      1.0  0.39470  0.37400  0.95570  1.0000
  C   C267      1.0  0.10530  0.87400  0.54430  1.0000
  C   C268      1.0  0.89470  0.87400  0.95570  1.0000
  C   C269      1.0  0.39470  0.62600  0.45570  1.0000
  C   C270      1.0  0.60530  0.62600  0.04430  1.0000
  C   C271      1.0  0.89470  0.12600  0.45570  1.0000
  C   C272      1.0  0.10530  0.12600  0.04430  1.0000
  H   H185      1.0  0.61000  0.40000  0.53070  1.0000
  H   H186      1.0  0.39000  0.40000  0.96930  1.0000
  H   H187      1.0  0.11000  0.90000  0.53070  1.0000
  H   H188      1.0  0.89000  0.90000  0.96930  1.0000
  H   H189      1.0  0.39000  0.60000  0.46930  1.0000
  H   H190      1.0  0.61000  0.60000  0.03070  1.0000
  H   H191      1.0  0.89000  0.10000  0.46930  1.0000
  H   H192      1.0  0.11000  0.10000  0.03070  1.0000
  C   C273      1.0  0.66160  0.34430  0.54770  1.0000
  C   C274      1.0  0.33840  0.34430  0.95230  1.0000
  C   C275      1.0  0.16160  0.84430  0.54770  1.0000
  C   C276      1.0  0.83840  0.84430  0.95230  1.0000
  C   C277      1.0  0.33840  0.65570  0.45230  1.0000
  C   C278      1.0  0.66160  0.65570  0.04770  1.0000
  C   C279      1.0  0.83840  0.15570  0.45230  1.0000
  C   C280      1.0  0.16160  0.15570  0.04770  1.0000
  H   H193      1.0  0.70430  0.35080  0.53640  1.0000
  H   H194      1.0  0.29570  0.35080  0.96360  1.0000
  H   H195      1.0  0.20430  0.85080  0.53640  1.0000
  H   H196      1.0  0.79570  0.85080  0.96360  1.0000
  H   H197      1.0  0.29570  0.64920  0.46360  1.0000
  H   H198      1.0  0.70430  0.64920  0.03640  1.0000
  H   H199      1.0  0.79570  0.14920  0.46360  1.0000
  H   H200      1.0  0.20430  0.14920  0.03640  1.0000
  C   C281      1.0  0.65620  0.30547  0.56740  1.0000
  C   C282      1.0  0.34380  0.30547  0.93260  1.0000
  C   C283      1.0  0.15620  0.80547  0.56740  1.0000
  C   C284      1.0  0.84380  0.80547  0.93260  1.0000
  C   C285      1.0  0.34380  0.69453  0.43260  1.0000
  C   C286      1.0  0.65620  0.69453  0.06740  1.0000
  C   C287      1.0  0.84380  0.19453  0.43260  1.0000
  C   C288      1.0  0.15620  0.19453  0.06740  1.0000
  C   C289      1.0  0.59250  0.29690  0.58450  1.0000
  C   C290      1.0  0.40750  0.29690  0.91550  1.0000
  C   C291      1.0  0.09250  0.79690  0.58450  1.0000
  C   C292      1.0  0.90750  0.79690  0.91550  1.0000
  C   C293      1.0  0.40750  0.70310  0.41550  1.0000
  C   C294      1.0  0.59250  0.70310  0.08450  1.0000
  C   C295      1.0  0.90750  0.20310  0.41550  1.0000
  C   C296      1.0  0.09250  0.20310  0.08450  1.0000
  H   H201      1.0  0.58740  0.27090  0.59810  1.0000
  H   H202      1.0  0.41260  0.27090  0.90190  1.0000
  H   H203      1.0  0.08740  0.77090  0.59810  1.0000
  H   H204      1.0  0.91260  0.77090  0.90190  1.0000
  H   H205      1.0  0.41260  0.72910  0.40190  1.0000
  H   H206      1.0  0.58740  0.72910  0.09810  1.0000
  H   H207      1.0  0.91260  0.22910  0.40190  1.0000
  H   H208      1.0  0.08740  0.22910  0.09810  1.0000
  C   C297      1.0  0.53630  0.32690  0.58170  1.0000
  C   C298      1.0  0.46370  0.32690  0.91830  1.0000
  C   C299      1.0  0.03630  0.82690  0.58170  1.0000
  C   C300      1.0  0.96370  0.82690  0.91830  1.0000
  C   C301      1.0  0.46370  0.67310  0.41830  1.0000
  C   C302      1.0  0.53630  0.67310  0.08170  1.0000
  C   C303      1.0  0.96370  0.17310  0.41830  1.0000
  C   C304      1.0  0.03630  0.17310  0.08170  1.0000
  H   H209      1.0  0.49420  0.32090  0.59390  1.0000
  H   H210      1.0  0.50580  0.32090  0.90610  1.0000
  H   H211      1.0  0.99420  0.82090  0.59390  1.0000
  H   H212      1.0  0.00580  0.82090  0.90610  1.0000
  H   H213      1.0  0.50580  0.67910  0.40610  1.0000
  H   H214      1.0  0.49420  0.67910  0.09390  1.0000
  H   H215      1.0  0.00580  0.17910  0.40610  1.0000
  H   H216      1.0  0.99420  0.17910  0.09390  1.0000
  C   C305      1.0  0.71570  0.27275  0.56720  1.0000
  C   C306      1.0  0.28430  0.27275  0.93280  1.0000
  C   C307      1.0  0.21570  0.77275  0.56720  1.0000
  C   C308      1.0  0.78430  0.77275  0.93280  1.0000
  C   C309      1.0  0.28430  0.72725  0.43280  1.0000
  C   C310      1.0  0.71570  0.72725  0.06720  1.0000
  C   C311      1.0  0.78430  0.22725  0.43280  1.0000
  C   C312      1.0  0.21570  0.22725  0.06720  1.0000
  C   C313      1.0  0.78980  0.28470  0.57000  1.0000
  C   C314      1.0  0.21020  0.28470  0.93000  1.0000
  C   C315      1.0  0.28980  0.78470  0.57000  1.0000
  C   C316      1.0  0.71020  0.78470  0.93000  1.0000
  C   C317      1.0  0.21020  0.71530  0.43000  1.0000
  C   C318      1.0  0.78980  0.71530  0.07000  1.0000
  C   C319      1.0  0.71020  0.21530  0.43000  1.0000
  C   C320      1.0  0.28980  0.21530  0.07000  1.0000
  H   H217      1.0  0.80290  0.31290  0.57560  1.0000
  H   H218      1.0  0.19710  0.31290  0.92440  1.0000
  H   H219      1.0  0.30290  0.81290  0.57560  1.0000
  H   H220      1.0  0.69710  0.81290  0.92440  1.0000
  H   H221      1.0  0.19710  0.68710  0.42440  1.0000
  H   H222      1.0  0.80290  0.68710  0.07560  1.0000
  H   H223      1.0  0.69710  0.18710  0.42440  1.0000
  H   H224      1.0  0.30290  0.18710  0.07560  1.0000
  C   C321      1.0  0.84550  0.25570  0.56470  1.0000
  C   C322      1.0  0.15450  0.25570  0.93530  1.0000
  C   C323      1.0  0.34550  0.75570  0.56470  1.0000
  C   C324      1.0  0.65450  0.75570  0.93530  1.0000
  C   C325      1.0  0.15450  0.74430  0.43530  1.0000
  C   C326      1.0  0.84550  0.74430  0.06470  1.0000
  C   C327      1.0  0.65450  0.24430  0.43530  1.0000
  C   C328      1.0  0.34550  0.24430  0.06470  1.0000
  C   C329      1.0  0.82440  0.21320  0.55680  1.0000
  C   C330      1.0  0.17560  0.21320  0.94320  1.0000
  C   C331      1.0  0.32440  0.71320  0.55680  1.0000
  C   C332      1.0  0.67560  0.71320  0.94320  1.0000
  C   C333      1.0  0.17560  0.78680  0.44320  1.0000
  C   C334      1.0  0.82440  0.78680  0.05680  1.0000
  C   C335      1.0  0.67560  0.28680  0.44320  1.0000
  C   C336      1.0  0.32440  0.28680  0.05680  1.0000
  H   H225      1.0  0.86020  0.19340  0.55250  1.0000
  H   H226      1.0  0.13980  0.19340  0.94750  1.0000
  H   H227      1.0  0.36020  0.69340  0.55250  1.0000
  H   H228      1.0  0.63980  0.69340  0.94750  1.0000
  H   H229      1.0  0.13980  0.80660  0.44750  1.0000
  H   H230      1.0  0.86020  0.80660  0.05250  1.0000
  H   H231      1.0  0.63980  0.30660  0.44750  1.0000
  H   H232      1.0  0.36020  0.30660  0.05250  1.0000
  C   C337      1.0  0.75120  0.20023  0.55510  1.0000
  C   C338      1.0  0.24880  0.20023  0.94490  1.0000
  C   C339      1.0  0.25120  0.70023  0.55510  1.0000
  C   C340      1.0  0.74880  0.70023  0.94490  1.0000
  C   C341      1.0  0.24880  0.79977  0.44490  1.0000
  C   C342      1.0  0.75120  0.79977  0.05510  1.0000
  C   C343      1.0  0.74880  0.29977  0.44490  1.0000
  C   C344      1.0  0.25120  0.29977  0.05510  1.0000
  C   C345      1.0  0.69650  0.23020  0.56020  1.0000
  C   C346      1.0  0.30350  0.23020  0.93980  1.0000
  C   C347      1.0  0.19650  0.73020  0.56020  1.0000
  C   C348      1.0  0.80350  0.73020  0.93980  1.0000
  C   C349      1.0  0.30350  0.76980  0.43980  1.0000
  C   C350      1.0  0.69650  0.76980  0.06020  1.0000
  C   C351      1.0  0.80350  0.26980  0.43980  1.0000
  C   C352      1.0  0.19650  0.26980  0.06020  1.0000
  H   H233      1.0  0.64730  0.22160  0.55880  1.0000
  H   H234      1.0  0.35270  0.22160  0.94120  1.0000
  H   H235      1.0  0.14730  0.72160  0.55880  1.0000
  H   H236      1.0  0.85270  0.72160  0.94120  1.0000
  H   H237      1.0  0.35270  0.77840  0.44120  1.0000
  H   H238      1.0  0.64730  0.77840  0.05880  1.0000
  H   H239      1.0  0.85270  0.27840  0.44120  1.0000
  H   H240      1.0  0.14730  0.27840  0.05880  1.0000
  C   C353      1.0  0.92210  0.27009  0.56540  1.0000
  C   C354      1.0  0.07790  0.27009  0.93460  1.0000
  C   C355      1.0  0.42210  0.77009  0.56540  1.0000
  C   C356      1.0  0.57790  0.77009  0.93460  1.0000
  C   C357      1.0  0.07790  0.72991  0.43460  1.0000
  C   C358      1.0  0.92210  0.72991  0.06540  1.0000
  C   C359      1.0  0.57790  0.22991  0.43460  1.0000
  C   C360      1.0  0.42210  0.22991  0.06540  1.0000
  C   C361      1.0  0.96600  0.25120  0.53870  1.0000
  C   C362      1.0  0.03400  0.25120  0.96130  1.0000
  C   C363      1.0  0.46600  0.75120  0.53870  1.0000
  C   C364      1.0  0.53400  0.75120  0.96130  1.0000
  C   C365      1.0  0.03400  0.74880  0.46130  1.0000
  C   C366      1.0  0.96600  0.74880  0.03870  1.0000
  C   C367      1.0  0.53400  0.24880  0.46130  1.0000
  C   C368      1.0  0.46600  0.24880  0.03870  1.0000
  H   H241      1.0  0.94730  0.22760  0.52140  1.0000
  H   H242      1.0  0.05270  0.22760  0.97860  1.0000
  H   H243      1.0  0.44730  0.72760  0.52140  1.0000
  H   H244      1.0  0.55270  0.72760  0.97860  1.0000
  H   H245      1.0  0.05270  0.77240  0.47860  1.0000
  H   H246      1.0  0.94730  0.77240  0.02140  1.0000
  H   H247      1.0  0.55270  0.27240  0.47860  1.0000
  H   H248      1.0  0.44730  0.27240  0.02140  1.0000
  C   C369      1.0  0.95250  0.30460  0.59110  1.0000
  C   C370      1.0  0.04750  0.30460  0.90890  1.0000
  C   C371      1.0  0.45250  0.80460  0.59110  1.0000
  C   C372      1.0  0.54750  0.80460  0.90890  1.0000
  C   C373      1.0  0.04750  0.69540  0.40890  1.0000
  C   C374      1.0  0.95250  0.69540  0.09110  1.0000
  C   C375      1.0  0.54750  0.19540  0.40890  1.0000
  C   C376      1.0  0.45250  0.19540  0.09110  1.0000
  H   H249      1.0  0.92380  0.31850  0.60900  1.0000
  H   H250      1.0  0.07620  0.31850  0.89100  1.0000
  H   H251      1.0  0.42380  0.81850  0.60900  1.0000
  H   H252      1.0  0.57620  0.81850  0.89100  1.0000
  H   H253      1.0  0.07620  0.68150  0.39100  1.0000
  H   H254      1.0  0.92380  0.68150  0.10900  1.0000
  H   H255      1.0  0.57620  0.18150  0.39100  1.0000
  H   H256      1.0  0.42380  0.18150  0.10900  1.0000
  C   C377      1.0  0.67890  0.02600  0.50060  1.0000
  C   C378      1.0  0.32110  0.02600  0.99940  1.0000
  C   C379      1.0  0.17890  0.52600  0.50060  1.0000
  C   C380      1.0  0.82110  0.52600  0.99940  1.0000
  C   C381      1.0  0.32110  0.97400  0.49940  1.0000
  C   C382      1.0  0.67890  0.97400  0.00060  1.0000
  C   C383      1.0  0.82110  0.47400  0.49940  1.0000
  C   C384      1.0  0.17890  0.47400  0.00060  1.0000
  C   C385      1.0  0.69750  0.07119  0.51630  1.0000
  C   C386      1.0  0.30250  0.07119  0.98370  1.0000
  C   C387      1.0  0.19750  0.57119  0.51630  1.0000
  C   C388      1.0  0.80250  0.57119  0.98370  1.0000
  C   C389      1.0  0.30250  0.92881  0.48370  1.0000
  C   C390      1.0  0.69750  0.92881  0.01630  1.0000
  C   C391      1.0  0.80250  0.42881  0.48370  1.0000
  C   C392      1.0  0.19750  0.42881  0.01630  1.0000
  C   C393      1.0  0.76450  0.08115  0.54250  1.0000
  C   C394      1.0  0.23550  0.08115  0.95750  1.0000
  C   C395      1.0  0.26450  0.58115  0.54250  1.0000
  C   C396      1.0  0.73550  0.58115  0.95750  1.0000
  C   C397      1.0  0.23550  0.91885  0.45750  1.0000
  C   C398      1.0  0.76450  0.91885  0.04250  1.0000
  C   C399      1.0  0.73550  0.41885  0.45750  1.0000
  C   C400      1.0  0.26450  0.41885  0.04250  1.0000
  H   H257      1.0  0.79990  0.06000  0.55140  1.0000
  H   H258      1.0  0.20010  0.06000  0.94860  1.0000
  H   H259      1.0  0.29990  0.56000  0.55140  1.0000
  H   H260      1.0  0.70010  0.56000  0.94860  1.0000
  H   H261      1.0  0.20010  0.94000  0.44860  1.0000
  H   H262      1.0  0.79990  0.94000  0.05140  1.0000
  H   H263      1.0  0.70010  0.44000  0.44860  1.0000
  H   H264      1.0  0.29990  0.44000  0.05140  1.0000
  C   C401      1.0  0.78070  0.12250  0.55630  1.0000
  C   C402      1.0  0.21930  0.12250  0.94370  1.0000
  C   C403      1.0  0.28070  0.62250  0.55630  1.0000
  C   C404      1.0  0.71930  0.62250  0.94370  1.0000
  C   C405      1.0  0.21930  0.87750  0.44370  1.0000
  C   C406      1.0  0.78070  0.87750  0.05630  1.0000
  C   C407      1.0  0.71930  0.37750  0.44370  1.0000
  C   C408      1.0  0.28070  0.37750  0.05630  1.0000
  H   H265      1.0  0.82720  0.12860  0.57430  1.0000
  H   H266      1.0  0.17280  0.12860  0.92570  1.0000
  H   H267      1.0  0.32720  0.62860  0.57430  1.0000
  H   H268      1.0  0.67280  0.62860  0.92570  1.0000
  H   H269      1.0  0.17280  0.87140  0.42570  1.0000
  H   H270      1.0  0.82720  0.87140  0.07430  1.0000
  H   H271      1.0  0.67280  0.37140  0.42570  1.0000
  H   H272      1.0  0.32720  0.37140  0.07430  1.0000
  C   C409      1.0  0.72970  0.15510  0.54420  1.0000
  C   C410      1.0  0.27030  0.15510  0.95580  1.0000
  C   C411      1.0  0.22970  0.65510  0.54420  1.0000
  C   C412      1.0  0.77030  0.65510  0.95580  1.0000
  C   C413      1.0  0.27030  0.84490  0.45580  1.0000
  C   C414      1.0  0.72970  0.84490  0.04420  1.0000
  C   C415      1.0  0.77030  0.34490  0.45580  1.0000
  C   C416      1.0  0.22970  0.34490  0.04420  1.0000
  C   C417      1.0  0.66080  0.14390  0.51810  1.0000
  C   C418      1.0  0.33920  0.14390  0.98190  1.0000
  C   C419      1.0  0.16080  0.64390  0.51810  1.0000
  C   C420      1.0  0.83920  0.64390  0.98190  1.0000
  C   C421      1.0  0.33920  0.85610  0.48190  1.0000
  C   C422      1.0  0.66080  0.85610  0.01810  1.0000
  C   C423      1.0  0.83920  0.35610  0.48190  1.0000
  C   C424      1.0  0.16080  0.35610  0.01810  1.0000
  H   H273      1.0  0.62440  0.16460  0.50980  1.0000
  H   H274      1.0  0.37560  0.16460  0.99020  1.0000
  H   H275      1.0  0.12440  0.66460  0.50980  1.0000
  H   H276      1.0  0.87560  0.66460  0.99020  1.0000
  H   H277      1.0  0.37560  0.83540  0.49020  1.0000
  H   H278      1.0  0.62440  0.83540  0.00980  1.0000
  H   H279      1.0  0.87560  0.33540  0.49020  1.0000
  H   H280      1.0  0.12440  0.33540  0.00980  1.0000
  C   C425      1.0  0.64510  0.10290  0.50430  1.0000
  C   C426      1.0  0.35490  0.10290  0.99570  1.0000
  C   C427      1.0  0.14510  0.60290  0.50430  1.0000
  C   C428      1.0  0.85490  0.60290  0.99570  1.0000
  C   C429      1.0  0.35490  0.89710  0.49570  1.0000
  C   C430      1.0  0.64510  0.89710  0.00430  1.0000
  C   C431      1.0  0.85490  0.39710  0.49570  1.0000
  C   C432      1.0  0.14510  0.39710  0.00430  1.0000
  H   H281      1.0  0.59850  0.09630  0.48660  1.0000
  H   H282      1.0  0.40150  0.09630  0.01340  1.0000
  H   H283      1.0  0.09850  0.59630  0.48660  1.0000
  H   H284      1.0  0.90150  0.59630  0.01340  1.0000
  H   H285      1.0  0.40150  0.90370  0.51340  1.0000
  H   H286      1.0  0.59850  0.90370  0.98660  1.0000
  H   H287      1.0  0.90150  0.40370  0.51340  1.0000
  H   H288      1.0  0.09850  0.40370  0.98660  1.0000
