data_image0
_chemical_formula_structural       I12Mo4Cu12S12O4N12C4H4C4H4C4H4C4H4C12H4C4H4C4H4C4H4C4H4C4H4C4H4C4H4C4
_chemical_formula_sum              "I12 Mo4 Cu12 S12 O4 N12 C60 H48"
_cell_length_a       17.881
_cell_length_b       11.321
_cell_length_c       23.143
_cell_angle_alpha    90
_cell_angle_beta     110.06
_cell_angle_gamma    90

_space_group_name_H-M_alt    "P 1"
_space_group_IT_number       1

loop_
  _space_group_symop_operation_xyz
  'x, y, z'

loop_
  _atom_site_type_symbol
  _atom_site_label
  _atom_site_symmetry_multiplicity
  _atom_site_fract_x
  _atom_site_fract_y
  _atom_site_fract_z
  _atom_site_occupancy
  I   I1        1.0  0.93537  0.63271  0.53638  1.0000
  I   I2        1.0  0.06463  0.13271  0.96362  1.0000
  I   I3        1.0  0.06463  0.36729  0.46362  1.0000
  I   I4        1.0  0.93537  0.86729  0.03638  1.0000
  I   I5        1.0  0.65787  0.07250  0.63328  1.0000
  I   I6        1.0  0.34213  0.57250  0.86672  1.0000
  I   I7        1.0  0.34213  0.92750  0.36672  1.0000
  I   I8        1.0  0.65787  0.42750  0.13328  1.0000
  I   I9        1.0  0.71775  0.45858  0.74216  1.0000
  I   I10       1.0  0.28225  0.95858  0.75784  1.0000
  I   I11       1.0  0.28225  0.54142  0.25784  1.0000
  I   I12       1.0  0.71775  0.04142  0.24216  1.0000
  Mo  Mo1       1.0  0.86171  0.79081  0.69499  1.0000
  Mo  Mo2       1.0  0.13829  0.29081  0.80501  1.0000
  Mo  Mo3       1.0  0.13829  0.20919  0.30501  1.0000
  Mo  Mo4       1.0  0.86171  0.70919  0.19499  1.0000
  Cu  Cu1       1.0  0.84694  0.65525  0.59590  1.0000
  Cu  Cu2       1.0  0.15306  0.15525  0.90410  1.0000
  Cu  Cu3       1.0  0.15306  0.34475  0.40410  1.0000
  Cu  Cu4       1.0  0.84694  0.84475  0.09590  1.0000
  Cu  Cu5       1.0  0.71001  0.86450  0.64011  1.0000
  Cu  Cu6       1.0  0.28999  0.36450  0.85989  1.0000
  Cu  Cu7       1.0  0.28999  0.13550  0.35989  1.0000
  Cu  Cu8       1.0  0.71001  0.63550  0.14011  1.0000
  Cu  Cu9       1.0  0.81657  0.61002  0.75089  1.0000
  Cu  Cu10      1.0  0.18343  0.11002  0.74911  1.0000
  Cu  Cu11      1.0  0.18343  0.38998  0.24911  1.0000
  Cu  Cu12      1.0  0.81657  0.88998  0.25089  1.0000
  S   S1        1.0  0.80618  0.84750  0.59566  1.0000
  S   S2        1.0  0.19382  0.34750  0.90434  1.0000
  S   S3        1.0  0.19382  0.15250  0.40434  1.0000
  S   S4        1.0  0.80618  0.65250  0.09566  1.0000
  S   S5        1.0  0.76718  0.79870  0.73940  1.0000
  S   S6        1.0  0.23282  0.29870  0.76060  1.0000
  S   S7        1.0  0.23282  0.20130  0.26060  1.0000
  S   S8        1.0  0.76718  0.70130  0.23940  1.0000
  S   S9        1.0  0.90233  0.59980  0.69683  1.0000
  S   S10       1.0  0.09767  0.09980  0.80317  1.0000
  S   S11       1.0  0.09767  0.40020  0.30317  1.0000
  S   S12       1.0  0.90233  0.90020  0.19683  1.0000
  O   O1        1.0  0.94180  0.87910  0.73380  1.0000
  O   O2        1.0  0.05820  0.37910  0.76620  1.0000
  O   O3        1.0  0.05820  0.12090  0.26620  1.0000
  O   O4        1.0  0.94180  0.62090  0.23380  1.0000
  N   N1        1.0  0.39410  0.22490  0.40380  1.0000
  N   N2        1.0  0.60590  0.72490  0.09620  1.0000
  N   N3        1.0  0.60590  0.77510  0.59620  1.0000
  N   N4        1.0  0.39410  0.27510  0.90380  1.0000
  N   N5        1.0  0.74940  0.54540  0.55330  1.0000
  N   N6        1.0  0.25060  0.04540  0.94670  1.0000
  N   N7        1.0  0.25060  0.45460  0.44670  1.0000
  N   N8        1.0  0.74940  0.95460  0.05330  1.0000
  N   N9        1.0  0.89350  0.58240  0.84500  1.0000
  N   N10       1.0  0.10650  0.08240  0.65500  1.0000
  N   N11       1.0  0.10650  0.41760  0.15500  1.0000
  N   N12       1.0  0.89350  0.91760  0.34500  1.0000
  C   C1        1.0  0.40500  0.33500  0.39030  1.0000
  C   C2        1.0  0.59500  0.83500  0.10970  1.0000
  C   C3        1.0  0.59500  0.66500  0.60970  1.0000
  C   C4        1.0  0.40500  0.16500  0.89030  1.0000
  H   H1        1.0  0.36270  0.37340  0.36130  1.0000
  H   H2        1.0  0.63730  0.87340  0.13870  1.0000
  H   H3        1.0  0.63730  0.62660  0.63870  1.0000
  H   H4        1.0  0.36270  0.12660  0.86130  1.0000
  C   C5        1.0  0.47600  0.39850  0.41650  1.0000
  C   C6        1.0  0.52400  0.89850  0.08350  1.0000
  C   C7        1.0  0.52400  0.60150  0.58350  1.0000
  C   C8        1.0  0.47600  0.10150  0.91650  1.0000
  H   H5        1.0  0.48210  0.47270  0.40140  1.0000
  H   H6        1.0  0.51790  0.97270  0.09860  1.0000
  H   H7        1.0  0.51790  0.52730  0.59860  1.0000
  H   H8        1.0  0.48210  0.02730  0.90140  1.0000
  C   C9        1.0  0.45800  0.17720  0.44760  1.0000
  C   C10       1.0  0.54200  0.67720  0.05240  1.0000
  C   C11       1.0  0.54200  0.82280  0.55240  1.0000
  C   C12       1.0  0.45800  0.32280  0.94760  1.0000
  H   H9        1.0  0.45550  0.09750  0.45660  1.0000
  H   H10       1.0  0.54450  0.59750  0.04340  1.0000
  H   H11       1.0  0.54450  0.90250  0.54340  1.0000
  H   H12       1.0  0.45550  0.40250  0.95660  1.0000
  C   C13       1.0  0.52250  0.23380  0.47790  1.0000
  C   C14       1.0  0.47750  0.73380  0.02210  1.0000
  C   C15       1.0  0.47750  0.76620  0.52210  1.0000
  C   C16       1.0  0.52250  0.26620  0.97790  1.0000
  H   H13       1.0  0.56130  0.19580  0.51000  1.0000
  H   H14       1.0  0.43870  0.69580  0.99000  1.0000
  H   H15       1.0  0.43870  0.80420  0.49000  1.0000
  H   H16       1.0  0.56130  0.30420  0.01000  1.0000
  C   C17       1.0  0.53540  0.35080  0.46370  1.0000
  C   C18       1.0  0.46460  0.85080  0.03630  1.0000
  C   C19       1.0  0.46460  0.64920  0.53630  1.0000
  C   C20       1.0  0.53540  0.14920  0.96370  1.0000
  C   C21       1.0  0.61020  0.41670  0.49490  1.0000
  C   C22       1.0  0.38980  0.91670  0.00510  1.0000
  C   C23       1.0  0.38980  0.58330  0.50510  1.0000
  C   C24       1.0  0.61020  0.08330  0.99490  1.0000
  C   C25       1.0  0.63350  0.50690  0.46450  1.0000
  C   C26       1.0  0.36650  0.00690  0.03550  1.0000
  C   C27       1.0  0.36650  0.49310  0.53550  1.0000
  C   C28       1.0  0.63350  0.99310  0.96450  1.0000
  H   H17       1.0  0.60290  0.52570  0.42420  1.0000
  H   H18       1.0  0.39710  0.02570  0.07580  1.0000
  H   H19       1.0  0.39710  0.47430  0.57580  1.0000
  H   H20       1.0  0.60290  0.97430  0.92420  1.0000
  C   C29       1.0  0.70350  0.57020  0.49490  1.0000
  C   C30       1.0  0.29650  0.07020  0.00510  1.0000
  C   C31       1.0  0.29650  0.42980  0.50510  1.0000
  C   C32       1.0  0.70350  0.92980  0.99490  1.0000
  H   H21       1.0  0.71860  0.63100  0.47420  1.0000
  H   H22       1.0  0.28140  0.13100  0.02580  1.0000
  H   H23       1.0  0.28140  0.36900  0.52580  1.0000
  H   H24       1.0  0.71860  0.86900  0.97420  1.0000
  C   C33       1.0  0.65710  0.39130  0.55420  1.0000
  C   C34       1.0  0.34290  0.89130  0.94580  1.0000
  C   C35       1.0  0.34290  0.60870  0.44580  1.0000
  C   C36       1.0  0.65710  0.10870  0.05420  1.0000
  H   H25       1.0  0.64350  0.33090  0.57600  1.0000
  H   H26       1.0  0.35650  0.83090  0.92400  1.0000
  H   H27       1.0  0.35650  0.66910  0.42400  1.0000
  H   H28       1.0  0.64350  0.16910  0.07600  1.0000
  C   C37       1.0  0.72750  0.46030  0.58170  1.0000
  C   C38       1.0  0.27250  0.96030  0.91830  1.0000
  C   C39       1.0  0.27250  0.53970  0.41830  1.0000
  C   C40       1.0  0.72750  0.03970  0.08170  1.0000
  H   H29       1.0  0.75920  0.44340  0.62200  1.0000
  H   H30       1.0  0.24080  0.94340  0.87800  1.0000
  H   H31       1.0  0.24080  0.55660  0.37800  1.0000
  H   H32       1.0  0.75920  0.05660  0.12200  1.0000
  C   C41       1.0  0.87160  0.61830  0.89170  1.0000
  C   C42       1.0  0.12840  0.11830  0.60830  1.0000
  C   C43       1.0  0.12840  0.38170  0.10830  1.0000
  C   C44       1.0  0.87160  0.88170  0.39170  1.0000
  H   H33       1.0  0.82710  0.66690  0.88230  1.0000
  H   H34       1.0  0.17290  0.16690  0.61770  1.0000
  H   H35       1.0  0.17290  0.33310  0.11770  1.0000
  H   H36       1.0  0.82710  0.83310  0.38230  1.0000
  C   C45       1.0  0.90900  0.58960  0.95240  1.0000
  C   C46       1.0  0.09100  0.08960  0.54760  1.0000
  C   C47       1.0  0.09100  0.41040  0.04760  1.0000
  C   C48       1.0  0.90900  0.91040  0.45240  1.0000
  H   H37       1.0  0.89030  0.61740  0.98270  1.0000
  H   H38       1.0  0.10970  0.11740  0.51730  1.0000
  H   H39       1.0  0.10970  0.38260  0.01730  1.0000
  H   H40       1.0  0.89030  0.88260  0.48270  1.0000
  C   C49       1.0  0.95760  0.51500  0.86140  1.0000
  C   C50       1.0  0.04240  0.01500  0.63860  1.0000
  C   C51       1.0  0.04240  0.48500  0.13860  1.0000
  C   C52       1.0  0.95760  0.98500  0.36140  1.0000
  H   H41       1.0  0.97510  0.48960  0.83000  1.0000
  H   H42       1.0  0.02490  0.98960  0.67000  1.0000
  H   H43       1.0  0.02490  0.51040  0.17000  1.0000
  H   H44       1.0  0.97510  0.01040  0.33000  1.0000
  C   C53       1.0  0.00010  0.47930  0.91850  1.0000
  C   C54       1.0  0.99990  0.97930  0.58150  1.0000
  C   C55       1.0  0.99990  0.52070  0.08150  1.0000
  C   C56       1.0  0.00010  0.02070  0.41850  1.0000
  H   H45       1.0  0.04410  0.43060  0.92520  1.0000
  H   H46       1.0  0.95590  0.93060  0.57480  1.0000
  H   H47       1.0  0.95590  0.56940  0.07480  1.0000
  H   H48       1.0  0.04410  0.06940  0.42520  1.0000
  C   C57       1.0  0.97780  0.51530  0.96750  1.0000
  C   C58       1.0  0.02220  0.01530  0.53250  1.0000
  C   C59       1.0  0.02220  0.48470  0.03250  1.0000
  C   C60       1.0  0.97780  0.98470  0.46750  1.0000
