data_image0
_chemical_formula_structural       I12Mo4Cu12S12O4N12C4H4C4H4C4H4C4H4C12H4C4H4C4H4C4H4C4H4C4H4C8H4C4H4
_chemical_formula_sum              "I12 Mo4 Cu12 S12 O4 N12 C60 H48"
_cell_length_a       18.0654
_cell_length_b       11.0899
_cell_length_c       22.772
_cell_angle_alpha    90
_cell_angle_beta     108.653
_cell_angle_gamma    90

_space_group_name_H-M_alt    "P 1"
_space_group_IT_number       1

loop_
  _space_group_symop_operation_xyz
  'x, y, z'

loop_
  _atom_site_type_symbol
  _atom_site_label
  _atom_site_symmetry_multiplicity
  _atom_site_fract_x
  _atom_site_fract_y
  _atom_site_fract_z
  _atom_site_occupancy
  I   I1        1.0  0.92572  0.61506  0.53110  1.0000
  I   I2        1.0  0.07428  0.11506  0.96890  1.0000
  I   I3        1.0  0.07428  0.38494  0.46890  1.0000
  I   I4        1.0  0.92572  0.88494  0.03110  1.0000
  I   I5        1.0  0.65860  0.07862  0.63148  1.0000
  I   I6        1.0  0.34140  0.57862  0.86852  1.0000
  I   I7        1.0  0.34140  0.92138  0.36852  1.0000
  I   I8        1.0  0.65860  0.42138  0.13148  1.0000
  I   I9        1.0  0.71409  0.44722  0.74565  1.0000
  I   I10       1.0  0.28591  0.94722  0.75435  1.0000
  I   I11       1.0  0.28591  0.55278  0.25435  1.0000
  I   I12       1.0  0.71409  0.05278  0.24565  1.0000
  Mo  Mo1       1.0  0.85909  0.78381  0.69369  1.0000
  Mo  Mo2       1.0  0.14091  0.28381  0.80631  1.0000
  Mo  Mo3       1.0  0.14091  0.21619  0.30631  1.0000
  Mo  Mo4       1.0  0.85909  0.71619  0.19369  1.0000
  Cu  Cu1       1.0  0.83605  0.65116  0.59086  1.0000
  Cu  Cu2       1.0  0.16395  0.15116  0.90914  1.0000
  Cu  Cu3       1.0  0.16395  0.34884  0.40914  1.0000
  Cu  Cu4       1.0  0.83605  0.84884  0.09086  1.0000
  Cu  Cu5       1.0  0.71290  0.86993  0.64392  1.0000
  Cu  Cu6       1.0  0.28710  0.36993  0.85608  1.0000
  Cu  Cu7       1.0  0.28710  0.13007  0.35608  1.0000
  Cu  Cu8       1.0  0.71290  0.63007  0.14392  1.0000
  Cu  Cu9       1.0  0.80991  0.60359  0.75127  1.0000
  Cu  Cu10      1.0  0.19009  0.10359  0.74873  1.0000
  Cu  Cu11      1.0  0.19009  0.39641  0.24873  1.0000
  Cu  Cu12      1.0  0.80991  0.89641  0.25127  1.0000
  S   S1        1.0  0.80531  0.84980  0.59531  1.0000
  S   S2        1.0  0.19469  0.34980  0.90469  1.0000
  S   S3        1.0  0.19469  0.15020  0.40469  1.0000
  S   S4        1.0  0.80531  0.65020  0.09531  1.0000
  S   S5        1.0  0.76928  0.80040  0.74312  1.0000
  S   S6        1.0  0.23072  0.30040  0.75688  1.0000
  S   S7        1.0  0.23072  0.19960  0.25688  1.0000
  S   S8        1.0  0.76928  0.69960  0.24312  1.0000
  S   S9        1.0  0.88873  0.58550  0.69111  1.0000
  S   S10       1.0  0.11127  0.08550  0.80889  1.0000
  S   S11       1.0  0.11127  0.41450  0.30889  1.0000
  S   S12       1.0  0.88873  0.91450  0.19111  1.0000
  O   O1        1.0  0.94100  0.86410  0.73220  1.0000
  O   O2        1.0  0.05900  0.36410  0.76780  1.0000
  O   O3        1.0  0.05900  0.13590  0.26780  1.0000
  O   O4        1.0  0.94100  0.63590  0.23220  1.0000
  N   N1        1.0  0.73620  0.55500  0.54820  1.0000
  N   N2        1.0  0.26380  0.05500  0.95180  1.0000
  N   N3        1.0  0.26380  0.44500  0.45180  1.0000
  N   N4        1.0  0.73620  0.94500  0.04820  1.0000
  N   N5        1.0  0.38950  0.22670  0.39970  1.0000
  N   N6        1.0  0.61050  0.72670  0.10030  1.0000
  N   N7        1.0  0.61050  0.77330  0.60030  1.0000
  N   N8        1.0  0.38950  0.27330  0.89970  1.0000
  N   N9        1.0  0.88870  0.57390  0.84480  1.0000
  N   N10       1.0  0.11130  0.07390  0.65520  1.0000
  N   N11       1.0  0.11130  0.42610  0.15520  1.0000
  N   N12       1.0  0.88870  0.92610  0.34480  1.0000
  C   C1        1.0  0.69020  0.58500  0.49150  1.0000
  C   C2        1.0  0.30980  0.08500  0.00850  1.0000
  C   C3        1.0  0.30980  0.41500  0.50850  1.0000
  C   C4        1.0  0.69020  0.91500  0.99150  1.0000
  H   H1        1.0  0.70070  0.65300  0.47180  1.0000
  H   H2        1.0  0.29930  0.15300  0.02820  1.0000
  H   H3        1.0  0.29930  0.34700  0.52820  1.0000
  H   H4        1.0  0.70070  0.84700  0.97180  1.0000
  C   C5        1.0  0.62410  0.50900  0.46140  1.0000
  C   C6        1.0  0.37590  0.00900  0.03860  1.0000
  C   C7        1.0  0.37590  0.49100  0.53860  1.0000
  C   C8        1.0  0.62410  0.99100  0.96140  1.0000
  H   H5        1.0  0.59730  0.52330  0.41970  1.0000
  H   H6        1.0  0.40270  0.02330  0.08030  1.0000
  H   H7        1.0  0.40270  0.47670  0.58030  1.0000
  H   H8        1.0  0.59730  0.97670  0.91970  1.0000
  C   C9        1.0  0.70930  0.46700  0.57520  1.0000
  C   C10       1.0  0.29070  0.96700  0.92480  1.0000
  C   C11       1.0  0.29070  0.53300  0.42480  1.0000
  C   C12       1.0  0.70930  0.03300  0.07520  1.0000
  H   H9        1.0  0.73780  0.44730  0.61580  1.0000
  H   H10       1.0  0.26220  0.94730  0.88420  1.0000
  H   H11       1.0  0.26220  0.55270  0.38420  1.0000
  H   H12       1.0  0.73780  0.05270  0.11580  1.0000
  C   C13       1.0  0.64120  0.40400  0.54670  1.0000
  C   C14       1.0  0.35880  0.90400  0.95330  1.0000
  C   C15       1.0  0.35880  0.59600  0.45330  1.0000
  C   C16       1.0  0.64120  0.09600  0.04670  1.0000
  H   H13       1.0  0.62490  0.34590  0.56950  1.0000
  H   H14       1.0  0.37510  0.84590  0.93050  1.0000
  H   H15       1.0  0.37510  0.65410  0.43050  1.0000
  H   H16       1.0  0.62490  0.15410  0.06950  1.0000
  C   C17       1.0  0.59930  0.42200  0.48910  1.0000
  C   C18       1.0  0.40070  0.92200  0.01090  1.0000
  C   C19       1.0  0.40070  0.57800  0.51090  1.0000
  C   C20       1.0  0.59930  0.07800  0.98910  1.0000
  C   C21       1.0  0.52600  0.35410  0.45770  1.0000
  C   C22       1.0  0.47400  0.85410  0.04230  1.0000
  C   C23       1.0  0.47400  0.64590  0.54230  1.0000
  C   C24       1.0  0.52600  0.14590  0.95770  1.0000
  C   C25       1.0  0.47190  0.38900  0.40100  1.0000
  C   C26       1.0  0.52810  0.88900  0.09900  1.0000
  C   C27       1.0  0.52810  0.61100  0.59900  1.0000
  C   C28       1.0  0.47190  0.11100  0.90100  1.0000
  H   H17       1.0  0.48110  0.45630  0.38000  1.0000
  H   H18       1.0  0.51890  0.95630  0.12000  1.0000
  H   H19       1.0  0.51890  0.54370  0.62000  1.0000
  H   H20       1.0  0.48110  0.04370  0.88000  1.0000
  C   C29       1.0  0.40870  0.32570  0.37830  1.0000
  C   C30       1.0  0.59130  0.82570  0.12170  1.0000
  C   C31       1.0  0.59130  0.67430  0.62170  1.0000
  C   C32       1.0  0.40870  0.17430  0.87830  1.0000
  H   H21       1.0  0.37270  0.35530  0.34220  1.0000
  H   H22       1.0  0.62730  0.85530  0.15780  1.0000
  H   H23       1.0  0.62730  0.64470  0.65780  1.0000
  H   H24       1.0  0.37270  0.14470  0.84220  1.0000
  C   C33       1.0  0.50690  0.24800  0.48010  1.0000
  C   C34       1.0  0.49310  0.74800  0.01990  1.0000
  C   C35       1.0  0.49310  0.75200  0.51990  1.0000
  C   C36       1.0  0.50690  0.25200  0.98010  1.0000
  H   H25       1.0  0.53720  0.22110  0.51900  1.0000
  H   H26       1.0  0.46280  0.72110  0.98100  1.0000
  H   H27       1.0  0.46280  0.77890  0.48100  1.0000
  H   H28       1.0  0.53720  0.27890  0.01900  1.0000
  C   C37       1.0  0.44580  0.18300  0.44720  1.0000
  C   C38       1.0  0.55420  0.68300  0.05280  1.0000
  C   C39       1.0  0.55420  0.81700  0.55280  1.0000
  C   C40       1.0  0.44580  0.31700  0.94720  1.0000
  H   H29       1.0  0.44270  0.10340  0.45830  1.0000
  H   H30       1.0  0.55730  0.60340  0.04170  1.0000
  H   H31       1.0  0.55730  0.89660  0.54170  1.0000
  H   H32       1.0  0.44270  0.39660  0.95830  1.0000
  C   C41       1.0  0.94780  0.49980  0.85730  1.0000
  C   C42       1.0  0.05220  0.99980  0.64270  1.0000
  C   C43       1.0  0.05220  0.50020  0.14270  1.0000
  C   C44       1.0  0.94780  0.00020  0.35730  1.0000
  H   H33       1.0  0.96060  0.46640  0.82430  1.0000
  H   H34       1.0  0.03940  0.96640  0.67570  1.0000
  H   H35       1.0  0.03940  0.53360  0.17570  1.0000
  H   H36       1.0  0.96060  0.03360  0.32430  1.0000
  C   C45       1.0  0.99280  0.46810  0.91710  1.0000
  C   C46       1.0  0.00720  0.96810  0.58290  1.0000
  C   C47       1.0  0.00720  0.53190  0.08290  1.0000
  C   C48       1.0  0.99280  0.03190  0.41710  1.0000
  H   H37       1.0  0.03380  0.41370  0.92320  1.0000
  H   H38       1.0  0.96620  0.91370  0.57680  1.0000
  H   H39       1.0  0.96620  0.58630  0.07680  1.0000
  H   H40       1.0  0.03380  0.08630  0.42320  1.0000
  C   C49       1.0  0.97690  0.51670  0.96720  1.0000
  C   C50       1.0  0.02310  0.01670  0.53280  1.0000
  C   C51       1.0  0.02310  0.48330  0.03280  1.0000
  C   C52       1.0  0.97690  0.98330  0.46720  1.0000
  C   C53       1.0  0.91250  0.59250  0.95270  1.0000
  C   C54       1.0  0.08750  0.09250  0.54730  1.0000
  C   C55       1.0  0.08750  0.40750  0.04730  1.0000
  C   C56       1.0  0.91250  0.90750  0.45270  1.0000
  H   H41       1.0  0.89720  0.62540  0.98460  1.0000
  H   H42       1.0  0.10280  0.12540  0.51540  1.0000
  H   H43       1.0  0.10280  0.37460  0.01540  1.0000
  H   H44       1.0  0.89720  0.87460  0.48460  1.0000
  C   C57       1.0  0.87250  0.61910  0.89470  1.0000
  C   C58       1.0  0.12750  0.11910  0.60530  1.0000
  C   C59       1.0  0.12750  0.38090  0.10530  1.0000
  C   C60       1.0  0.87250  0.88090  0.39470  1.0000
  H   H45       1.0  0.83060  0.67210  0.88770  1.0000
  H   H46       1.0  0.16940  0.17210  0.61230  1.0000
  H   H47       1.0  0.16940  0.32790  0.11230  1.0000
  H   H48       1.0  0.83060  0.82790  0.38770  1.0000
