data_image0
_chemical_formula_structural       W4I12Cu12S12O4N12C4H4C4H4C8H4C4H4C4H4C4H4C8H4C4H4C4H4C4H4C8H4C4H4
_chemical_formula_sum              "W4 I12 Cu12 S12 O4 N12 C60 H48"
_cell_length_a       17.821
_cell_length_b       11.339
_cell_length_c       23.069
_cell_angle_alpha    90
_cell_angle_beta     109.61
_cell_angle_gamma    90

_space_group_name_H-M_alt    "P 1"
_space_group_IT_number       1

loop_
  _space_group_symop_operation_xyz
  'x, y, z'

loop_
  _atom_site_type_symbol
  _atom_site_label
  _atom_site_symmetry_multiplicity
  _atom_site_fract_x
  _atom_site_fract_y
  _atom_site_fract_z
  _atom_site_occupancy
  W   W1        1.0  0.14022  0.20871  0.30487  1.0000
  W   W2        1.0  0.85978  0.70871  0.19513  1.0000
  W   W3        1.0  0.85978  0.79129  0.69513  1.0000
  W   W4        1.0  0.14022  0.29129  0.80487  1.0000
  I   I1        1.0  0.34342  0.92390  0.36527  1.0000
  I   I2        1.0  0.65658  0.42390  0.13473  1.0000
  I   I3        1.0  0.65658  0.07610  0.63473  1.0000
  I   I4        1.0  0.34342  0.57610  0.86527  1.0000
  I   I5        1.0  0.28790  0.53927  0.25841  1.0000
  I   I6        1.0  0.71210  0.03927  0.24159  1.0000
  I   I7        1.0  0.71210  0.46073  0.74159  1.0000
  I   I8        1.0  0.28790  0.96073  0.75841  1.0000
  I   I9        1.0  0.06209  0.36367  0.46317  1.0000
  I   I10       1.0  0.93791  0.86367  0.03683  1.0000
  I   I11       1.0  0.93791  0.63633  0.53683  1.0000
  I   I12       1.0  0.06209  0.13633  0.96317  1.0000
  Cu  Cu1       1.0  0.29210  0.13180  0.35962  1.0000
  Cu  Cu2       1.0  0.70790  0.63180  0.14038  1.0000
  Cu  Cu3       1.0  0.70790  0.86820  0.64038  1.0000
  Cu  Cu4       1.0  0.29210  0.36820  0.85962  1.0000
  Cu  Cu5       1.0  0.18592  0.38937  0.24779  1.0000
  Cu  Cu6       1.0  0.81408  0.88937  0.25221  1.0000
  Cu  Cu7       1.0  0.81408  0.61063  0.75221  1.0000
  Cu  Cu8       1.0  0.18592  0.11063  0.74779  1.0000
  Cu  Cu9       1.0  0.15368  0.34294  0.40509  1.0000
  Cu  Cu10      1.0  0.84632  0.84294  0.09491  1.0000
  Cu  Cu11      1.0  0.84632  0.65706  0.59491  1.0000
  Cu  Cu12      1.0  0.15368  0.15706  0.90509  1.0000
  S   S1        1.0  0.23450  0.19910  0.25963  1.0000
  S   S2        1.0  0.76550  0.69910  0.24037  1.0000
  S   S3        1.0  0.76550  0.80090  0.74037  1.0000
  S   S4        1.0  0.23450  0.30090  0.75963  1.0000
  S   S5        1.0  0.09891  0.39860  0.30303  1.0000
  S   S6        1.0  0.90109  0.89860  0.19697  1.0000
  S   S7        1.0  0.90109  0.60140  0.69697  1.0000
  S   S8        1.0  0.09891  0.10140  0.80303  1.0000
  S   S9        1.0  0.19420  0.14930  0.40392  1.0000
  S   S10       1.0  0.80580  0.64930  0.09608  1.0000
  S   S11       1.0  0.80580  0.85070  0.59608  1.0000
  S   S12       1.0  0.19420  0.35070  0.90392  1.0000
  O   O1        1.0  0.05900  0.12130  0.26630  1.0000
  O   O2        1.0  0.94100  0.62130  0.23370  1.0000
  O   O3        1.0  0.94100  0.87870  0.73370  1.0000
  O   O4        1.0  0.05900  0.37870  0.76630  1.0000
  N   N1        1.0  0.39690  0.22260  0.40430  1.0000
  N   N2        1.0  0.60310  0.72260  0.09570  1.0000
  N   N3        1.0  0.60310  0.77740  0.59570  1.0000
  N   N4        1.0  0.39690  0.27740  0.90430  1.0000
  N   N5        1.0  0.74880  0.54950  0.55290  1.0000
  N   N6        1.0  0.25120  0.04950  0.94710  1.0000
  N   N7        1.0  0.25120  0.45050  0.44710  1.0000
  N   N8        1.0  0.74880  0.95050  0.05290  1.0000
  N   N9        1.0  0.10890  0.42200  0.15420  1.0000
  N   N10       1.0  0.89110  0.92200  0.34580  1.0000
  N   N11       1.0  0.89110  0.57800  0.84580  1.0000
  N   N12       1.0  0.10890  0.07800  0.65420  1.0000
  C   C1        1.0  0.40540  0.33480  0.38880  1.0000
  C   C2        1.0  0.59460  0.83480  0.11120  1.0000
  C   C3        1.0  0.59460  0.66520  0.61120  1.0000
  C   C4        1.0  0.40540  0.16520  0.88880  1.0000
  H   H1        1.0  0.36320  0.37000  0.35830  1.0000
  H   H2        1.0  0.63680  0.87000  0.14170  1.0000
  H   H3        1.0  0.63680  0.63000  0.64170  1.0000
  H   H4        1.0  0.36320  0.13000  0.85830  1.0000
  C   C5        1.0  0.47310  0.40050  0.41550  1.0000
  C   C6        1.0  0.52690  0.90050  0.08450  1.0000
  C   C7        1.0  0.52690  0.59950  0.58450  1.0000
  C   C8        1.0  0.47310  0.09950  0.91550  1.0000
  H   H5        1.0  0.47740  0.47670  0.40200  1.0000
  H   H6        1.0  0.52260  0.97670  0.09800  1.0000
  H   H7        1.0  0.52260  0.52330  0.59800  1.0000
  H   H8        1.0  0.47740  0.02330  0.90200  1.0000
  C   C9        1.0  0.53550  0.35020  0.46360  1.0000
  C   C10       1.0  0.46450  0.85020  0.03640  1.0000
  C   C11       1.0  0.46450  0.64980  0.53640  1.0000
  C   C12       1.0  0.53550  0.14980  0.96360  1.0000
  C   C13       1.0  0.52270  0.23770  0.48330  1.0000
  C   C14       1.0  0.47730  0.73770  0.01670  1.0000
  C   C15       1.0  0.47730  0.76230  0.51670  1.0000
  C   C16       1.0  0.52270  0.26230  0.98330  1.0000
  H   H9        1.0  0.55910  0.20580  0.51880  1.0000
  H   H10       1.0  0.44090  0.70580  0.98120  1.0000
  H   H11       1.0  0.44090  0.79420  0.48120  1.0000
  H   H12       1.0  0.55910  0.29420  0.01880  1.0000
  C   C17       1.0  0.45780  0.17520  0.45100  1.0000
  C   C18       1.0  0.54220  0.67520  0.04900  1.0000
  C   C19       1.0  0.54220  0.82480  0.54900  1.0000
  C   C20       1.0  0.45780  0.32480  0.95100  1.0000
  H   H13       1.0  0.45460  0.09640  0.46110  1.0000
  H   H14       1.0  0.54540  0.59640  0.03890  1.0000
  H   H15       1.0  0.54540  0.90360  0.53890  1.0000
  H   H16       1.0  0.45460  0.40360  0.96110  1.0000
  C   C21       1.0  0.70220  0.57400  0.49520  1.0000
  C   C22       1.0  0.29780  0.07400  0.00480  1.0000
  C   C23       1.0  0.29780  0.42600  0.50480  1.0000
  C   C24       1.0  0.70220  0.92600  0.99520  1.0000
  H   H17       1.0  0.71730  0.63360  0.47400  1.0000
  H   H18       1.0  0.28270  0.13360  0.02600  1.0000
  H   H19       1.0  0.28270  0.36640  0.52600  1.0000
  H   H20       1.0  0.71730  0.86640  0.97400  1.0000
  C   C25       1.0  0.63010  0.51100  0.46480  1.0000
  C   C26       1.0  0.36990  0.01100  0.03520  1.0000
  C   C27       1.0  0.36990  0.48900  0.53520  1.0000
  C   C28       1.0  0.63010  0.98900  0.96480  1.0000
  H   H21       1.0  0.59710  0.53240  0.42560  1.0000
  H   H22       1.0  0.40290  0.03240  0.07440  1.0000
  H   H23       1.0  0.40290  0.46760  0.57440  1.0000
  H   H24       1.0  0.59710  0.96760  0.92560  1.0000
  C   C29       1.0  0.61150  0.42030  0.49460  1.0000
  C   C30       1.0  0.38850  0.92030  0.00540  1.0000
  C   C31       1.0  0.38850  0.57970  0.50540  1.0000
  C   C32       1.0  0.61150  0.07970  0.99460  1.0000
  C   C33       1.0  0.65730  0.39510  0.55290  1.0000
  C   C34       1.0  0.34270  0.89510  0.94710  1.0000
  C   C35       1.0  0.34270  0.60490  0.44710  1.0000
  C   C36       1.0  0.65730  0.10490  0.05290  1.0000
  H   H25       1.0  0.64390  0.33450  0.57470  1.0000
  H   H26       1.0  0.35610  0.83450  0.92530  1.0000
  H   H27       1.0  0.35610  0.66550  0.42530  1.0000
  H   H28       1.0  0.64390  0.16550  0.07470  1.0000
  C   C37       1.0  0.72680  0.46450  0.57980  1.0000
  C   C38       1.0  0.27320  0.96450  0.92020  1.0000
  C   C39       1.0  0.27320  0.53550  0.42020  1.0000
  C   C40       1.0  0.72680  0.03550  0.07980  1.0000
  H   H29       1.0  0.75850  0.44670  0.61990  1.0000
  H   H30       1.0  0.24150  0.94670  0.88010  1.0000
  H   H31       1.0  0.24150  0.55330  0.38010  1.0000
  H   H32       1.0  0.75850  0.05330  0.11990  1.0000
  C   C41       1.0  0.13210  0.38700  0.10430  1.0000
  C   C42       1.0  0.86790  0.88700  0.39570  1.0000
  C   C43       1.0  0.86790  0.61300  0.89570  1.0000
  C   C44       1.0  0.13210  0.11300  0.60430  1.0000
  H   H33       1.0  0.17800  0.34200  0.11190  1.0000
  H   H34       1.0  0.82200  0.84200  0.38810  1.0000
  H   H35       1.0  0.82200  0.65800  0.88810  1.0000
  H   H36       1.0  0.17800  0.15800  0.61190  1.0000
  C   C45       1.0  0.09150  0.41520  0.04800  1.0000
  C   C46       1.0  0.90850  0.91520  0.45200  1.0000
  C   C47       1.0  0.90850  0.58480  0.95200  1.0000
  C   C48       1.0  0.09150  0.08480  0.54800  1.0000
  H   H37       1.0  0.10950  0.38880  0.01680  1.0000
  H   H38       1.0  0.89050  0.88880  0.48320  1.0000
  H   H39       1.0  0.89050  0.61120  0.98320  1.0000
  H   H40       1.0  0.10950  0.11120  0.51680  1.0000
  C   C49       1.0  0.02280  0.48260  0.03190  1.0000
  C   C50       1.0  0.97720  0.98260  0.46810  1.0000
  C   C51       1.0  0.97720  0.51740  0.96810  1.0000
  C   C52       1.0  0.02280  0.01740  0.53190  1.0000
  C   C53       1.0  0.99910  0.51700  0.08230  1.0000
  C   C54       1.0  0.00090  0.01700  0.41770  1.0000
  C   C55       1.0  0.00090  0.48300  0.91770  1.0000
  C   C56       1.0  0.99910  0.98300  0.58230  1.0000
  H   H41       1.0  0.95340  0.56220  0.07560  1.0000
  H   H42       1.0  0.04660  0.06220  0.42440  1.0000
  H   H43       1.0  0.04660  0.43780  0.92440  1.0000
  H   H44       1.0  0.95340  0.93780  0.57560  1.0000
  C   C57       1.0  0.04370  0.48340  0.14110  1.0000
  C   C58       1.0  0.95630  0.98340  0.35890  1.0000
  C   C59       1.0  0.95630  0.51660  0.85890  1.0000
  C   C60       1.0  0.04370  0.01660  0.64110  1.0000
  H   H45       1.0  0.02630  0.50590  0.17320  1.0000
  H   H46       1.0  0.97370  0.00590  0.32680  1.0000
  H   H47       1.0  0.97370  0.49410  0.82680  1.0000
  H   H48       1.0  0.02630  0.99410  0.67320  1.0000
