data_image0
_chemical_formula_structural       Zn2O16N4C8N4C4H4C4H4C8
_chemical_formula_sum              "Zn2 O16 N8 C24 H8"
_cell_length_a       6.5318
_cell_length_b       17.492
_cell_length_c       10.688
_cell_angle_alpha    90
_cell_angle_beta     100.841
_cell_angle_gamma    90

_space_group_name_H-M_alt    "P 1"
_space_group_IT_number       1

loop_
  _space_group_symop_operation_xyz
  'x, y, z'

loop_
  _atom_site_type_symbol
  _atom_site_label
  _atom_site_symmetry_multiplicity
  _atom_site_fract_x
  _atom_site_fract_y
  _atom_site_fract_z
  _atom_site_occupancy
  Zn  Zn1       1.0  0.50000  0.00000  0.50000  1.0000
  Zn  Zn2       1.0  0.00000  0.50000  0.00000  1.0000
  O   O1        1.0  0.26370  0.94991  0.37102  1.0000
  O   O2        1.0  0.23630  0.44991  0.12898  1.0000
  O   O3        1.0  0.73630  0.05009  0.62898  1.0000
  O   O4        1.0  0.76370  0.55009  0.87102  1.0000
  O   O5        1.0  0.95110  0.97578  0.25237  1.0000
  O   O6        1.0  0.54890  0.47578  0.24763  1.0000
  O   O7        1.0  0.04890  0.02422  0.74763  1.0000
  O   O8        1.0  0.45110  0.52422  0.75237  1.0000
  O   O9        1.0  0.70260  0.13226  0.19599  1.0000
  O   O10       1.0  0.79740  0.63226  0.30401  1.0000
  O   O11       1.0  0.29740  0.86774  0.80401  1.0000
  O   O12       1.0  0.20260  0.36774  0.69599  1.0000
  O   O13       1.0  0.57730  0.06057  0.33735  1.0000
  O   O14       1.0  0.92270  0.56057  0.16265  1.0000
  O   O15       1.0  0.42270  0.93943  0.66265  1.0000
  O   O16       1.0  0.07730  0.43943  0.83735  1.0000
  N   N1        1.0  0.26330  0.08175  0.49910  1.0000
  N   N2        1.0  0.23670  0.58175  0.00090  1.0000
  N   N3        1.0  0.73670  0.91825  0.50090  1.0000
  N   N4        1.0  0.76330  0.41825  0.99910  1.0000
  C   C1        1.0  0.09160  0.06432  0.41304  1.0000
  C   C2        1.0  0.40840  0.56432  0.08696  1.0000
  C   C3        1.0  0.90840  0.93568  0.58696  1.0000
  C   C4        1.0  0.59160  0.43568  0.91304  1.0000
  C   C5        1.0  0.91940  0.11310  0.39556  1.0000
  C   C6        1.0  0.58060  0.61310  0.10444  1.0000
  C   C7        1.0  0.08060  0.88690  0.60444  1.0000
  C   C8        1.0  0.41940  0.38690  0.89556  1.0000
  N   N5        1.0  0.92290  0.17909  0.46055  1.0000
  N   N6        1.0  0.57710  0.67909  0.03945  1.0000
  N   N7        1.0  0.07710  0.82091  0.53945  1.0000
  N   N8        1.0  0.42290  0.32091  0.96055  1.0000
  C   C9        1.0  0.09480  0.19435  0.54600  1.0000
  C   C10       1.0  0.40520  0.69435  0.95400  1.0000
  C   C11       1.0  0.90520  0.80565  0.45400  1.0000
  C   C12       1.0  0.59480  0.30565  0.04600  1.0000
  H   H1        1.0  0.10040  0.24000  0.59470  1.0000
  H   H2        1.0  0.39960  0.74000  0.90530  1.0000
  H   H3        1.0  0.89960  0.76000  0.40530  1.0000
  H   H4        1.0  0.60040  0.26000  0.09470  1.0000
  C   C13       1.0  0.26540  0.14582  0.56620  1.0000
  C   C14       1.0  0.23460  0.64582  0.93380  1.0000
  C   C15       1.0  0.73460  0.85418  0.43380  1.0000
  C   C16       1.0  0.76540  0.35418  0.06620  1.0000
  H   H5        1.0  0.38480  0.15840  0.62840  1.0000
  H   H6        1.0  0.11520  0.65840  0.87160  1.0000
  H   H7        1.0  0.61520  0.84160  0.37160  1.0000
  H   H8        1.0  0.88480  0.34160  0.12840  1.0000
  C   C17       1.0  0.09960  0.99095  0.33778  1.0000
  C   C18       1.0  0.40040  0.49095  0.16222  1.0000
  C   C19       1.0  0.90040  0.00905  0.66222  1.0000
  C   C20       1.0  0.59960  0.50905  0.83778  1.0000
  C   C21       1.0  0.71680  0.09904  0.30218  1.0000
  C   C22       1.0  0.78320  0.59904  0.19782  1.0000
  C   C23       1.0  0.28320  0.90096  0.69782  1.0000
  C   C24       1.0  0.21680  0.40096  0.80218  1.0000
