data_image0
_chemical_formula_structural       Zn24N24O8N8O8N4O8C8H8C16H8C8H8O8C16H8C8H8C16H8C8H8C32H8C8H8C16H8C16H8C16O8C8O8C8H8O16C40H8C8O8C16H8C8H8C8H8C8H8C8H8O24C8N8C8H8N4
_chemical_formula_sum              "Zn24 N48 O96 C296 H152"
_cell_length_a       26.6257
_cell_length_b       26.6257
_cell_length_c       20.2942
_cell_angle_alpha    90
_cell_angle_beta     90
_cell_angle_gamma    90

_space_group_name_H-M_alt    "P 1"
_space_group_IT_number       1

loop_
  _space_group_symop_operation_xyz
  'x, y, z'

loop_
  _atom_site_type_symbol
  _atom_site_label
  _atom_site_symmetry_multiplicity
  _atom_site_fract_x
  _atom_site_fract_y
  _atom_site_fract_z
  _atom_site_occupancy
  Zn  Zn1       1.0  0.31151  0.28915  0.17089  1.0000
  Zn  Zn2       1.0  0.28915  0.68849  0.82911  1.0000
  Zn  Zn3       1.0  0.68849  0.71085  0.17089  1.0000
  Zn  Zn4       1.0  0.71085  0.31151  0.82911  1.0000
  Zn  Zn5       1.0  0.81151  0.21085  0.82911  1.0000
  Zn  Zn6       1.0  0.18849  0.78915  0.82911  1.0000
  Zn  Zn7       1.0  0.21085  0.18849  0.17089  1.0000
  Zn  Zn8       1.0  0.78915  0.81151  0.17089  1.0000
  Zn  Zn9       1.0  0.33431  0.16569  0.92447  1.0000
  Zn  Zn10      1.0  0.16569  0.66569  0.07553  1.0000
  Zn  Zn11      1.0  0.66569  0.83431  0.92447  1.0000
  Zn  Zn12      1.0  0.83431  0.33431  0.07553  1.0000
  Zn  Zn13      1.0  0.19605  0.30395  0.42489  1.0000
  Zn  Zn14      1.0  0.30395  0.80395  0.57511  1.0000
  Zn  Zn15      1.0  0.80395  0.69605  0.42489  1.0000
  Zn  Zn16      1.0  0.69605  0.19605  0.57511  1.0000
  Zn  Zn17      1.0  0.30546  0.29531  0.68567  1.0000
  Zn  Zn18      1.0  0.29531  0.69454  0.31433  1.0000
  Zn  Zn19      1.0  0.69454  0.70469  0.68567  1.0000
  Zn  Zn20      1.0  0.70469  0.30546  0.31433  1.0000
  Zn  Zn21      1.0  0.80546  0.20469  0.31433  1.0000
  Zn  Zn22      1.0  0.19454  0.79531  0.31433  1.0000
  Zn  Zn23      1.0  0.20469  0.19454  0.68567  1.0000
  Zn  Zn24      1.0  0.79531  0.80546  0.68567  1.0000
  N   N1        1.0  0.31125  0.18875  0.01400  1.0000
  N   N2        1.0  0.18875  0.68875  0.98600  1.0000
  N   N3        1.0  0.68875  0.81125  0.01400  1.0000
  N   N4        1.0  0.81125  0.31125  0.98600  1.0000
  N   N5        1.0  0.21730  0.28270  0.51630  1.0000
  N   N6        1.0  0.28270  0.78270  0.48370  1.0000
  N   N7        1.0  0.78270  0.71730  0.51630  1.0000
  N   N8        1.0  0.71730  0.21730  0.48370  1.0000
  N   N9        1.0  0.30251  0.23342  0.10350  1.0000
  N   N10       1.0  0.23342  0.69749  0.89650  1.0000
  N   N11       1.0  0.69749  0.76658  0.10350  1.0000
  N   N12       1.0  0.76658  0.30251  0.89650  1.0000
  N   N13       1.0  0.80251  0.26658  0.89650  1.0000
  N   N14       1.0  0.19749  0.73342  0.89650  1.0000
  N   N15       1.0  0.26658  0.19749  0.10350  1.0000
  N   N16       1.0  0.73342  0.80251  0.10350  1.0000
  N   N17       1.0  0.26638  0.26974  0.24810  1.0000
  N   N18       1.0  0.26974  0.73362  0.75190  1.0000
  N   N19       1.0  0.73362  0.73026  0.24810  1.0000
  N   N20       1.0  0.73026  0.26638  0.75190  1.0000
  N   N21       1.0  0.76638  0.23026  0.75190  1.0000
  N   N22       1.0  0.23362  0.76974  0.75190  1.0000
  N   N23       1.0  0.23026  0.23362  0.24810  1.0000
  N   N24       1.0  0.76974  0.76638  0.24810  1.0000
  O   O1        1.0  0.38836  0.25323  0.92650  1.0000
  O   O2        1.0  0.25323  0.61164  0.07350  1.0000
  O   O3        1.0  0.61164  0.74677  0.92650  1.0000
  O   O4        1.0  0.74677  0.38836  0.07350  1.0000
  O   O5        1.0  0.88836  0.24677  0.07350  1.0000
  O   O6        1.0  0.11164  0.75323  0.07350  1.0000
  O   O7        1.0  0.24677  0.11164  0.92650  1.0000
  O   O8        1.0  0.75323  0.88836  0.92650  1.0000
  N   N25       1.0  0.25561  0.28076  0.61170  1.0000
  N   N26       1.0  0.28076  0.74439  0.38830  1.0000
  N   N27       1.0  0.74439  0.71924  0.61170  1.0000
  N   N28       1.0  0.71924  0.25561  0.38830  1.0000
  N   N29       1.0  0.75561  0.21924  0.38830  1.0000
  N   N30       1.0  0.24439  0.78076  0.38830  1.0000
  N   N31       1.0  0.21924  0.24439  0.61170  1.0000
  N   N32       1.0  0.78076  0.75561  0.61170  1.0000
  O   O9        1.0  0.37946  0.28340  0.20530  1.0000
  O   O10       1.0  0.28340  0.62054  0.79470  1.0000
  O   O11       1.0  0.62054  0.71660  0.20530  1.0000
  O   O12       1.0  0.71660  0.37946  0.79470  1.0000
  O   O13       1.0  0.87946  0.21660  0.79470  1.0000
  O   O14       1.0  0.12054  0.78340  0.79470  1.0000
  O   O15       1.0  0.21660  0.12054  0.20530  1.0000
  O   O16       1.0  0.78340  0.87946  0.20530  1.0000
  N   N33       1.0  0.22760  0.27240  0.34380  1.0000
  N   N34       1.0  0.27240  0.77240  0.65620  1.0000
  N   N35       1.0  0.77240  0.72760  0.34380  1.0000
  N   N36       1.0  0.72760  0.22760  0.65620  1.0000
  O   O17       1.0  0.40794  0.17342  0.91230  1.0000
  O   O18       1.0  0.17342  0.59206  0.08770  1.0000
  O   O19       1.0  0.59206  0.82658  0.91230  1.0000
  O   O20       1.0  0.82658  0.40794  0.08770  1.0000
  O   O21       1.0  0.90794  0.32658  0.08770  1.0000
  O   O22       1.0  0.09206  0.67342  0.08770  1.0000
  O   O23       1.0  0.32658  0.09206  0.91230  1.0000
  O   O24       1.0  0.67342  0.90794  0.91230  1.0000
  C   C1        1.0  0.32770  0.22680  0.04940  1.0000
  C   C2        1.0  0.22680  0.67230  0.95060  1.0000
  C   C3        1.0  0.67230  0.77320  0.04940  1.0000
  C   C4        1.0  0.77320  0.32770  0.95060  1.0000
  C   C5        1.0  0.82770  0.27320  0.95060  1.0000
  C   C6        1.0  0.17230  0.72680  0.95060  1.0000
  C   C7        1.0  0.27320  0.17230  0.04940  1.0000
  C   C8        1.0  0.72680  0.82770  0.04940  1.0000
  H   H1        1.0  0.35460  0.24690  0.03690  1.0000
  H   H2        1.0  0.24690  0.64540  0.96310  1.0000
  H   H3        1.0  0.64540  0.75310  0.03690  1.0000
  H   H4        1.0  0.75310  0.35460  0.96310  1.0000
  H   H5        1.0  0.85460  0.25310  0.96310  1.0000
  H   H6        1.0  0.14540  0.74690  0.96310  1.0000
  H   H7        1.0  0.25310  0.14540  0.03690  1.0000
  H   H8        1.0  0.74690  0.85460  0.03690  1.0000
  C   C9        1.0  0.41900  0.22060  0.91290  1.0000
  C   C10       1.0  0.22060  0.58100  0.08710  1.0000
  C   C11       1.0  0.58100  0.77940  0.91290  1.0000
  C   C12       1.0  0.77940  0.41900  0.08710  1.0000
  C   C13       1.0  0.91900  0.27940  0.08710  1.0000
  C   C14       1.0  0.08100  0.72060  0.08710  1.0000
  C   C15       1.0  0.27940  0.08100  0.91290  1.0000
  C   C16       1.0  0.72060  0.91900  0.91290  1.0000
  C   C17       1.0  0.26360  0.29200  0.30500  1.0000
  C   C18       1.0  0.29200  0.73640  0.69500  1.0000
  C   C19       1.0  0.73640  0.70800  0.30500  1.0000
  C   C20       1.0  0.70800  0.26360  0.69500  1.0000
  C   C21       1.0  0.76360  0.20800  0.69500  1.0000
  C   C22       1.0  0.23640  0.79200  0.69500  1.0000
  C   C23       1.0  0.20800  0.23640  0.30500  1.0000
  C   C24       1.0  0.79200  0.76360  0.30500  1.0000
  H   H9        1.0  0.28430  0.31850  0.31750  1.0000
  H   H10       1.0  0.31850  0.71570  0.68250  1.0000
  H   H11       1.0  0.71570  0.68150  0.31750  1.0000
  H   H12       1.0  0.68150  0.28430  0.68250  1.0000
  H   H13       1.0  0.78430  0.18150  0.68250  1.0000
  H   H14       1.0  0.21570  0.81850  0.68250  1.0000
  H   H15       1.0  0.18150  0.21570  0.31750  1.0000
  H   H16       1.0  0.81850  0.78430  0.31750  1.0000
  C   C25       1.0  0.25270  0.30240  0.55390  1.0000
  C   C26       1.0  0.30240  0.74730  0.44610  1.0000
  C   C27       1.0  0.74730  0.69760  0.55390  1.0000
  C   C28       1.0  0.69760  0.25270  0.44610  1.0000
  C   C29       1.0  0.75270  0.19760  0.44610  1.0000
  C   C30       1.0  0.24730  0.80240  0.44610  1.0000
  C   C31       1.0  0.19760  0.24730  0.55390  1.0000
  C   C32       1.0  0.80240  0.75270  0.55390  1.0000
  H   H17       1.0  0.27330  0.32880  0.54070  1.0000
  H   H18       1.0  0.32880  0.72670  0.45930  1.0000
  H   H19       1.0  0.72670  0.67120  0.54070  1.0000
  H   H20       1.0  0.67120  0.27330  0.45930  1.0000
  H   H21       1.0  0.77330  0.17120  0.45930  1.0000
  H   H22       1.0  0.22670  0.82880  0.45930  1.0000
  H   H23       1.0  0.17120  0.22670  0.54070  1.0000
  H   H24       1.0  0.82880  0.77330  0.54070  1.0000
  O   O25       1.0  0.40450  0.30580  0.10630  1.0000
  O   O26       1.0  0.30580  0.59550  0.89370  1.0000
  O   O27       1.0  0.59550  0.69420  0.10630  1.0000
  O   O28       1.0  0.69420  0.40450  0.89370  1.0000
  O   O29       1.0  0.90450  0.19420  0.89370  1.0000
  O   O30       1.0  0.09550  0.80580  0.89370  1.0000
  O   O31       1.0  0.19420  0.09550  0.10630  1.0000
  O   O32       1.0  0.80580  0.90450  0.10630  1.0000
  C   C33       1.0  0.41330  0.29410  0.16470  1.0000
  C   C34       1.0  0.29410  0.58670  0.83530  1.0000
  C   C35       1.0  0.58670  0.70590  0.16470  1.0000
  C   C36       1.0  0.70590  0.41330  0.83530  1.0000
  C   C37       1.0  0.91330  0.20590  0.83530  1.0000
  C   C38       1.0  0.08670  0.79410  0.83530  1.0000
  C   C39       1.0  0.20590  0.08670  0.16470  1.0000
  C   C40       1.0  0.79410  0.91330  0.16470  1.0000
  C   C41       1.0  0.47500  0.28520  0.25450  1.0000
  C   C42       1.0  0.28520  0.52500  0.74550  1.0000
  C   C43       1.0  0.52500  0.71480  0.25450  1.0000
  C   C44       1.0  0.71480  0.47500  0.74550  1.0000
  C   C45       1.0  0.97500  0.21480  0.74550  1.0000
  C   C46       1.0  0.02500  0.78520  0.74550  1.0000
  C   C47       1.0  0.21480  0.02500  0.25450  1.0000
  C   C48       1.0  0.78520  0.97500  0.25450  1.0000
  H   H25       1.0  0.44760  0.28500  0.28300  1.0000
  H   H26       1.0  0.28500  0.55240  0.71700  1.0000
  H   H27       1.0  0.55240  0.71500  0.28300  1.0000
  H   H28       1.0  0.71500  0.44760  0.71700  1.0000
  H   H29       1.0  0.94760  0.21500  0.71700  1.0000
  H   H30       1.0  0.05240  0.78500  0.71700  1.0000
  H   H31       1.0  0.21500  0.05240  0.28300  1.0000
  H   H32       1.0  0.78500  0.94760  0.28300  1.0000
  C   C49       1.0  0.48160  0.28480  0.88470  1.0000
  C   C50       1.0  0.28480  0.51840  0.11530  1.0000
  C   C51       1.0  0.51840  0.71520  0.88470  1.0000
  C   C52       1.0  0.71520  0.48160  0.11530  1.0000
  C   C53       1.0  0.98160  0.21520  0.11530  1.0000
  C   C54       1.0  0.01840  0.78480  0.11530  1.0000
  C   C55       1.0  0.21520  0.01840  0.88470  1.0000
  C   C56       1.0  0.78480  0.98160  0.88470  1.0000
  H   H33       1.0  0.45680  0.30900  0.88970  1.0000
  H   H34       1.0  0.30900  0.54320  0.11030  1.0000
  H   H35       1.0  0.54320  0.69100  0.88970  1.0000
  H   H36       1.0  0.69100  0.45680  0.11030  1.0000
  H   H37       1.0  0.95680  0.19100  0.11030  1.0000
  H   H38       1.0  0.04320  0.80900  0.11030  1.0000
  H   H39       1.0  0.19100  0.04320  0.88970  1.0000
  H   H40       1.0  0.80900  0.95680  0.88970  1.0000
  C   C57       1.0  0.47190  0.23500  0.89580  1.0000
  C   C58       1.0  0.23500  0.52810  0.10420  1.0000
  C   C59       1.0  0.52810  0.76500  0.89580  1.0000
  C   C60       1.0  0.76500  0.47190  0.10420  1.0000
  C   C61       1.0  0.97190  0.26500  0.10420  1.0000
  C   C62       1.0  0.02810  0.73500  0.10420  1.0000
  C   C63       1.0  0.26500  0.02810  0.89580  1.0000
  C   C64       1.0  0.73500  0.97190  0.89580  1.0000
  C   C65       1.0  0.53100  0.29800  0.86540  1.0000
  C   C66       1.0  0.29800  0.46900  0.13460  1.0000
  C   C67       1.0  0.46900  0.70200  0.86540  1.0000
  C   C68       1.0  0.70200  0.53100  0.13460  1.0000
  C   C69       1.0  0.03100  0.20200  0.13460  1.0000
  C   C70       1.0  0.96900  0.79800  0.13460  1.0000
  C   C71       1.0  0.20200  0.96900  0.86540  1.0000
  C   C72       1.0  0.79800  0.03100  0.86540  1.0000
  H   H41       1.0  0.53810  0.33140  0.85610  1.0000
  H   H42       1.0  0.33140  0.46190  0.14390  1.0000
  H   H43       1.0  0.46190  0.66860  0.85610  1.0000
  H   H44       1.0  0.66860  0.53810  0.14390  1.0000
  H   H45       1.0  0.03810  0.16860  0.14390  1.0000
  H   H46       1.0  0.96190  0.83140  0.14390  1.0000
  H   H47       1.0  0.16860  0.96190  0.85610  1.0000
  H   H48       1.0  0.83140  0.03810  0.85610  1.0000
  C   C73       1.0  0.50860  0.19910  0.89020  1.0000
  C   C74       1.0  0.19910  0.49140  0.10980  1.0000
  C   C75       1.0  0.49140  0.80090  0.89020  1.0000
  C   C76       1.0  0.80090  0.50860  0.10980  1.0000
  C   C77       1.0  0.00860  0.30090  0.10980  1.0000
  C   C78       1.0  0.99140  0.69910  0.10980  1.0000
  C   C79       1.0  0.30090  0.99140  0.89020  1.0000
  C   C80       1.0  0.69910  0.00860  0.89020  1.0000
  H   H49       1.0  0.50070  0.16570  0.89820  1.0000
  H   H50       1.0  0.16570  0.49930  0.10180  1.0000
  H   H51       1.0  0.49930  0.83430  0.89820  1.0000
  H   H52       1.0  0.83430  0.50070  0.10180  1.0000
  H   H53       1.0  0.00070  0.33430  0.10180  1.0000
  H   H54       1.0  0.99930  0.66570  0.10180  1.0000
  H   H55       1.0  0.33430  0.99930  0.89820  1.0000
  H   H56       1.0  0.66570  0.00070  0.89820  1.0000
  C   C81       1.0  0.46620  0.28920  0.18890  1.0000
  C   C82       1.0  0.28920  0.53380  0.81110  1.0000
  C   C83       1.0  0.53380  0.71080  0.18890  1.0000
  C   C84       1.0  0.71080  0.46620  0.81110  1.0000
  C   C85       1.0  0.96620  0.21080  0.81110  1.0000
  C   C86       1.0  0.03380  0.78920  0.81110  1.0000
  C   C87       1.0  0.21080  0.03380  0.18890  1.0000
  C   C88       1.0  0.78920  0.96620  0.18890  1.0000
  C   C89       1.0  0.55830  0.21230  0.87260  1.0000
  C   C90       1.0  0.21230  0.44170  0.12740  1.0000
  C   C91       1.0  0.44170  0.78770  0.87260  1.0000
  C   C92       1.0  0.78770  0.55830  0.12740  1.0000
  C   C93       1.0  0.05830  0.28770  0.12740  1.0000
  C   C94       1.0  0.94170  0.71230  0.12740  1.0000
  C   C95       1.0  0.28770  0.94170  0.87260  1.0000
  C   C96       1.0  0.71230  0.05830  0.87260  1.0000
  C   C97       1.0  0.52270  0.28150  0.28120  1.0000
  C   C98       1.0  0.28150  0.47730  0.71880  1.0000
  C   C99       1.0  0.47730  0.71850  0.28120  1.0000
  C   C100      1.0  0.71850  0.52270  0.71880  1.0000
  C   C101      1.0  0.02270  0.21850  0.71880  1.0000
  C   C102      1.0  0.97730  0.78150  0.71880  1.0000
  C   C103      1.0  0.21850  0.97730  0.28120  1.0000
  C   C104      1.0  0.78150  0.02270  0.28120  1.0000
  C   C105      1.0  0.50600  0.29070  0.14510  1.0000
  C   C106      1.0  0.29070  0.49400  0.85490  1.0000
  C   C107      1.0  0.49400  0.70930  0.14510  1.0000
  C   C108      1.0  0.70930  0.50600  0.85490  1.0000
  C   C109      1.0  0.00600  0.20930  0.85490  1.0000
  C   C110      1.0  0.99400  0.79070  0.85490  1.0000
  C   C111      1.0  0.20930  0.99400  0.14510  1.0000
  C   C112      1.0  0.79070  0.00600  0.14510  1.0000
  H   H57       1.0  0.50100  0.29410  0.10000  1.0000
  H   H58       1.0  0.29410  0.49900  0.90000  1.0000
  H   H59       1.0  0.49900  0.70590  0.10000  1.0000
  H   H60       1.0  0.70590  0.50100  0.90000  1.0000
  H   H61       1.0  0.00100  0.20590  0.90000  1.0000
  H   H62       1.0  0.99900  0.79410  0.90000  1.0000
  H   H63       1.0  0.20590  0.99900  0.10000  1.0000
  H   H64       1.0  0.79410  0.00100  0.10000  1.0000
  C   C113      1.0  0.63300  0.17020  0.81930  1.0000
  C   C114      1.0  0.17020  0.36700  0.18070  1.0000
  C   C115      1.0  0.36700  0.82980  0.81930  1.0000
  C   C116      1.0  0.82980  0.63300  0.18070  1.0000
  C   C117      1.0  0.13300  0.32980  0.18070  1.0000
  C   C118      1.0  0.86700  0.67020  0.18070  1.0000
  C   C119      1.0  0.32980  0.86700  0.81930  1.0000
  C   C120      1.0  0.67020  0.13300  0.81930  1.0000
  H   H65       1.0  0.62000  0.18200  0.77700  1.0000
  H   H66       1.0  0.18200  0.38000  0.22300  1.0000
  H   H67       1.0  0.38000  0.81800  0.77700  1.0000
  H   H68       1.0  0.81800  0.62000  0.22300  1.0000
  H   H69       1.0  0.12000  0.31800  0.22300  1.0000
  H   H70       1.0  0.88000  0.68200  0.22300  1.0000
  H   H71       1.0  0.31800  0.88000  0.77700  1.0000
  H   H72       1.0  0.68200  0.12000  0.77700  1.0000
  C   C121      1.0  0.59710  0.17270  0.86990  1.0000
  C   C122      1.0  0.17270  0.40290  0.13010  1.0000
  C   C123      1.0  0.40290  0.82730  0.86990  1.0000
  C   C124      1.0  0.82730  0.59710  0.13010  1.0000
  C   C125      1.0  0.09710  0.32730  0.13010  1.0000
  C   C126      1.0  0.90290  0.67270  0.13010  1.0000
  C   C127      1.0  0.32730  0.90290  0.86990  1.0000
  C   C128      1.0  0.67270  0.09710  0.86990  1.0000
  C   C129      1.0  0.59960  0.13760  0.92040  1.0000
  C   C130      1.0  0.13760  0.40040  0.07960  1.0000
  C   C131      1.0  0.40040  0.86240  0.92040  1.0000
  C   C132      1.0  0.86240  0.59960  0.07960  1.0000
  C   C133      1.0  0.09960  0.36240  0.07960  1.0000
  C   C134      1.0  0.90040  0.63760  0.07960  1.0000
  C   C135      1.0  0.36240  0.90040  0.92040  1.0000
  C   C136      1.0  0.63760  0.09960  0.92040  1.0000
  H   H73       1.0  0.57630  0.13870  0.95450  1.0000
  H   H74       1.0  0.13870  0.42370  0.04550  1.0000
  H   H75       1.0  0.42370  0.86130  0.95450  1.0000
  H   H76       1.0  0.86130  0.57630  0.04550  1.0000
  H   H77       1.0  0.07630  0.36130  0.04550  1.0000
  H   H78       1.0  0.92370  0.63870  0.04550  1.0000
  H   H79       1.0  0.36130  0.92370  0.95450  1.0000
  H   H80       1.0  0.63870  0.07630  0.95450  1.0000
  C   C137      1.0  0.52700  0.27830  0.35380  1.0000
  C   C138      1.0  0.27830  0.47300  0.64620  1.0000
  C   C139      1.0  0.47300  0.72170  0.35380  1.0000
  C   C140      1.0  0.72170  0.52700  0.64620  1.0000
  C   C141      1.0  0.02700  0.22170  0.64620  1.0000
  C   C142      1.0  0.97300  0.77830  0.64620  1.0000
  C   C143      1.0  0.22170  0.97300  0.35380  1.0000
  C   C144      1.0  0.77830  0.02700  0.35380  1.0000
  C   C145      1.0  0.54860  0.23770  0.45680  1.0000
  C   C146      1.0  0.23770  0.45140  0.54320  1.0000
  C   C147      1.0  0.45140  0.76230  0.45680  1.0000
  C   C148      1.0  0.76230  0.54860  0.54320  1.0000
  C   C149      1.0  0.04860  0.26230  0.54320  1.0000
  C   C150      1.0  0.95140  0.73770  0.54320  1.0000
  C   C151      1.0  0.26230  0.95140  0.45680  1.0000
  C   C152      1.0  0.73770  0.04860  0.45680  1.0000
  H   H81       1.0  0.56670  0.21250  0.47800  1.0000
  H   H82       1.0  0.21250  0.43330  0.52200  1.0000
  H   H83       1.0  0.43330  0.78750  0.47800  1.0000
  H   H84       1.0  0.78750  0.56670  0.52200  1.0000
  H   H85       1.0  0.06670  0.28750  0.52200  1.0000
  H   H86       1.0  0.93330  0.71250  0.52200  1.0000
  H   H87       1.0  0.28750  0.93330  0.47800  1.0000
  H   H88       1.0  0.71250  0.06670  0.47800  1.0000
  C   C153      1.0  0.56830  0.26360  0.86000  1.0000
  C   C154      1.0  0.26360  0.43170  0.14000  1.0000
  C   C155      1.0  0.43170  0.73640  0.86000  1.0000
  C   C156      1.0  0.73640  0.56830  0.14000  1.0000
  C   C157      1.0  0.06830  0.23640  0.14000  1.0000
  C   C158      1.0  0.93170  0.76360  0.14000  1.0000
  C   C159      1.0  0.23640  0.93170  0.86000  1.0000
  C   C160      1.0  0.76360  0.06830  0.86000  1.0000
  C   C161      1.0  0.56300  0.28220  0.23830  1.0000
  C   C162      1.0  0.28220  0.43700  0.76170  1.0000
  C   C163      1.0  0.43700  0.71780  0.23830  1.0000
  C   C164      1.0  0.71780  0.56300  0.76170  1.0000
  C   C165      1.0  0.06300  0.21780  0.76170  1.0000
  C   C166      1.0  0.93700  0.78220  0.76170  1.0000
  C   C167      1.0  0.21780  0.93700  0.23830  1.0000
  C   C168      1.0  0.78220  0.06300  0.23830  1.0000
  O   O33       1.0  0.62330  0.30600  0.78400  1.0000
  O   O34       1.0  0.30600  0.37670  0.21600  1.0000
  O   O35       1.0  0.37670  0.69400  0.78400  1.0000
  O   O36       1.0  0.69400  0.62330  0.21600  1.0000
  O   O37       1.0  0.12330  0.19400  0.21600  1.0000
  O   O38       1.0  0.87670  0.80600  0.21600  1.0000
  O   O39       1.0  0.19400  0.87670  0.78400  1.0000
  O   O40       1.0  0.80600  0.12330  0.78400  1.0000
  C   C169      1.0  0.61940  0.28450  0.83820  1.0000
  C   C170      1.0  0.28450  0.38060  0.16180  1.0000
  C   C171      1.0  0.38060  0.71550  0.83820  1.0000
  C   C172      1.0  0.71550  0.61940  0.16180  1.0000
  C   C173      1.0  0.11940  0.21550  0.16180  1.0000
  C   C174      1.0  0.88060  0.78450  0.16180  1.0000
  C   C175      1.0  0.21550  0.88060  0.83820  1.0000
  C   C176      1.0  0.78450  0.11940  0.83820  1.0000
  O   O41       1.0  0.65310  0.27870  0.87790  1.0000
  O   O42       1.0  0.27870  0.34690  0.12210  1.0000
  O   O43       1.0  0.34690  0.72130  0.87790  1.0000
  O   O44       1.0  0.72130  0.65310  0.12210  1.0000
  O   O45       1.0  0.15310  0.22130  0.12210  1.0000
  O   O46       1.0  0.84690  0.77870  0.12210  1.0000
  O   O47       1.0  0.22130  0.84690  0.87790  1.0000
  O   O48       1.0  0.77870  0.15310  0.87790  1.0000
  C   C177      1.0  0.55060  0.24110  0.38580  1.0000
  C   C178      1.0  0.24110  0.44940  0.61420  1.0000
  C   C179      1.0  0.44940  0.75890  0.38580  1.0000
  C   C180      1.0  0.75890  0.55060  0.61420  1.0000
  C   C181      1.0  0.05060  0.25890  0.61420  1.0000
  C   C182      1.0  0.94940  0.74110  0.61420  1.0000
  C   C183      1.0  0.25890  0.94940  0.38580  1.0000
  C   C184      1.0  0.74110  0.05060  0.38580  1.0000
  H   H89       1.0  0.56850  0.21720  0.36200  1.0000
  H   H90       1.0  0.21720  0.43150  0.63800  1.0000
  H   H91       1.0  0.43150  0.78280  0.36200  1.0000
  H   H92       1.0  0.78280  0.56850  0.63800  1.0000
  H   H93       1.0  0.06850  0.28280  0.63800  1.0000
  H   H94       1.0  0.93150  0.71720  0.63800  1.0000
  H   H95       1.0  0.28280  0.93150  0.36200  1.0000
  H   H96       1.0  0.71720  0.06850  0.36200  1.0000
  O   O49       1.0  0.36946  0.27990  0.64040  1.0000
  O   O50       1.0  0.27990  0.63054  0.35960  1.0000
  O   O51       1.0  0.63054  0.72010  0.64040  1.0000
  O   O52       1.0  0.72010  0.36946  0.35960  1.0000
  O   O53       1.0  0.86946  0.22010  0.35960  1.0000
  O   O54       1.0  0.13054  0.77990  0.35960  1.0000
  O   O55       1.0  0.22010  0.13054  0.64040  1.0000
  O   O56       1.0  0.77990  0.86946  0.64040  1.0000
  O   O57       1.0  0.39910  0.29390  0.73980  1.0000
  O   O58       1.0  0.29390  0.60090  0.26020  1.0000
  O   O59       1.0  0.60090  0.70610  0.73980  1.0000
  O   O60       1.0  0.70610  0.39910  0.26020  1.0000
  O   O61       1.0  0.89910  0.20610  0.26020  1.0000
  O   O62       1.0  0.10090  0.79390  0.26020  1.0000
  O   O63       1.0  0.20610  0.10090  0.73980  1.0000
  O   O64       1.0  0.79390  0.89910  0.73980  1.0000
  C   C185      1.0  0.51410  0.26370  0.56390  1.0000
  C   C186      1.0  0.26370  0.48590  0.43610  1.0000
  C   C187      1.0  0.48590  0.73630  0.56390  1.0000
  C   C188      1.0  0.73630  0.51410  0.43610  1.0000
  C   C189      1.0  0.01410  0.23630  0.43610  1.0000
  C   C190      1.0  0.98590  0.76370  0.43610  1.0000
  C   C191      1.0  0.23630  0.98590  0.56390  1.0000
  C   C192      1.0  0.76370  0.01410  0.56390  1.0000
  C   C193      1.0  0.40510  0.28170  0.68110  1.0000
  C   C194      1.0  0.28170  0.59490  0.31890  1.0000
  C   C195      1.0  0.59490  0.71830  0.68110  1.0000
  C   C196      1.0  0.71830  0.40510  0.31890  1.0000
  C   C197      1.0  0.90510  0.21830  0.31890  1.0000
  C   C198      1.0  0.09490  0.78170  0.31890  1.0000
  C   C199      1.0  0.21830  0.09490  0.68110  1.0000
  C   C200      1.0  0.78170  0.90510  0.68110  1.0000
  C   C201      1.0  0.45730  0.26920  0.65470  1.0000
  C   C202      1.0  0.26920  0.54270  0.34530  1.0000
  C   C203      1.0  0.54270  0.73080  0.65470  1.0000
  C   C204      1.0  0.73080  0.45730  0.34530  1.0000
  C   C205      1.0  0.95730  0.23080  0.34530  1.0000
  C   C206      1.0  0.04270  0.76920  0.34530  1.0000
  C   C207      1.0  0.23080  0.04270  0.65470  1.0000
  C   C208      1.0  0.76920  0.95730  0.65470  1.0000
  C   C209      1.0  0.55290  0.25180  0.60790  1.0000
  C   C210      1.0  0.25180  0.44710  0.39210  1.0000
  C   C211      1.0  0.44710  0.74820  0.60790  1.0000
  C   C212      1.0  0.74820  0.55290  0.39210  1.0000
  C   C213      1.0  0.05290  0.24820  0.39210  1.0000
  C   C214      1.0  0.94710  0.75180  0.39210  1.0000
  C   C215      1.0  0.24820  0.94710  0.60790  1.0000
  C   C216      1.0  0.75180  0.05290  0.60790  1.0000
  C   C217      1.0  0.46680  0.26960  0.58980  1.0000
  C   C218      1.0  0.26960  0.53320  0.41020  1.0000
  C   C219      1.0  0.53320  0.73040  0.58980  1.0000
  C   C220      1.0  0.73040  0.46680  0.41020  1.0000
  C   C221      1.0  0.96680  0.23040  0.41020  1.0000
  C   C222      1.0  0.03320  0.76960  0.41020  1.0000
  C   C223      1.0  0.23040  0.03320  0.58980  1.0000
  C   C224      1.0  0.76960  0.96680  0.58980  1.0000
  H   H97       1.0  0.44000  0.27420  0.56090  1.0000
  H   H98       1.0  0.27420  0.56000  0.43910  1.0000
  H   H99       1.0  0.56000  0.72580  0.56090  1.0000
  H   H100      1.0  0.72580  0.44000  0.43910  1.0000
  H   H101      1.0  0.94000  0.22580  0.43910  1.0000
  H   H102      1.0  0.06000  0.77420  0.43910  1.0000
  H   H103      1.0  0.22580  0.06000  0.56090  1.0000
  H   H104      1.0  0.77420  0.94000  0.56090  1.0000
  C   C225      1.0  0.52240  0.26840  0.49150  1.0000
  C   C226      1.0  0.26840  0.47760  0.50850  1.0000
  C   C227      1.0  0.47760  0.73160  0.49150  1.0000
  C   C228      1.0  0.73160  0.52240  0.50850  1.0000
  C   C229      1.0  0.02240  0.23160  0.50850  1.0000
  C   C230      1.0  0.97760  0.76840  0.50850  1.0000
  C   C231      1.0  0.23160  0.97760  0.49150  1.0000
  C   C232      1.0  0.76840  0.02240  0.49150  1.0000
  O   O65       1.0  0.63260  0.28060  0.57110  1.0000
  O   O66       1.0  0.28060  0.36740  0.42890  1.0000
  O   O67       1.0  0.36740  0.71940  0.57110  1.0000
  O   O68       1.0  0.71940  0.63260  0.42890  1.0000
  O   O69       1.0  0.13260  0.21940  0.42890  1.0000
  O   O70       1.0  0.86740  0.78060  0.42890  1.0000
  O   O71       1.0  0.21940  0.86740  0.57110  1.0000
  O   O72       1.0  0.78060  0.13260  0.57110  1.0000
  C   C233      1.0  0.60670  0.24590  0.58670  1.0000
  C   C234      1.0  0.24590  0.39330  0.41330  1.0000
  C   C235      1.0  0.39330  0.75410  0.58670  1.0000
  C   C236      1.0  0.75410  0.60670  0.41330  1.0000
  C   C237      1.0  0.10670  0.25410  0.41330  1.0000
  C   C238      1.0  0.89330  0.74590  0.41330  1.0000
  C   C239      1.0  0.25410  0.89330  0.58670  1.0000
  C   C240      1.0  0.74590  0.10670  0.58670  1.0000
  C   C241      1.0  0.49410  0.25760  0.69770  1.0000
  C   C242      1.0  0.25760  0.50590  0.30230  1.0000
  C   C243      1.0  0.50590  0.74240  0.69770  1.0000
  C   C244      1.0  0.74240  0.49410  0.30230  1.0000
  C   C245      1.0  0.99410  0.24240  0.30230  1.0000
  C   C246      1.0  0.00590  0.75760  0.30230  1.0000
  C   C247      1.0  0.24240  0.00590  0.69770  1.0000
  C   C248      1.0  0.75760  0.99410  0.69770  1.0000
  H   H105      1.0  0.48720  0.25560  0.74250  1.0000
  H   H106      1.0  0.25560  0.51280  0.25750  1.0000
  H   H107      1.0  0.51280  0.74440  0.74250  1.0000
  H   H108      1.0  0.74440  0.48720  0.25750  1.0000
  H   H109      1.0  0.98720  0.24440  0.25750  1.0000
  H   H110      1.0  0.01280  0.75560  0.25750  1.0000
  H   H111      1.0  0.24440  0.01280  0.74250  1.0000
  H   H112      1.0  0.75560  0.98720  0.74250  1.0000
  C   C249      1.0  0.50180  0.31150  0.45900  1.0000
  C   C250      1.0  0.31150  0.49820  0.54100  1.0000
  C   C251      1.0  0.49820  0.68850  0.45900  1.0000
  C   C252      1.0  0.68850  0.50180  0.54100  1.0000
  C   C253      1.0  0.00180  0.18850  0.54100  1.0000
  C   C254      1.0  0.99820  0.81150  0.54100  1.0000
  C   C255      1.0  0.18850  0.99820  0.45900  1.0000
  C   C256      1.0  0.81150  0.00180  0.45900  1.0000
  H   H113      1.0  0.48740  0.33710  0.48380  1.0000
  H   H114      1.0  0.33710  0.51260  0.51620  1.0000
  H   H115      1.0  0.51260  0.66290  0.48380  1.0000
  H   H116      1.0  0.66290  0.48740  0.51620  1.0000
  H   H117      1.0  0.98740  0.16290  0.51620  1.0000
  H   H118      1.0  0.01260  0.83710  0.51620  1.0000
  H   H119      1.0  0.16290  0.01260  0.48380  1.0000
  H   H120      1.0  0.83710  0.98740  0.48380  1.0000
  C   C257      1.0  0.54170  0.24870  0.67490  1.0000
  C   C258      1.0  0.24870  0.45830  0.32510  1.0000
  C   C259      1.0  0.45830  0.75130  0.67490  1.0000
  C   C260      1.0  0.75130  0.54170  0.32510  1.0000
  C   C261      1.0  0.04170  0.25130  0.32510  1.0000
  C   C262      1.0  0.95830  0.74870  0.32510  1.0000
  C   C263      1.0  0.25130  0.95830  0.67490  1.0000
  C   C264      1.0  0.74870  0.04170  0.67490  1.0000
  H   H121      1.0  0.56700  0.24050  0.70460  1.0000
  H   H122      1.0  0.24050  0.43300  0.29540  1.0000
  H   H123      1.0  0.43300  0.75950  0.70460  1.0000
  H   H124      1.0  0.75950  0.56700  0.29540  1.0000
  H   H125      1.0  0.06700  0.25950  0.29540  1.0000
  H   H126      1.0  0.93300  0.74050  0.29540  1.0000
  H   H127      1.0  0.25950  0.93300  0.70460  1.0000
  H   H128      1.0  0.74050  0.06700  0.70460  1.0000
  C   C265      1.0  0.50320  0.31510  0.39100  1.0000
  C   C266      1.0  0.31510  0.49680  0.60900  1.0000
  C   C267      1.0  0.49680  0.68490  0.39100  1.0000
  C   C268      1.0  0.68490  0.50320  0.60900  1.0000
  C   C269      1.0  0.00320  0.18490  0.60900  1.0000
  C   C270      1.0  0.99680  0.81510  0.60900  1.0000
  C   C271      1.0  0.18490  0.99680  0.39100  1.0000
  C   C272      1.0  0.81510  0.00320  0.39100  1.0000
  H   H129      1.0  0.48810  0.34230  0.37010  1.0000
  H   H130      1.0  0.34230  0.51190  0.62990  1.0000
  H   H131      1.0  0.51190  0.65770  0.37010  1.0000
  H   H132      1.0  0.65770  0.48810  0.62990  1.0000
  H   H133      1.0  0.98810  0.15770  0.62990  1.0000
  H   H134      1.0  0.01190  0.84230  0.62990  1.0000
  H   H135      1.0  0.15770  0.01190  0.37010  1.0000
  H   H136      1.0  0.84230  0.98810  0.37010  1.0000
  C   C273      1.0  0.55400  0.28700  0.17200  1.0000
  C   C274      1.0  0.28700  0.44600  0.82800  1.0000
  C   C275      1.0  0.44600  0.71300  0.17200  1.0000
  C   C276      1.0  0.71300  0.55400  0.82800  1.0000
  C   C277      1.0  0.05400  0.21300  0.82800  1.0000
  C   C278      1.0  0.94600  0.78700  0.82800  1.0000
  C   C279      1.0  0.21300  0.94600  0.17200  1.0000
  C   C280      1.0  0.78700  0.05400  0.17200  1.0000
  H   H137      1.0  0.58140  0.28770  0.14350  1.0000
  H   H138      1.0  0.28770  0.41860  0.85650  1.0000
  H   H139      1.0  0.41860  0.71230  0.14350  1.0000
  H   H140      1.0  0.71230  0.58140  0.85650  1.0000
  H   H141      1.0  0.08140  0.21230  0.85650  1.0000
  H   H142      1.0  0.91860  0.78770  0.85650  1.0000
  H   H143      1.0  0.21230  0.91860  0.14350  1.0000
  H   H144      1.0  0.78770  0.08140  0.14350  1.0000
  O   O73       1.0  0.62334  0.20090  0.59090  1.0000
  O   O74       1.0  0.20090  0.37666  0.40910  1.0000
  O   O75       1.0  0.37666  0.79910  0.59090  1.0000
  O   O76       1.0  0.79910  0.62334  0.40910  1.0000
  O   O77       1.0  0.12334  0.29910  0.40910  1.0000
  O   O78       1.0  0.87666  0.70090  0.40910  1.0000
  O   O79       1.0  0.29910  0.87666  0.59090  1.0000
  O   O80       1.0  0.70090  0.12334  0.59090  1.0000
  O   O81       1.0  0.63350  0.30570  0.29670  1.0000
  O   O82       1.0  0.30570  0.36650  0.70330  1.0000
  O   O83       1.0  0.36650  0.69430  0.29670  1.0000
  O   O84       1.0  0.69430  0.63350  0.70330  1.0000
  O   O85       1.0  0.13350  0.19430  0.70330  1.0000
  O   O86       1.0  0.86650  0.80570  0.70330  1.0000
  O   O87       1.0  0.19430  0.86650  0.29670  1.0000
  O   O88       1.0  0.80570  0.13350  0.29670  1.0000
  O   O89       1.0  0.64350  0.23850  0.24150  1.0000
  O   O90       1.0  0.23850  0.35650  0.75850  1.0000
  O   O91       1.0  0.35650  0.76150  0.24150  1.0000
  O   O92       1.0  0.76150  0.64350  0.75850  1.0000
  O   O93       1.0  0.14350  0.26150  0.75850  1.0000
  O   O94       1.0  0.85650  0.73850  0.75850  1.0000
  O   O95       1.0  0.26150  0.85650  0.24150  1.0000
  O   O96       1.0  0.73850  0.14350  0.24150  1.0000
  C   C281      1.0  0.61720  0.27780  0.26150  1.0000
  C   C282      1.0  0.27780  0.38280  0.73850  1.0000
  C   C283      1.0  0.38280  0.72220  0.26150  1.0000
  C   C284      1.0  0.72220  0.61720  0.73850  1.0000
  C   C285      1.0  0.11720  0.22220  0.73850  1.0000
  C   C286      1.0  0.88280  0.77780  0.73850  1.0000
  C   C287      1.0  0.22220  0.88280  0.26150  1.0000
  C   C288      1.0  0.77780  0.11720  0.26150  1.0000
  N   N37       1.0  0.29200  0.24402  0.75590  1.0000
  N   N38       1.0  0.24402  0.70800  0.24410  1.0000
  N   N39       1.0  0.70800  0.75598  0.75590  1.0000
  N   N40       1.0  0.75598  0.29200  0.24410  1.0000
  N   N41       1.0  0.79200  0.25598  0.24410  1.0000
  N   N42       1.0  0.20800  0.74402  0.24410  1.0000
  N   N43       1.0  0.25598  0.20800  0.75590  1.0000
  N   N44       1.0  0.74402  0.79200  0.75590  1.0000
  C   C289      1.0  0.31780  0.23720  0.81050  1.0000
  C   C290      1.0  0.23720  0.68220  0.18950  1.0000
  C   C291      1.0  0.68220  0.76280  0.81050  1.0000
  C   C292      1.0  0.76280  0.31780  0.18950  1.0000
  C   C293      1.0  0.81780  0.26280  0.18950  1.0000
  C   C294      1.0  0.18220  0.73720  0.18950  1.0000
  C   C295      1.0  0.26280  0.18220  0.81050  1.0000
  C   C296      1.0  0.73720  0.81780  0.81050  1.0000
  H   H145      1.0  0.34480  0.25720  0.82300  1.0000
  H   H146      1.0  0.25720  0.65520  0.17700  1.0000
  H   H147      1.0  0.65520  0.74280  0.82300  1.0000
  H   H148      1.0  0.74280  0.34480  0.17700  1.0000
  H   H149      1.0  0.84480  0.24280  0.17700  1.0000
  H   H150      1.0  0.15520  0.75720  0.17700  1.0000
  H   H151      1.0  0.24280  0.15520  0.82300  1.0000
  H   H152      1.0  0.75720  0.84480  0.82300  1.0000
  N   N45       1.0  0.30120  0.19880  0.84560  1.0000
  N   N46       1.0  0.19880  0.69880  0.15440  1.0000
  N   N47       1.0  0.69880  0.80120  0.84560  1.0000
  N   N48       1.0  0.80120  0.30120  0.15440  1.0000
