data_image0
_chemical_formula_structural       C12H4C16H4C4H4C20H4C16H4C4H4C8O36H8Li4Zn4
_chemical_formula_sum              "C80 H32 O36 Li4 Zn4"
_cell_length_a       9.7373
_cell_length_b       15.1542
_cell_length_c       21.1695
_cell_angle_alpha    90
_cell_angle_beta     98.756
_cell_angle_gamma    90

_space_group_name_H-M_alt    "P 1"
_space_group_IT_number       1

loop_
  _space_group_symop_operation_xyz
  'x, y, z'

loop_
  _atom_site_type_symbol
  _atom_site_label
  _atom_site_symmetry_multiplicity
  _atom_site_fract_x
  _atom_site_fract_y
  _atom_site_fract_z
  _atom_site_occupancy
  C   C1        1.0  0.42110  0.33610  0.16326  1.0000
  C   C2        1.0  0.57890  0.83610  0.33674  1.0000
  C   C3        1.0  0.57890  0.66390  0.83674  1.0000
  C   C4        1.0  0.42110  0.16390  0.66326  1.0000
  C   C5        1.0  0.45460  0.41760  0.12806  1.0000
  C   C6        1.0  0.54540  0.91760  0.37194  1.0000
  C   C7        1.0  0.54540  0.58240  0.87194  1.0000
  C   C8        1.0  0.45460  0.08240  0.62806  1.0000
  C   C9        1.0  0.46570  0.49640  0.16237  1.0000
  C   C10       1.0  0.53430  0.99640  0.33763  1.0000
  C   C11       1.0  0.53430  0.50360  0.83763  1.0000
  C   C12       1.0  0.46570  0.00360  0.66237  1.0000
  H   H1        1.0  0.45100  0.49590  0.20570  1.0000
  H   H2        1.0  0.54900  0.99590  0.29430  1.0000
  H   H3        1.0  0.54900  0.50410  0.79430  1.0000
  H   H4        1.0  0.45100  0.00410  0.70570  1.0000
  C   C13       1.0  0.49750  0.57500  0.13529  1.0000
  C   C14       1.0  0.50250  0.07500  0.36471  1.0000
  C   C15       1.0  0.50250  0.42500  0.86471  1.0000
  C   C16       1.0  0.49750  0.92500  0.63529  1.0000
  C   C17       1.0  0.52090  0.65350  0.17922  1.0000
  C   C18       1.0  0.47910  0.15350  0.32078  1.0000
  C   C19       1.0  0.47910  0.34650  0.82078  1.0000
  C   C20       1.0  0.52090  0.84650  0.67922  1.0000
  C   C21       1.0  0.51060  0.57840  0.06966  1.0000
  C   C22       1.0  0.48940  0.07840  0.43034  1.0000
  C   C23       1.0  0.48940  0.42160  0.93034  1.0000
  C   C24       1.0  0.51060  0.92160  0.56966  1.0000
  C   C25       1.0  0.53170  0.65990  0.03791  1.0000
  C   C26       1.0  0.46830  0.15990  0.46209  1.0000
  C   C27       1.0  0.46830  0.34010  0.96209  1.0000
  C   C28       1.0  0.53170  0.84010  0.53791  1.0000
  H   H5        1.0  0.53960  0.71330  0.06170  1.0000
  H   H6        1.0  0.46040  0.21330  0.43830  1.0000
  H   H7        1.0  0.46040  0.28670  0.93830  1.0000
  H   H8        1.0  0.53960  0.78670  0.56170  1.0000
  C   C29       1.0  0.45950  0.33810  0.02519  1.0000
  C   C30       1.0  0.54050  0.83810  0.47481  1.0000
  C   C31       1.0  0.54050  0.66190  0.97481  1.0000
  C   C32       1.0  0.45950  0.16190  0.52519  1.0000
  H   H9        1.0  0.44550  0.28310  0.04480  1.0000
  H   H10       1.0  0.55450  0.78310  0.45520  1.0000
  H   H11       1.0  0.55450  0.71690  0.95520  1.0000
  H   H12       1.0  0.44550  0.21690  0.54480  1.0000
  C   C33       1.0  0.47070  0.41700  0.06330  1.0000
  C   C34       1.0  0.52930  0.91700  0.43670  1.0000
  C   C35       1.0  0.52930  0.58300  0.93670  1.0000
  C   C36       1.0  0.47070  0.08300  0.56330  1.0000
  C   C37       1.0  0.49530  0.49890  0.03368  1.0000
  C   C38       1.0  0.50470  0.99890  0.46632  1.0000
  C   C39       1.0  0.50470  0.50110  0.96632  1.0000
  C   C40       1.0  0.49530  0.00110  0.53368  1.0000
  C   C41       1.0  0.18350  0.39560  0.33693  1.0000
  C   C42       1.0  0.81650  0.89560  0.16307  1.0000
  C   C43       1.0  0.81650  0.60440  0.66307  1.0000
  C   C44       1.0  0.18350  0.10440  0.83693  1.0000
  C   C45       1.0  0.08820  0.45230  0.37031  1.0000
  C   C46       1.0  0.91180  0.95230  0.12969  1.0000
  C   C47       1.0  0.91180  0.54770  0.62969  1.0000
  C   C48       1.0  0.08820  0.04770  0.87031  1.0000
  C   C49       1.0  0.99950  0.51090  0.33382  1.0000
  C   C50       1.0  0.00050  0.01090  0.16618  1.0000
  C   C51       1.0  0.00050  0.48910  0.66618  1.0000
  C   C52       1.0  0.99950  0.98910  0.83382  1.0000
  H   H13       1.0  0.99980  0.51430  0.28900  1.0000
  H   H14       1.0  0.00020  0.01430  0.21100  1.0000
  H   H15       1.0  0.00020  0.48570  0.71100  1.0000
  H   H16       1.0  0.99980  0.98570  0.78900  1.0000
  C   C53       1.0  0.91000  0.56470  0.36198  1.0000
  C   C54       1.0  0.09000  0.06470  0.13802  1.0000
  C   C55       1.0  0.09000  0.43530  0.63802  1.0000
  C   C56       1.0  0.91000  0.93530  0.86198  1.0000
  C   C57       1.0  0.80870  0.62250  0.31969  1.0000
  C   C58       1.0  0.19130  0.12250  0.18031  1.0000
  C   C59       1.0  0.19130  0.37750  0.68031  1.0000
  C   C60       1.0  0.80870  0.87750  0.81969  1.0000
  C   C61       1.0  0.09070  0.44700  0.43682  1.0000
  C   C62       1.0  0.90930  0.94700  0.06318  1.0000
  C   C63       1.0  0.90930  0.55300  0.56318  1.0000
  C   C64       1.0  0.09070  0.05300  0.93682  1.0000
  C   C65       1.0  0.18010  0.38690  0.47667  1.0000
  C   C66       1.0  0.81990  0.88690  0.02333  1.0000
  C   C67       1.0  0.81990  0.61310  0.52333  1.0000
  C   C68       1.0  0.18010  0.11310  0.97667  1.0000
  H   H17       1.0  0.24020  0.34910  0.45770  1.0000
  H   H18       1.0  0.75980  0.84910  0.04230  1.0000
  H   H19       1.0  0.75980  0.65090  0.54230  1.0000
  H   H20       1.0  0.24020  0.15090  0.95770  1.0000
  C   C69       1.0  0.81950  0.61700  0.45954  1.0000
  C   C70       1.0  0.18050  0.11700  0.04046  1.0000
  C   C71       1.0  0.18050  0.38300  0.54046  1.0000
  C   C72       1.0  0.81950  0.88300  0.95954  1.0000
  H   H21       1.0  0.75870  0.65710  0.43470  1.0000
  H   H22       1.0  0.24130  0.15710  0.06530  1.0000
  H   H23       1.0  0.24130  0.34290  0.56530  1.0000
  H   H24       1.0  0.75870  0.84290  0.93470  1.0000
  C   C73       1.0  0.90900  0.56180  0.42841  1.0000
  C   C74       1.0  0.09100  0.06180  0.07159  1.0000
  C   C75       1.0  0.09100  0.43820  0.57159  1.0000
  C   C76       1.0  0.90900  0.93820  0.92841  1.0000
  C   C77       1.0  0.99950  0.50240  0.46602  1.0000
  C   C78       1.0  0.00050  0.00240  0.03398  1.0000
  C   C79       1.0  0.00050  0.49760  0.53398  1.0000
  C   C80       1.0  0.99950  0.99760  0.96602  1.0000
  O   O1        1.0  0.47450  0.26450  0.15306  1.0000
  O   O2        1.0  0.52550  0.76450  0.34694  1.0000
  O   O3        1.0  0.52550  0.73550  0.84694  1.0000
  O   O4        1.0  0.47450  0.23550  0.65306  1.0000
  O   O5        1.0  0.33800  0.35000  0.20304  1.0000
  O   O6        1.0  0.66200  0.85000  0.29696  1.0000
  O   O7        1.0  0.66200  0.65000  0.79696  1.0000
  O   O8        1.0  0.33800  0.15000  0.70304  1.0000
  O   O9        1.0  0.44490  0.66354  0.22018  1.0000
  O   O10       1.0  0.55510  0.16354  0.27982  1.0000
  O   O11       1.0  0.55510  0.33646  0.77982  1.0000
  O   O12       1.0  0.44490  0.83646  0.72018  1.0000
  O   O13       1.0  0.62470  0.70151  0.17183  1.0000
  O   O14       1.0  0.37530  0.20151  0.32817  1.0000
  O   O15       1.0  0.37530  0.29849  0.82817  1.0000
  O   O16       1.0  0.62470  0.79849  0.67183  1.0000
  O   O17       1.0  0.12490  0.33653  0.29950  1.0000
  O   O18       1.0  0.87510  0.83653  0.20050  1.0000
  O   O19       1.0  0.87510  0.66347  0.70050  1.0000
  O   O20       1.0  0.12490  0.16347  0.79950  1.0000
  O   O21       1.0  0.30940  0.40950  0.34633  1.0000
  O   O22       1.0  0.69060  0.90950  0.15367  1.0000
  O   O23       1.0  0.69060  0.59050  0.65367  1.0000
  O   O24       1.0  0.30940  0.09050  0.84633  1.0000
  O   O25       1.0  0.68500  0.60310  0.31298  1.0000
  O   O26       1.0  0.31500  0.10310  0.18702  1.0000
  O   O27       1.0  0.31500  0.39690  0.68702  1.0000
  O   O28       1.0  0.68500  0.89690  0.81298  1.0000
  O   O29       1.0  0.86010  0.68770  0.29282  1.0000
  O   O30       1.0  0.13990  0.18770  0.20718  1.0000
  O   O31       1.0  0.13990  0.31230  0.70718  1.0000
  O   O32       1.0  0.86010  0.81230  0.79282  1.0000
  O   O33       1.0  0.61260  0.08540  0.14096  1.0000
  O   O34       1.0  0.38740  0.58540  0.35904  1.0000
  O   O35       1.0  0.38740  0.91460  0.85904  1.0000
  O   O36       1.0  0.61260  0.41460  0.64096  1.0000
  H   H25       1.0  0.65420  0.11060  0.11340  1.0000
  H   H26       1.0  0.34580  0.61060  0.38660  1.0000
  H   H27       1.0  0.34580  0.88940  0.88660  1.0000
  H   H28       1.0  0.65420  0.38940  0.61340  1.0000
  H   H29       1.0  0.63470  0.03110  0.14360  1.0000
  H   H30       1.0  0.36530  0.53110  0.35640  1.0000
  H   H31       1.0  0.36530  0.96890  0.85640  1.0000
  H   H32       1.0  0.63470  0.46890  0.64360  1.0000
  Li  Li1       1.0  0.49650  0.15030  0.18910  1.0000
  Li  Li2       1.0  0.50350  0.65030  0.31090  1.0000
  Li  Li3       1.0  0.50350  0.84970  0.81090  1.0000
  Li  Li4       1.0  0.49650  0.34970  0.68910  1.0000
  Zn  Zn1       1.0  0.26933  0.27103  0.26169  1.0000
  Zn  Zn2       1.0  0.73067  0.77103  0.23831  1.0000
  Zn  Zn3       1.0  0.73067  0.72897  0.73831  1.0000
  Zn  Zn4       1.0  0.26933  0.22897  0.76169  1.0000
