data_image0
_chemical_formula_structural       Tb4O32C16H8C8H8C16H8C8H8C16H8C8H8C16H8C8H8C16
_chemical_formula_sum              "Tb4 O32 C112 H64"
_cell_length_a       27.7629
_cell_length_b       11.8079
_cell_length_c       7.8178
_cell_angle_alpha    90
_cell_angle_beta     90
_cell_angle_gamma    90

_space_group_name_H-M_alt    "P 1"
_space_group_IT_number       1

loop_
  _space_group_symop_operation_xyz
  'x, y, z'

loop_
  _atom_site_type_symbol
  _atom_site_label
  _atom_site_symmetry_multiplicity
  _atom_site_fract_x
  _atom_site_fract_y
  _atom_site_fract_z
  _atom_site_occupancy
  Tb  Tb1       1.0  0.00000  0.33781  0.25000  1.0000
  Tb  Tb2       1.0  0.50000  0.16219  0.75000  1.0000
  Tb  Tb3       1.0  0.00000  0.66219  0.75000  1.0000
  Tb  Tb4       1.0  0.50000  0.83781  0.25000  1.0000
  O   O1        1.0  0.05307  0.25060  0.03450  1.0000
  O   O2        1.0  0.44693  0.24940  0.53450  1.0000
  O   O3        1.0  0.55307  0.24940  0.96550  1.0000
  O   O4        1.0  0.94693  0.25060  0.46550  1.0000
  O   O5        1.0  0.94693  0.74940  0.96550  1.0000
  O   O6        1.0  0.55307  0.75060  0.46550  1.0000
  O   O7        1.0  0.44693  0.75060  0.03450  1.0000
  O   O8        1.0  0.05307  0.74940  0.53450  1.0000
  O   O9        1.0  0.05591  0.17270  0.29010  1.0000
  O   O10       1.0  0.44409  0.32730  0.79010  1.0000
  O   O11       1.0  0.55591  0.32730  0.70990  1.0000
  O   O12       1.0  0.94409  0.17270  0.20990  1.0000
  O   O13       1.0  0.94409  0.82730  0.70990  1.0000
  O   O14       1.0  0.55591  0.67270  0.20990  1.0000
  O   O15       1.0  0.44409  0.67270  0.29010  1.0000
  O   O16       1.0  0.05591  0.82730  0.79010  1.0000
  O   O17       1.0  0.44931  0.97940  0.17180  1.0000
  O   O18       1.0  0.05069  0.52060  0.67180  1.0000
  O   O19       1.0  0.94931  0.52060  0.82820  1.0000
  O   O20       1.0  0.55069  0.97940  0.32820  1.0000
  O   O21       1.0  0.55069  0.02060  0.82820  1.0000
  O   O22       1.0  0.94931  0.47940  0.32820  1.0000
  O   O23       1.0  0.05069  0.47940  0.17180  1.0000
  O   O24       1.0  0.44931  0.02060  0.67180  1.0000
  O   O25       1.0  0.45967  0.13060  0.00730  1.0000
  O   O26       1.0  0.04033  0.36940  0.50730  1.0000
  O   O27       1.0  0.95967  0.36940  0.99270  1.0000
  O   O28       1.0  0.54033  0.13060  0.49270  1.0000
  O   O29       1.0  0.54033  0.86940  0.99270  1.0000
  O   O30       1.0  0.95967  0.63060  0.49270  1.0000
  O   O31       1.0  0.04033  0.63060  0.00730  1.0000
  O   O32       1.0  0.45967  0.86940  0.50730  1.0000
  C   C1        1.0  0.12672  0.16010  0.11780  1.0000
  C   C2        1.0  0.37328  0.33990  0.61780  1.0000
  C   C3        1.0  0.62672  0.33990  0.88220  1.0000
  C   C4        1.0  0.87328  0.16010  0.38220  1.0000
  C   C5        1.0  0.87328  0.83990  0.88220  1.0000
  C   C6        1.0  0.62672  0.66010  0.38220  1.0000
  C   C7        1.0  0.37328  0.66010  0.11780  1.0000
  C   C8        1.0  0.12672  0.83990  0.61780  1.0000
  C   C9        1.0  0.15301  0.21100  0.98810  1.0000
  C   C10       1.0  0.34699  0.28900  0.48810  1.0000
  C   C11       1.0  0.65301  0.28900  0.01190  1.0000
  C   C12       1.0  0.84699  0.21100  0.51190  1.0000
  C   C13       1.0  0.84699  0.78900  0.01190  1.0000
  C   C14       1.0  0.65301  0.71100  0.51190  1.0000
  C   C15       1.0  0.34699  0.71100  0.98810  1.0000
  C   C16       1.0  0.15301  0.78900  0.48810  1.0000
  H   H1        1.0  0.13760  0.25800  0.90980  1.0000
  H   H2        1.0  0.36240  0.24200  0.40980  1.0000
  H   H3        1.0  0.63760  0.24200  0.09020  1.0000
  H   H4        1.0  0.86240  0.25800  0.59020  1.0000
  H   H5        1.0  0.86240  0.74200  0.09020  1.0000
  H   H6        1.0  0.63760  0.75800  0.59020  1.0000
  H   H7        1.0  0.36240  0.75800  0.90980  1.0000
  H   H8        1.0  0.13760  0.74200  0.40980  1.0000
  C   C17       1.0  0.20214  0.19210  0.97480  1.0000
  C   C18       1.0  0.29786  0.30790  0.47480  1.0000
  C   C19       1.0  0.70214  0.30790  0.02520  1.0000
  C   C20       1.0  0.79786  0.19210  0.52520  1.0000
  C   C21       1.0  0.79786  0.80790  0.02520  1.0000
  C   C22       1.0  0.70214  0.69210  0.52520  1.0000
  C   C23       1.0  0.29786  0.69210  0.97480  1.0000
  C   C24       1.0  0.20214  0.80790  0.47480  1.0000
  H   H9        1.0  0.21940  0.22720  0.88770  1.0000
  H   H10       1.0  0.28060  0.27280  0.38770  1.0000
  H   H11       1.0  0.71940  0.27280  0.11230  1.0000
  H   H12       1.0  0.78060  0.22720  0.61230  1.0000
  H   H13       1.0  0.78060  0.77280  0.11230  1.0000
  H   H14       1.0  0.71940  0.72720  0.61230  1.0000
  H   H15       1.0  0.28060  0.72720  0.88770  1.0000
  H   H16       1.0  0.21940  0.77280  0.38770  1.0000
  C   C25       1.0  0.22629  0.12140  0.08970  1.0000
  C   C26       1.0  0.27371  0.37860  0.58970  1.0000
  C   C27       1.0  0.72629  0.37860  0.91030  1.0000
  C   C28       1.0  0.77371  0.12140  0.41030  1.0000
  C   C29       1.0  0.77371  0.87860  0.91030  1.0000
  C   C30       1.0  0.72629  0.62140  0.41030  1.0000
  C   C31       1.0  0.27371  0.62140  0.08970  1.0000
  C   C32       1.0  0.22629  0.87860  0.58970  1.0000
  C   C33       1.0  0.19868  0.06810  0.21570  1.0000
  C   C34       1.0  0.30132  0.43190  0.71570  1.0000
  C   C35       1.0  0.69868  0.43190  0.78430  1.0000
  C   C36       1.0  0.80132  0.06810  0.28430  1.0000
  C   C37       1.0  0.80132  0.93190  0.78430  1.0000
  C   C38       1.0  0.69868  0.56810  0.28430  1.0000
  C   C39       1.0  0.30132  0.56810  0.21570  1.0000
  C   C40       1.0  0.19868  0.93190  0.71570  1.0000
  H   H17       1.0  0.21360  0.01830  0.29120  1.0000
  H   H18       1.0  0.28640  0.48170  0.79120  1.0000
  H   H19       1.0  0.71360  0.48170  0.70880  1.0000
  H   H20       1.0  0.78640  0.01830  0.20880  1.0000
  H   H21       1.0  0.78640  0.98170  0.70880  1.0000
  H   H22       1.0  0.71360  0.51830  0.20880  1.0000
  H   H23       1.0  0.28640  0.51830  0.29120  1.0000
  H   H24       1.0  0.21360  0.98170  0.79120  1.0000
  C   C41       1.0  0.14983  0.08780  0.23070  1.0000
  C   C42       1.0  0.35017  0.41220  0.73070  1.0000
  C   C43       1.0  0.64983  0.41220  0.76930  1.0000
  C   C44       1.0  0.85017  0.08780  0.26930  1.0000
  C   C45       1.0  0.85017  0.91220  0.76930  1.0000
  C   C46       1.0  0.64983  0.58780  0.26930  1.0000
  C   C47       1.0  0.35017  0.58780  0.23070  1.0000
  C   C48       1.0  0.14983  0.91220  0.73070  1.0000
  H   H25       1.0  0.13240  0.05230  0.31700  1.0000
  H   H26       1.0  0.36760  0.44770  0.81700  1.0000
  H   H27       1.0  0.63240  0.44770  0.68300  1.0000
  H   H28       1.0  0.86760  0.05230  0.18300  1.0000
  H   H29       1.0  0.86760  0.94770  0.68300  1.0000
  H   H30       1.0  0.63240  0.55230  0.18300  1.0000
  H   H31       1.0  0.36760  0.55230  0.31700  1.0000
  H   H32       1.0  0.13240  0.94770  0.81700  1.0000
  C   C49       1.0  0.27939  0.10550  0.08220  1.0000
  C   C50       1.0  0.22061  0.39450  0.58220  1.0000
  C   C51       1.0  0.77939  0.39450  0.91780  1.0000
  C   C52       1.0  0.72061  0.10550  0.41780  1.0000
  C   C53       1.0  0.72061  0.89450  0.91780  1.0000
  C   C54       1.0  0.77939  0.60550  0.41780  1.0000
  C   C55       1.0  0.22061  0.60550  0.08220  1.0000
  C   C56       1.0  0.27939  0.89450  0.58220  1.0000
  C   C57       1.0  0.30963  0.19130  0.02430  1.0000
  C   C58       1.0  0.19037  0.30870  0.52430  1.0000
  C   C59       1.0  0.80963  0.30870  0.97570  1.0000
  C   C60       1.0  0.69037  0.19130  0.47570  1.0000
  C   C61       1.0  0.69037  0.80870  0.97570  1.0000
  C   C62       1.0  0.80963  0.69130  0.47570  1.0000
  C   C63       1.0  0.19037  0.69130  0.02430  1.0000
  C   C64       1.0  0.30963  0.80870  0.52430  1.0000
  H   H33       1.0  0.29650  0.25930  0.98650  1.0000
  H   H34       1.0  0.20350  0.24070  0.48650  1.0000
  H   H35       1.0  0.79650  0.24070  0.01350  1.0000
  H   H36       1.0  0.70350  0.25930  0.51350  1.0000
  H   H37       1.0  0.70350  0.74070  0.01350  1.0000
  H   H38       1.0  0.79650  0.75930  0.51350  1.0000
  H   H39       1.0  0.20350  0.75930  0.98650  1.0000
  H   H40       1.0  0.29650  0.74070  0.48650  1.0000
  C   C65       1.0  0.35905  0.17640  0.02240  1.0000
  C   C66       1.0  0.14095  0.32360  0.52240  1.0000
  C   C67       1.0  0.85905  0.32360  0.97760  1.0000
  C   C68       1.0  0.64095  0.17640  0.47760  1.0000
  C   C69       1.0  0.64095  0.82360  0.97760  1.0000
  C   C70       1.0  0.85905  0.67640  0.47760  1.0000
  C   C71       1.0  0.14095  0.67640  0.02240  1.0000
  C   C72       1.0  0.35905  0.82360  0.52240  1.0000
  H   H41       1.0  0.37870  0.23380  0.98010  1.0000
  H   H42       1.0  0.12130  0.26620  0.48010  1.0000
  H   H43       1.0  0.87870  0.26620  0.01990  1.0000
  H   H44       1.0  0.62130  0.23380  0.51990  1.0000
  H   H45       1.0  0.62130  0.76620  0.01990  1.0000
  H   H46       1.0  0.87870  0.73380  0.51990  1.0000
  H   H47       1.0  0.12130  0.73380  0.98010  1.0000
  H   H48       1.0  0.37870  0.76620  0.48010  1.0000
  C   C73       1.0  0.37981  0.07730  0.08240  1.0000
  C   C74       1.0  0.12019  0.42270  0.58240  1.0000
  C   C75       1.0  0.87981  0.42270  0.91760  1.0000
  C   C76       1.0  0.62019  0.07730  0.41760  1.0000
  C   C77       1.0  0.62019  0.92270  0.91760  1.0000
  C   C78       1.0  0.87981  0.57730  0.41760  1.0000
  C   C79       1.0  0.12019  0.57730  0.08240  1.0000
  C   C80       1.0  0.37981  0.92270  0.58240  1.0000
  C   C81       1.0  0.34973  0.99200  0.14110  1.0000
  C   C82       1.0  0.15027  0.50800  0.64110  1.0000
  C   C83       1.0  0.84973  0.50800  0.85890  1.0000
  C   C84       1.0  0.65027  0.99200  0.35890  1.0000
  C   C85       1.0  0.65027  0.00800  0.85890  1.0000
  C   C86       1.0  0.84973  0.49200  0.35890  1.0000
  C   C87       1.0  0.15027  0.49200  0.14110  1.0000
  C   C88       1.0  0.34973  0.00800  0.64110  1.0000
  H   H49       1.0  0.36310  0.92520  0.18260  1.0000
  H   H50       1.0  0.13690  0.57480  0.68260  1.0000
  H   H51       1.0  0.86310  0.57480  0.81740  1.0000
  H   H52       1.0  0.63690  0.92520  0.31740  1.0000
  H   H53       1.0  0.63690  0.07480  0.81740  1.0000
  H   H54       1.0  0.86310  0.42520  0.31740  1.0000
  H   H55       1.0  0.13690  0.42520  0.18260  1.0000
  H   H56       1.0  0.36310  0.07480  0.68260  1.0000
  C   C89       1.0  0.30024  0.00470  0.13900  1.0000
  C   C90       1.0  0.19976  0.49530  0.63900  1.0000
  C   C91       1.0  0.80024  0.49530  0.86100  1.0000
  C   C92       1.0  0.69976  0.00470  0.36100  1.0000
  C   C93       1.0  0.69976  0.99530  0.86100  1.0000
  C   C94       1.0  0.80024  0.50470  0.36100  1.0000
  C   C95       1.0  0.19976  0.50470  0.13900  1.0000
  C   C96       1.0  0.30024  0.99530  0.63900  1.0000
  H   H57       1.0  0.28070  0.94560  0.17560  1.0000
  H   H58       1.0  0.21930  0.55440  0.67560  1.0000
  H   H59       1.0  0.78070  0.55440  0.82440  1.0000
  H   H60       1.0  0.71930  0.94560  0.32440  1.0000
  H   H61       1.0  0.71930  0.05440  0.82440  1.0000
  H   H62       1.0  0.78070  0.44560  0.32440  1.0000
  H   H63       1.0  0.21930  0.44560  0.17560  1.0000
  H   H64       1.0  0.28070  0.05440  0.67560  1.0000
  C   C97       1.0  0.07521  0.19360  0.14810  1.0000
  C   C98       1.0  0.42479  0.30640  0.64810  1.0000
  C   C99       1.0  0.57521  0.30640  0.85190  1.0000
  C   C100      1.0  0.92479  0.19360  0.35190  1.0000
  C   C101      1.0  0.92479  0.80640  0.85190  1.0000
  C   C102      1.0  0.57521  0.69360  0.35190  1.0000
  C   C103      1.0  0.42479  0.69360  0.14810  1.0000
  C   C104      1.0  0.07521  0.80640  0.64810  1.0000
  C   C105      1.0  0.43370  0.06070  0.08560  1.0000
  C   C106      1.0  0.06630  0.43930  0.58560  1.0000
  C   C107      1.0  0.93370  0.43930  0.91440  1.0000
  C   C108      1.0  0.56630  0.06070  0.41440  1.0000
  C   C109      1.0  0.56630  0.93930  0.91440  1.0000
  C   C110      1.0  0.93370  0.56070  0.41440  1.0000
  C   C111      1.0  0.06630  0.56070  0.08560  1.0000
  C   C112      1.0  0.43370  0.93930  0.58560  1.0000
