data_image0
_chemical_formula_structural       Dy4O32C4H4C4H4C8H8
_chemical_formula_sum              "Dy4 O32 C16 H16"
_cell_length_a       6.6837
_cell_length_b       18.4684
_cell_length_c       8.4759
_cell_angle_alpha    90
_cell_angle_beta     90
_cell_angle_gamma    90

_space_group_name_H-M_alt    "P 1"
_space_group_IT_number       1

loop_
  _space_group_symop_operation_xyz
  'x, y, z'

loop_
  _atom_site_type_symbol
  _atom_site_label
  _atom_site_symmetry_multiplicity
  _atom_site_fract_x
  _atom_site_fract_y
  _atom_site_fract_z
  _atom_site_occupancy
  Dy  Dy1       1.0  0.50000  0.85736  0.25000  1.0000
  Dy  Dy2       1.0  0.50000  0.14264  0.75000  1.0000
  Dy  Dy3       1.0  0.00000  0.35736  0.25000  1.0000
  Dy  Dy4       1.0  0.00000  0.64264  0.75000  1.0000
  O   O1        1.0  0.51210  0.95002  0.06930  1.0000
  O   O2        1.0  0.48790  0.04998  0.56930  1.0000
  O   O3        1.0  0.48790  0.95002  0.43070  1.0000
  O   O4        1.0  0.51210  0.04998  0.93070  1.0000
  O   O5        1.0  0.01210  0.45002  0.06930  1.0000
  O   O6        1.0  0.98790  0.54998  0.56930  1.0000
  O   O7        1.0  0.98790  0.45002  0.43070  1.0000
  O   O8        1.0  0.01210  0.54998  0.93070  1.0000
  O   O9        1.0  0.83630  0.90585  0.27160  1.0000
  O   O10       1.0  0.16370  0.09415  0.77160  1.0000
  O   O11       1.0  0.16370  0.90585  0.22840  1.0000
  O   O12       1.0  0.83630  0.09415  0.72840  1.0000
  O   O13       1.0  0.33630  0.40585  0.27160  1.0000
  O   O14       1.0  0.66370  0.59415  0.77160  1.0000
  O   O15       1.0  0.66370  0.40585  0.22840  1.0000
  O   O16       1.0  0.33630  0.59415  0.72840  1.0000
  O   O17       1.0  0.82020  0.74263  0.84710  1.0000
  O   O18       1.0  0.17980  0.25737  0.34710  1.0000
  O   O19       1.0  0.17980  0.74263  0.65290  1.0000
  O   O20       1.0  0.82020  0.25737  0.15290  1.0000
  O   O21       1.0  0.32020  0.24263  0.84710  1.0000
  O   O22       1.0  0.67980  0.75737  0.34710  1.0000
  O   O23       1.0  0.67980  0.24263  0.65290  1.0000
  O   O24       1.0  0.32020  0.75737  0.15290  1.0000
  O   O25       1.0  0.67510  0.81686  0.01780  1.0000
  O   O26       1.0  0.32490  0.18314  0.51780  1.0000
  O   O27       1.0  0.32490  0.81686  0.48220  1.0000
  O   O28       1.0  0.67510  0.18314  0.98220  1.0000
  O   O29       1.0  0.17510  0.31686  0.01780  1.0000
  O   O30       1.0  0.82490  0.68314  0.51780  1.0000
  O   O31       1.0  0.82490  0.31686  0.48220  1.0000
  O   O32       1.0  0.17510  0.68314  0.98220  1.0000
  C   C1        1.0  0.42600  0.00000  0.00000  1.0000
  C   C2        1.0  0.57400  0.00000  0.50000  1.0000
  C   C3        1.0  0.92600  0.50000  0.00000  1.0000
  C   C4        1.0  0.07400  0.50000  0.50000  1.0000
  H   H1        1.0  0.28680  0.00000  0.00000  1.0000
  H   H2        1.0  0.71320  0.00000  0.50000  1.0000
  H   H3        1.0  0.78680  0.50000  0.00000  1.0000
  H   H4        1.0  0.21320  0.50000  0.50000  1.0000
  C   C5        1.0  0.00000  0.87530  0.25000  1.0000
  C   C6        1.0  0.00000  0.12470  0.75000  1.0000
  C   C7        1.0  0.50000  0.37530  0.25000  1.0000
  C   C8        1.0  0.50000  0.62470  0.75000  1.0000
  H   H5        1.0  0.00000  0.82490  0.25000  1.0000
  H   H6        1.0  0.00000  0.17510  0.75000  1.0000
  H   H7        1.0  0.50000  0.32490  0.25000  1.0000
  H   H8        1.0  0.50000  0.67510  0.75000  1.0000
  C   C9        1.0  0.73560  0.75720  0.97490  1.0000
  C   C10       1.0  0.26440  0.24280  0.47490  1.0000
  C   C11       1.0  0.26440  0.75720  0.52510  1.0000
  C   C12       1.0  0.73560  0.24280  0.02510  1.0000
  C   C13       1.0  0.23560  0.25720  0.97490  1.0000
  C   C14       1.0  0.76440  0.74280  0.47490  1.0000
  C   C15       1.0  0.76440  0.25720  0.52510  1.0000
  C   C16       1.0  0.23560  0.74280  0.02510  1.0000
  H   H9        1.0  0.71640  0.71890  0.04450  1.0000
  H   H10       1.0  0.28360  0.28110  0.54450  1.0000
  H   H11       1.0  0.28360  0.71890  0.45550  1.0000
  H   H12       1.0  0.71640  0.28110  0.95550  1.0000
  H   H13       1.0  0.21640  0.21890  0.04450  1.0000
  H   H14       1.0  0.78360  0.78110  0.54450  1.0000
  H   H15       1.0  0.78360  0.21890  0.45550  1.0000
  H   H16       1.0  0.21640  0.78110  0.95550  1.0000
