data_image0
_chemical_formula_structural       C4H4C4H4C8H8O32Dy4
_chemical_formula_sum              "C16 H16 O32 Dy4"
_cell_length_a       6.682
_cell_length_b       18.446
_cell_length_c       8.477
_cell_angle_alpha    90
_cell_angle_beta     90
_cell_angle_gamma    90

_space_group_name_H-M_alt    "P 1"
_space_group_IT_number       1

loop_
  _space_group_symop_operation_xyz
  'x, y, z'

loop_
  _atom_site_type_symbol
  _atom_site_label
  _atom_site_symmetry_multiplicity
  _atom_site_fract_x
  _atom_site_fract_y
  _atom_site_fract_z
  _atom_site_occupancy
  C   C1        1.0  0.50000  0.87520  0.25000  1.0000
  C   C2        1.0  0.50000  0.12480  0.75000  1.0000
  C   C3        1.0  0.00000  0.37520  0.25000  1.0000
  C   C4        1.0  0.00000  0.62480  0.75000  1.0000
  H   H1        1.0  0.50000  0.82480  0.25000  1.0000
  H   H2        1.0  0.50000  0.17520  0.75000  1.0000
  H   H3        1.0  0.00000  0.32480  0.25000  1.0000
  H   H4        1.0  0.00000  0.67520  0.75000  1.0000
  C   C5        1.0  0.07390  0.00000  0.50000  1.0000
  C   C6        1.0  0.92610  0.00000  0.00000  1.0000
  C   C7        1.0  0.57390  0.50000  0.50000  1.0000
  C   C8        1.0  0.42610  0.50000  0.00000  1.0000
  H   H5        1.0  0.21310  0.00000  0.50000  1.0000
  H   H6        1.0  0.78690  0.00000  0.00000  1.0000
  H   H7        1.0  0.71310  0.50000  0.50000  1.0000
  H   H8        1.0  0.28690  0.50000  0.00000  1.0000
  C   C9        1.0  0.73400  0.74400  0.02640  1.0000
  C   C10       1.0  0.26600  0.25600  0.52640  1.0000
  C   C11       1.0  0.73400  0.25600  0.97360  1.0000
  C   C12       1.0  0.26600  0.74400  0.47360  1.0000
  C   C13       1.0  0.23400  0.24400  0.02640  1.0000
  C   C14       1.0  0.76600  0.75600  0.52640  1.0000
  C   C15       1.0  0.23400  0.75600  0.97360  1.0000
  C   C16       1.0  0.76600  0.24400  0.47360  1.0000
  H   H9        1.0  0.71260  0.78270  0.95820  1.0000
  H   H10       1.0  0.28740  0.21730  0.45820  1.0000
  H   H11       1.0  0.71260  0.21730  0.04180  1.0000
  H   H12       1.0  0.28740  0.78270  0.54180  1.0000
  H   H13       1.0  0.21260  0.28270  0.95820  1.0000
  H   H14       1.0  0.78740  0.71730  0.45820  1.0000
  H   H15       1.0  0.21260  0.71730  0.04180  1.0000
  H   H16       1.0  0.78740  0.28270  0.54180  1.0000
  O   O1        1.0  0.33580  0.90537  0.26900  1.0000
  O   O2        1.0  0.66420  0.09463  0.76900  1.0000
  O   O3        1.0  0.33580  0.09463  0.73100  1.0000
  O   O4        1.0  0.66420  0.90537  0.23100  1.0000
  O   O5        1.0  0.83580  0.40537  0.26900  1.0000
  O   O6        1.0  0.16420  0.59463  0.76900  1.0000
  O   O7        1.0  0.83580  0.59463  0.73100  1.0000
  O   O8        1.0  0.16420  0.40537  0.23100  1.0000
  O   O9        1.0  0.98640  0.95020  0.43170  1.0000
  O   O10       1.0  0.01360  0.04980  0.93170  1.0000
  O   O11       1.0  0.98640  0.04980  0.56830  1.0000
  O   O12       1.0  0.01360  0.95020  0.06830  1.0000
  O   O13       1.0  0.48640  0.45020  0.43170  1.0000
  O   O14       1.0  0.51360  0.54980  0.93170  1.0000
  O   O15       1.0  0.48640  0.54980  0.56830  1.0000
  O   O16       1.0  0.51360  0.45020  0.06830  1.0000
  O   O17       1.0  0.81930  0.75750  0.15260  1.0000
  O   O18       1.0  0.18070  0.24250  0.65260  1.0000
  O   O19       1.0  0.81930  0.24250  0.84740  1.0000
  O   O20       1.0  0.18070  0.75750  0.34740  1.0000
  O   O21       1.0  0.31930  0.25750  0.15260  1.0000
  O   O22       1.0  0.68070  0.74250  0.65260  1.0000
  O   O23       1.0  0.31930  0.74250  0.84740  1.0000
  O   O24       1.0  0.68070  0.25750  0.34740  1.0000
  O   O25       1.0  0.67420  0.68314  0.98220  1.0000
  O   O26       1.0  0.32580  0.31686  0.48220  1.0000
  O   O27       1.0  0.67420  0.31686  0.01780  1.0000
  O   O28       1.0  0.32580  0.68314  0.51780  1.0000
  O   O29       1.0  0.17420  0.18314  0.98220  1.0000
  O   O30       1.0  0.82580  0.81686  0.48220  1.0000
  O   O31       1.0  0.17420  0.81686  0.01780  1.0000
  O   O32       1.0  0.82580  0.18314  0.51780  1.0000
  Dy  Dy1       1.0  0.00000  0.85736  0.25000  1.0000
  Dy  Dy2       1.0  0.00000  0.14264  0.75000  1.0000
  Dy  Dy3       1.0  0.50000  0.35736  0.25000  1.0000
  Dy  Dy4       1.0  0.50000  0.64264  0.75000  1.0000
