data_image0
_chemical_formula_structural       Bi4I16N4C4H4C4H4
_chemical_formula_sum              "Bi4 I16 N4 C8 H8"
_cell_length_a       9.2612
_cell_length_b       16.9634
_cell_length_c       19.5065
_cell_angle_alpha    90
_cell_angle_beta     102.384
_cell_angle_gamma    90

_space_group_name_H-M_alt    "P 1"
_space_group_IT_number       1

loop_
  _space_group_symop_operation_xyz
  'x, y, z'

loop_
  _atom_site_type_symbol
  _atom_site_label
  _atom_site_symmetry_multiplicity
  _atom_site_fract_x
  _atom_site_fract_y
  _atom_site_fract_z
  _atom_site_occupancy
  Bi  Bi1       1.0  0.57520  0.06875  0.40173  1.0000
  Bi  Bi2       1.0  0.92480  0.56875  0.09827  1.0000
  Bi  Bi3       1.0  0.42480  0.93125  0.59827  1.0000
  Bi  Bi4       1.0  0.07520  0.43125  0.90173  1.0000
  I   I1        1.0  0.66224  0.01041  0.27248  1.0000
  I   I2        1.0  0.83776  0.51041  0.22752  1.0000
  I   I3        1.0  0.33776  0.98959  0.72752  1.0000
  I   I4        1.0  0.16224  0.48959  0.77248  1.0000
  I   I5        1.0  0.70763  0.22565  0.39709  1.0000
  I   I6        1.0  0.79237  0.72565  0.10291  1.0000
  I   I7        1.0  0.29237  0.77435  0.60291  1.0000
  I   I8        1.0  0.20763  0.27435  0.89709  1.0000
  I   I9        1.0  0.28316  0.12126  0.33110  1.0000
  I   I10       1.0  0.21684  0.62126  0.16890  1.0000
  I   I11       1.0  0.71684  0.87874  0.66890  1.0000
  I   I12       1.0  0.78316  0.37874  0.83110  1.0000
  I   I13       1.0  0.52669  0.10642  0.55570  1.0000
  I   I14       1.0  0.97331  0.60642  0.94430  1.0000
  I   I15       1.0  0.47331  0.89358  0.44430  1.0000
  I   I16       1.0  0.02669  0.39358  0.05570  1.0000
  N   N1        1.0  0.85920  0.02490  0.46677  1.0000
  N   N2        1.0  0.64080  0.52490  0.03323  1.0000
  N   N3        1.0  0.14080  0.97510  0.53323  1.0000
  N   N4        1.0  0.35920  0.47510  0.96677  1.0000
  C   C1        1.0  0.88110  0.97840  0.52315  1.0000
  C   C2        1.0  0.61890  0.47840  0.97685  1.0000
  C   C3        1.0  0.11890  0.02160  0.47685  1.0000
  C   C4        1.0  0.38110  0.52160  0.02315  1.0000
  H   H1        1.0  0.79840  0.96190  0.54100  1.0000
  H   H2        1.0  0.70160  0.46190  0.95900  1.0000
  H   H3        1.0  0.20160  0.03810  0.45900  1.0000
  H   H4        1.0  0.29840  0.53810  0.04100  1.0000
  C   C5        1.0  0.97900  0.04650  0.44359  1.0000
  C   C6        1.0  0.52100  0.54650  0.05641  1.0000
  C   C7        1.0  0.02100  0.95350  0.55641  1.0000
  C   C8        1.0  0.47900  0.45350  0.94359  1.0000
  H   H5        1.0  0.96810  0.07960  0.40350  1.0000
  H   H6        1.0  0.53190  0.57960  0.09650  1.0000
  H   H7        1.0  0.03190  0.92040  0.59650  1.0000
  H   H8        1.0  0.46810  0.42040  0.90350  1.0000
