data_image0
_chemical_formula_structural       Zn4C28H16C20N12O36H32
_chemical_formula_sum              "Zn4 C48 H48 N12 O36"
_cell_length_a       16.228
_cell_length_b       10.705
_cell_length_c       14.453
_cell_angle_alpha    90
_cell_angle_beta     121.374
_cell_angle_gamma    90

_space_group_name_H-M_alt    "P 1"
_space_group_IT_number       1

loop_
  _space_group_symop_operation_xyz
  'x, y, z'

loop_
  _atom_site_type_symbol
  _atom_site_label
  _atom_site_symmetry_multiplicity
  _atom_site_fract_x
  _atom_site_fract_y
  _atom_site_fract_z
  _atom_site_occupancy
  Zn  Zn1       1.0  0.60597  0.50000  0.54753  1.0000
  Zn  Zn2       1.0  0.39403  0.50000  0.45247  1.0000
  Zn  Zn3       1.0  0.10597  0.00000  0.54753  1.0000
  Zn  Zn4       1.0  0.89403  0.00000  0.45247  1.0000
  C   C1        1.0  0.63010  0.88590  0.96750  1.0000
  C   C2        1.0  0.36990  0.88590  0.03250  1.0000
  C   C3        1.0  0.13010  0.38590  0.96750  1.0000
  C   C4        1.0  0.86990  0.38590  0.03250  1.0000
  C   C5        1.0  0.36990  0.11410  0.03250  1.0000
  C   C6        1.0  0.63010  0.11410  0.96750  1.0000
  C   C7        1.0  0.86990  0.61410  0.03250  1.0000
  C   C8        1.0  0.13010  0.61410  0.96750  1.0000
  C   C9        1.0  0.64040  0.00000  0.82840  1.0000
  C   C10       1.0  0.35960  0.00000  0.17160  1.0000
  C   C11       1.0  0.14040  0.50000  0.82840  1.0000
  C   C12       1.0  0.85960  0.50000  0.17160  1.0000
  C   C13       1.0  0.63250  0.77300  0.81980  1.0000
  C   C14       1.0  0.36750  0.77300  0.18020  1.0000
  C   C15       1.0  0.13250  0.27300  0.81980  1.0000
  C   C16       1.0  0.86750  0.27300  0.18020  1.0000
  C   C17       1.0  0.36750  0.22700  0.18020  1.0000
  C   C18       1.0  0.63250  0.22700  0.81980  1.0000
  C   C19       1.0  0.86750  0.72700  0.18020  1.0000
  C   C20       1.0  0.13250  0.72700  0.81980  1.0000
  C   C21       1.0  0.52790  0.74920  0.72990  1.0000
  C   C22       1.0  0.47210  0.74920  0.27010  1.0000
  C   C23       1.0  0.02790  0.24920  0.72990  1.0000
  C   C24       1.0  0.97210  0.24920  0.27010  1.0000
  C   C25       1.0  0.47210  0.25080  0.27010  1.0000
  C   C26       1.0  0.52790  0.25080  0.72990  1.0000
  C   C27       1.0  0.97210  0.75080  0.27010  1.0000
  C   C28       1.0  0.02790  0.75080  0.72990  1.0000
  H   H1        1.0  0.49340  0.71370  0.76190  1.0000
  H   H2        1.0  0.50660  0.71370  0.23810  1.0000
  H   H3        1.0  0.99340  0.21370  0.76190  1.0000
  H   H4        1.0  0.00660  0.21370  0.23810  1.0000
  H   H5        1.0  0.50660  0.28630  0.23810  1.0000
  H   H6        1.0  0.49340  0.28630  0.76190  1.0000
  H   H7        1.0  0.00660  0.78630  0.23810  1.0000
  H   H8        1.0  0.99340  0.78630  0.76190  1.0000
  H   H9        1.0  0.49780  0.82860  0.69760  1.0000
  H   H10       1.0  0.50220  0.82860  0.30240  1.0000
  H   H11       1.0  0.99780  0.32860  0.69760  1.0000
  H   H12       1.0  0.00220  0.32860  0.30240  1.0000
  H   H13       1.0  0.50220  0.17140  0.30240  1.0000
  H   H14       1.0  0.49780  0.17140  0.69760  1.0000
  H   H15       1.0  0.00220  0.67140  0.30240  1.0000
  H   H16       1.0  0.99780  0.67140  0.69760  1.0000
  C   C29       1.0  0.51700  0.66290  0.64150  1.0000
  C   C30       1.0  0.48300  0.66290  0.35850  1.0000
  C   C31       1.0  0.01700  0.16290  0.64150  1.0000
  C   C32       1.0  0.98300  0.16290  0.35850  1.0000
  C   C33       1.0  0.48300  0.33710  0.35850  1.0000
  C   C34       1.0  0.51700  0.33710  0.64150  1.0000
  C   C35       1.0  0.98300  0.83710  0.35850  1.0000
  C   C36       1.0  0.01700  0.83710  0.64150  1.0000
  C   C37       1.0  0.60920  0.00000  0.10190  1.0000
  C   C38       1.0  0.39080  0.00000  0.89810  1.0000
  C   C39       1.0  0.10920  0.50000  0.10190  1.0000
  C   C40       1.0  0.89080  0.50000  0.89810  1.0000
  C   C41       1.0  0.70180  0.00000  0.21050  1.0000
  C   C42       1.0  0.29820  0.00000  0.78950  1.0000
  C   C43       1.0  0.20180  0.50000  0.21050  1.0000
  C   C44       1.0  0.79820  0.50000  0.78950  1.0000
  C   C45       1.0  0.68100  0.00000  0.30160  1.0000
  C   C46       1.0  0.31900  0.00000  0.69840  1.0000
  C   C47       1.0  0.18100  0.50000  0.30160  1.0000
  C   C48       1.0  0.81900  0.50000  0.69840  1.0000
  N   N1        1.0  0.63950  0.89010  0.87780  1.0000
  N   N2        1.0  0.36050  0.89010  0.12220  1.0000
  N   N3        1.0  0.13950  0.39010  0.87780  1.0000
  N   N4        1.0  0.86050  0.39010  0.12220  1.0000
  N   N5        1.0  0.36050  0.10990  0.12220  1.0000
  N   N6        1.0  0.63950  0.10990  0.87780  1.0000
  N   N7        1.0  0.86050  0.60990  0.12220  1.0000
  N   N8        1.0  0.13950  0.60990  0.87780  1.0000
  N   N9        1.0  0.62740  0.00000  0.01050  1.0000
  N   N10       1.0  0.37260  0.00000  0.98950  1.0000
  N   N11       1.0  0.12740  0.50000  0.01050  1.0000
  N   N12       1.0  0.87260  0.50000  0.98950  1.0000
  O   O1        1.0  0.62430  0.78750  0.00630  1.0000
  O   O2        1.0  0.37570  0.78750  0.99370  1.0000
  O   O3        1.0  0.12430  0.28750  0.00630  1.0000
  O   O4        1.0  0.87570  0.28750  0.99370  1.0000
  O   O5        1.0  0.37570  0.21250  0.99370  1.0000
  O   O6        1.0  0.62430  0.21250  0.00630  1.0000
  O   O7        1.0  0.87570  0.71250  0.99370  1.0000
  O   O8        1.0  0.12430  0.71250  0.00630  1.0000
  O   O9        1.0  0.64460  0.00000  0.74670  1.0000
  O   O10       1.0  0.35540  0.00000  0.25330  1.0000
  O   O11       1.0  0.14460  0.50000  0.74670  1.0000
  O   O12       1.0  0.85540  0.50000  0.25330  1.0000
  O   O13       1.0  0.59140  0.63180  0.64090  1.0000
  O   O14       1.0  0.40860  0.63180  0.35910  1.0000
  O   O15       1.0  0.09140  0.13180  0.64090  1.0000
  O   O16       1.0  0.90860  0.13180  0.35910  1.0000
  O   O17       1.0  0.40860  0.36820  0.35910  1.0000
  O   O18       1.0  0.59140  0.36820  0.64090  1.0000
  O   O19       1.0  0.90860  0.86820  0.35910  1.0000
  O   O20       1.0  0.09140  0.86820  0.64090  1.0000
  O   O21       1.0  0.43220  0.62950  0.57260  1.0000
  O   O22       1.0  0.56780  0.62950  0.42740  1.0000
  O   O23       1.0  0.93220  0.12950  0.57260  1.0000
  O   O24       1.0  0.06780  0.12950  0.42740  1.0000
  O   O25       1.0  0.56780  0.37050  0.42740  1.0000
  O   O26       1.0  0.43220  0.37050  0.57260  1.0000
  O   O27       1.0  0.06780  0.87050  0.42740  1.0000
  O   O28       1.0  0.93220  0.87050  0.57260  1.0000
  O   O29       1.0  0.75530  0.00000  0.39980  1.0000
  O   O30       1.0  0.24470  0.00000  0.60020  1.0000
  O   O31       1.0  0.25530  0.50000  0.39980  1.0000
  O   O32       1.0  0.74470  0.50000  0.60020  1.0000
  O   O33       1.0  0.59810  0.00000  0.28250  1.0000
  O   O34       1.0  0.40190  0.00000  0.71750  1.0000
  O   O35       1.0  0.09810  0.50000  0.28250  1.0000
  O   O36       1.0  0.90190  0.50000  0.71750  1.0000
  H   H17       1.0  0.57400  0.92700  0.09700  1.0000
  H   H18       1.0  0.42600  0.92700  0.90300  1.0000
  H   H19       1.0  0.07400  0.42700  0.09700  1.0000
  H   H20       1.0  0.92600  0.42700  0.90300  1.0000
  H   H21       1.0  0.42600  0.07300  0.90300  1.0000
  H   H22       1.0  0.57400  0.07300  0.09700  1.0000
  H   H23       1.0  0.92600  0.57300  0.90300  1.0000
  H   H24       1.0  0.07400  0.57300  0.09700  1.0000
  H   H25       1.0  0.65300  0.71900  0.87000  1.0000
  H   H26       1.0  0.34700  0.71900  0.13000  1.0000
  H   H27       1.0  0.15300  0.21900  0.87000  1.0000
  H   H28       1.0  0.84700  0.21900  0.13000  1.0000
  H   H29       1.0  0.34700  0.28100  0.13000  1.0000
  H   H30       1.0  0.65300  0.28100  0.87000  1.0000
  H   H31       1.0  0.84700  0.78100  0.13000  1.0000
  H   H32       1.0  0.15300  0.78100  0.87000  1.0000
  H   H33       1.0  0.74200  0.92000  0.21900  1.0000
  H   H34       1.0  0.25800  0.92000  0.78100  1.0000
  H   H35       1.0  0.24200  0.42000  0.21900  1.0000
  H   H36       1.0  0.75800  0.42000  0.78100  1.0000
  H   H37       1.0  0.25800  0.08000  0.78100  1.0000
  H   H38       1.0  0.74200  0.08000  0.21900  1.0000
  H   H39       1.0  0.75800  0.58000  0.78100  1.0000
  H   H40       1.0  0.24200  0.58000  0.21900  1.0000
  H   H41       1.0  0.68400  0.77500  0.79700  1.0000
  H   H42       1.0  0.31600  0.77500  0.20300  1.0000
  H   H43       1.0  0.18400  0.27500  0.79700  1.0000
  H   H44       1.0  0.81600  0.27500  0.20300  1.0000
  H   H45       1.0  0.31600  0.22500  0.20300  1.0000
  H   H46       1.0  0.68400  0.22500  0.79700  1.0000
  H   H47       1.0  0.81600  0.72500  0.20300  1.0000
  H   H48       1.0  0.18400  0.72500  0.79700  1.0000
