data_image0
_chemical_formula_structural       Pr4C4H2C2H2C2H2C10H2C2H2C2H2C10H2C2H2C2H2C10H2C2H2C2H2C6N8O20H2O14H4O2H4O2H4O2H4
_chemical_formula_sum              "Pr4 C56 H42 N8 O40"
_cell_length_a       13.2567
_cell_length_b       13.6304
_cell_length_c       13.6409
_cell_angle_alpha    89.695
_cell_angle_beta     63.049
_cell_angle_gamma    86.105

_space_group_name_H-M_alt    "P 1"
_space_group_IT_number       1

loop_
  _space_group_symop_operation_xyz
  'x, y, z'

loop_
  _atom_site_type_symbol
  _atom_site_label
  _atom_site_symmetry_multiplicity
  _atom_site_fract_x
  _atom_site_fract_y
  _atom_site_fract_z
  _atom_site_occupancy
  Pr  Pr1       1.0  0.51084  0.76484  0.23950  1.0000
  Pr  Pr2       1.0  0.48916  0.23516  0.76050  1.0000
  Pr  Pr3       1.0  0.02594  0.69958  0.26309  1.0000
  Pr  Pr4       1.0  0.97406  0.30042  0.73691  1.0000
  C   C1        1.0  0.33310  0.89710  0.15280  1.0000
  C   C2        1.0  0.66690  0.10290  0.84720  1.0000
  C   C3        1.0  0.27800  0.97500  0.12570  1.0000
  C   C4        1.0  0.72200  0.02500  0.87430  1.0000
  H   H1        1.0  0.21300  0.96560  0.11820  1.0000
  H   H2        1.0  0.78700  0.03440  0.88180  1.0000
  C   C5        1.0  0.32110  0.06670  0.11010  1.0000
  C   C6        1.0  0.67890  0.93330  0.88990  1.0000
  H   H3        1.0  0.28530  0.12000  0.09250  1.0000
  H   H4        1.0  0.71470  0.88000  0.90750  1.0000
  C   C7        1.0  0.41910  0.07730  0.12130  1.0000
  C   C8        1.0  0.58090  0.92270  0.87870  1.0000
  H   H5        1.0  0.45040  0.13790  0.11090  1.0000
  H   H6        1.0  0.54960  0.86210  0.88910  1.0000
  C   C9        1.0  0.46910  0.99580  0.14830  1.0000
  C   C10       1.0  0.53090  0.00420  0.85170  1.0000
  C   C11       1.0  0.29040  0.79560  0.17470  1.0000
  C   C12       1.0  0.70960  0.20440  0.82530  1.0000
  C   C13       1.0  0.57740  1.00000  0.16020  1.0000
  C   C14       1.0  0.42260  0.00000  0.83980  1.0000
  C   C15       1.0  0.47640  0.84810  0.49330  1.0000
  C   C16       1.0  0.52360  0.15190  0.50670  1.0000
  C   C17       1.0  0.49450  0.86450  0.58390  1.0000
  C   C18       1.0  0.50550  0.13550  0.41610  1.0000
  H   H7        1.0  0.43910  0.89820  0.64610  1.0000
  H   H8        1.0  0.56090  0.10180  0.35390  1.0000
  C   C19       1.0  0.59710  0.82970  0.57990  1.0000
  C   C20       1.0  0.40290  0.17030  0.42010  1.0000
  H   H9        1.0  0.61050  0.83810  0.64060  1.0000
  H   H10       1.0  0.38950  0.16190  0.35940  1.0000
  C   C21       1.0  0.67950  0.78220  0.48490  1.0000
  C   C22       1.0  0.32050  0.21780  0.51510  1.0000
  H   H11       1.0  0.74930  0.75910  0.48010  1.0000
  H   H12       1.0  0.25070  0.24090  0.51990  1.0000
  C   C23       1.0  0.65520  0.77010  0.39700  1.0000
  C   C24       1.0  0.34480  0.22990  0.60300  1.0000
  C   C25       1.0  0.36630  0.87830  0.49070  1.0000
  C   C26       1.0  0.63370  0.12170  0.50930  1.0000
  C   C27       1.0  0.73990  0.72390  0.28690  1.0000
  C   C28       1.0  0.26010  0.27610  0.71310  1.0000
  C   C29       1.0  0.60380  0.55840  0.05740  1.0000
  C   C30       1.0  0.39620  0.44160  0.94260  1.0000
  C   C31       1.0  0.62230  0.46290  0.01660  1.0000
  C   C32       1.0  0.37770  0.53710  0.98340  1.0000
  H   H13       1.0  0.66450  0.44850  0.94170  1.0000
  H   H14       1.0  0.33550  0.55150  0.05830  1.0000
  C   C33       1.0  0.57550  0.38830  0.09140  1.0000
  C   C34       1.0  0.42450  0.61170  0.90860  1.0000
  H   H15       1.0  0.58560  0.32310  0.06690  1.0000
  H   H16       1.0  0.41440  0.67690  0.93310  1.0000
  C   C35       1.0  0.51370  0.41320  0.20250  1.0000
  C   C36       1.0  0.48630  0.58680  0.79750  1.0000
  H   H17       1.0  0.48110  0.36500  0.25360  1.0000
  H   H18       1.0  0.51890  0.63500  0.74640  1.0000
  C   C37       1.0  0.50150  0.51050  0.23610  1.0000
  C   C38       1.0  0.49850  0.48950  0.76390  1.0000
  C   C39       1.0  0.64380  0.64610  0.98660  1.0000
  C   C40       1.0  0.35620  0.35390  0.01340  1.0000
  C   C41       1.0  0.44030  0.54430  0.35670  1.0000
  C   C42       1.0  0.55970  0.45570  0.64330  1.0000
  C   C43       1.0  0.00910  0.44880  0.23190  1.0000
  C   C44       1.0  0.99090  0.55120  0.76810  1.0000
  C   C45       1.0  0.99080  0.35090  0.25420  1.0000
  C   C46       1.0  0.00920  0.64910  0.74580  1.0000
  H   H19       1.0  0.02000  0.30320  0.19780  1.0000
  H   H20       1.0  0.98000  0.69680  0.80220  1.0000
  C   C47       1.0  0.92770  0.32500  0.36320  1.0000
  C   C48       1.0  0.07230  0.67500  0.63680  1.0000
  H   H21       1.0  0.91290  0.25970  0.38060  1.0000
  H   H22       1.0  0.08710  0.74030  0.61940  1.0000
  C   C49       1.0  0.88720  0.39800  0.44560  1.0000
  C   C50       1.0  0.11280  0.60200  0.55440  1.0000
  H   H23       1.0  0.84370  0.38270  0.51880  1.0000
  H   H24       1.0  0.15630  0.61730  0.48120  1.0000
  C   C51       1.0  0.91290  0.49360  0.41640  1.0000
  C   C52       1.0  0.08710  0.50640  0.58360  1.0000
  C   C53       1.0  0.07130  0.48630  0.11610  1.0000
  C   C54       1.0  0.92870  0.51370  0.88390  1.0000
  C   C55       1.0  0.87940  0.57850  0.49850  1.0000
  C   C56       1.0  0.12060  0.42150  0.50150  1.0000
  N   N1        1.0  0.42670  0.90770  0.16500  1.0000
  N   N2        1.0  0.57330  0.09230  0.83500  1.0000
  N   N3        1.0  0.55560  0.80210  0.40140  1.0000
  N   N4        1.0  0.44440  0.19790  0.59860  1.0000
  N   N5        1.0  0.54480  0.58250  0.16540  1.0000
  N   N6        1.0  0.45520  0.41750  0.83460  1.0000
  N   N7        1.0  0.97200  0.51920  0.31110  1.0000
  N   N8        1.0  0.02800  0.48080  0.68890  1.0000
  O   O1        1.0  0.34480  0.73294  0.20480  1.0000
  O   O2        1.0  0.65520  0.26706  0.79520  1.0000
  O   O3        1.0  0.20440  0.78075  0.16310  1.0000
  O   O4        1.0  0.79560  0.21925  0.83690  1.0000
  O   O5        1.0  0.61230  0.91942  0.18690  1.0000
  O   O6        1.0  0.38770  0.08058  0.81310  1.0000
  O   O7        1.0  0.62290  0.07892  0.14380  1.0000
  O   O8        1.0  0.37710  0.92108  0.85620  1.0000
  O   O9        1.0  0.36330  0.86409  0.40018  1.0000
  O   O10       1.0  0.63670  0.13591  0.59982  1.0000
  O   O11       1.0  0.28520  0.91380  0.57630  1.0000
  O   O12       1.0  0.71480  0.08620  0.42370  1.0000
  O   O13       1.0  0.70387  0.71678  0.21525  1.0000
  O   O14       1.0  0.29613  0.28322  0.78475  1.0000
  O   O15       1.0  0.83779  0.69860  0.27097  1.0000
  O   O16       1.0  0.16221  0.30140  0.72903  1.0000
  O   O17       1.0  0.61950  0.72966  0.02831  1.0000
  O   O18       1.0  0.38050  0.27034  0.97169  1.0000
  O   O19       1.0  0.70070  0.62360  0.88300  1.0000
  O   O20       1.0  0.29930  0.37640  0.11700  1.0000
  H   H25       1.0  0.72040  0.67390  0.84820  1.0000
  H   H26       1.0  0.27960  0.32610  0.15180  1.0000
  O   O21       1.0  0.42530  0.63649  0.37535  1.0000
  O   O22       1.0  0.57470  0.36351  0.62465  1.0000
  O   O23       1.0  0.41250  0.47800  0.42450  1.0000
  O   O24       1.0  0.58750  0.52200  0.57550  1.0000
  O   O25       1.0  0.08450  0.57818  0.10792  1.0000
  O   O26       1.0  0.91550  0.42182  0.89208  1.0000
  O   O27       1.0  0.10250  0.42820  0.03660  1.0000
  O   O28       1.0  0.89750  0.57180  0.96340  1.0000
  O   O29       1.0  0.91150  0.66144  0.45910  1.0000
  O   O30       1.0  0.08850  0.33856  0.54090  1.0000
  O   O31       1.0  0.82360  0.56258  0.59892  1.0000
  O   O32       1.0  0.17640  0.43742  0.40108  1.0000
  O   O33       1.0  0.18640  0.59584  0.27240  1.0000
  O   O34       1.0  0.81360  0.40416  0.72760  1.0000
  H   H27       1.0  0.23960  0.62610  0.26550  1.0000
  H   H28       1.0  0.76040  0.37390  0.73450  1.0000
  H   H29       1.0  0.18380  0.54780  0.30840  1.0000
  H   H30       1.0  0.81620  0.45220  0.69160  1.0000
  O   O35       1.0  0.03280  0.78150  0.09680  1.0000
  O   O36       1.0  0.96720  0.21850  0.90320  1.0000
  H   H31       1.0  0.98080  0.77650  0.07840  1.0000
  H   H32       1.0  0.01920  0.22350  0.92160  1.0000
  H   H33       1.0  0.03770  0.84410  0.09540  1.0000
  H   H34       1.0  0.96230  0.15590  0.90460  1.0000
  O   O37       1.0  0.92530  0.86690  0.32040  1.0000
  O   O38       1.0  0.07470  0.13310  0.67960  1.0000
  H   H35       1.0  0.89370  0.88970  0.28170  1.0000
  H   H36       1.0  0.10630  0.11030  0.71830  1.0000
  H   H37       1.0  0.95120  0.91880  0.33210  1.0000
  H   H38       1.0  0.04880  0.08120  0.66790  1.0000
  O   O39       1.0  0.07240  0.78720  0.40340  1.0000
  O   O40       1.0  0.92760  0.21280  0.59660  1.0000
  H   H39       1.0  0.10850  0.83680  0.40160  1.0000
  H   H40       1.0  0.89150  0.16320  0.59840  1.0000
  H   H41       1.0  0.01290  0.79730  0.46380  1.0000
  H   H42       1.0  0.98710  0.20270  0.53620  1.0000
