data_image0
_chemical_formula_structural       Tb4O36C16H8
_chemical_formula_sum              "Tb4 O36 C16 H8"
_cell_length_a       8.7649
_cell_length_b       8.7649
_cell_length_c       12.7907
_cell_angle_alpha    90
_cell_angle_beta     90
_cell_angle_gamma    90

_space_group_name_H-M_alt    "P 1"
_space_group_IT_number       1

loop_
  _space_group_symop_operation_xyz
  'x, y, z'

loop_
  _atom_site_type_symbol
  _atom_site_label
  _atom_site_symmetry_multiplicity
  _atom_site_fract_x
  _atom_site_fract_y
  _atom_site_fract_z
  _atom_site_occupancy
  Tb  Tb1       1.0  0.75000  0.25000  0.28933  1.0000
  Tb  Tb2       1.0  0.75000  0.25000  0.78933  1.0000
  Tb  Tb3       1.0  0.25000  0.75000  0.71067  1.0000
  Tb  Tb4       1.0  0.25000  0.75000  0.21067  1.0000
  O   O1        1.0  0.75000  0.25000  0.48220  1.0000
  O   O2        1.0  0.75000  0.25000  0.98220  1.0000
  O   O3        1.0  0.25000  0.75000  0.51780  1.0000
  O   O4        1.0  0.25000  0.75000  0.01780  1.0000
  O   O5        1.0  0.62490  0.02770  0.35570  1.0000
  O   O6        1.0  0.97230  0.12490  0.85570  1.0000
  O   O7        1.0  0.87510  0.47230  0.35570  1.0000
  O   O8        1.0  0.52770  0.37510  0.85570  1.0000
  O   O9        1.0  0.37510  0.97230  0.64430  1.0000
  O   O10       1.0  0.02770  0.87510  0.14430  1.0000
  O   O11       1.0  0.12490  0.52770  0.64430  1.0000
  O   O12       1.0  0.47230  0.62490  0.14430  1.0000
  O   O13       1.0  0.84110  0.04860  0.17800  1.0000
  O   O14       1.0  0.95140  0.34110  0.67800  1.0000
  O   O15       1.0  0.65890  0.45140  0.17800  1.0000
  O   O16       1.0  0.54860  0.15890  0.67800  1.0000
  O   O17       1.0  0.15890  0.95140  0.82200  1.0000
  O   O18       1.0  0.04860  0.65890  0.32200  1.0000
  O   O19       1.0  0.34110  0.54860  0.82200  1.0000
  O   O20       1.0  0.45140  0.84110  0.32200  1.0000
  O   O21       1.0  0.98090  0.13190  0.35090  1.0000
  O   O22       1.0  0.86810  0.48090  0.85090  1.0000
  O   O23       1.0  0.51910  0.36810  0.35090  1.0000
  O   O24       1.0  0.63190  0.01910  0.85090  1.0000
  O   O25       1.0  0.01910  0.86810  0.64910  1.0000
  O   O26       1.0  0.13190  0.51910  0.14910  1.0000
  O   O27       1.0  0.48090  0.63190  0.64910  1.0000
  O   O28       1.0  0.36810  0.98090  0.14910  1.0000
  O   O29       1.0  0.54250  0.15880  0.17020  1.0000
  O   O30       1.0  0.84120  0.04250  0.67020  1.0000
  O   O31       1.0  0.95750  0.34120  0.17020  1.0000
  O   O32       1.0  0.65880  0.45750  0.67020  1.0000
  O   O33       1.0  0.45750  0.84120  0.82980  1.0000
  O   O34       1.0  0.15880  0.95750  0.32980  1.0000
  O   O35       1.0  0.04250  0.65880  0.82980  1.0000
  O   O36       1.0  0.34120  0.54250  0.32980  1.0000
  C   C1        1.0  0.52210  0.96680  0.29870  1.0000
  C   C2        1.0  0.03320  0.02210  0.79870  1.0000
  C   C3        1.0  0.97790  0.53320  0.29870  1.0000
  C   C4        1.0  0.46680  0.47790  0.79870  1.0000
  C   C5        1.0  0.47790  0.03320  0.70130  1.0000
  C   C6        1.0  0.96680  0.97790  0.20130  1.0000
  C   C7        1.0  0.02210  0.46680  0.70130  1.0000
  C   C8        1.0  0.53320  0.52210  0.20130  1.0000
  C   C9        1.0  0.04700  0.02300  0.30540  1.0000
  C   C10       1.0  0.97700  0.54700  0.80540  1.0000
  C   C11       1.0  0.45300  0.47700  0.30540  1.0000
  C   C12       1.0  0.52300  0.95300  0.80540  1.0000
  C   C13       1.0  0.95300  0.97700  0.69460  1.0000
  C   C14       1.0  0.02300  0.45300  0.19460  1.0000
  C   C15       1.0  0.54700  0.52300  0.69460  1.0000
  C   C16       1.0  0.47700  0.04700  0.19460  1.0000
  H   H1        1.0  0.77000  0.14000  0.50600  1.0000
  H   H2        1.0  0.86000  0.27000  0.00600  1.0000
  H   H3        1.0  0.73000  0.36000  0.50600  1.0000
  H   H4        1.0  0.64000  0.23000  0.00600  1.0000
  H   H5        1.0  0.23000  0.86000  0.49400  1.0000
  H   H6        1.0  0.14000  0.73000  0.99400  1.0000
  H   H7        1.0  0.27000  0.64000  0.49400  1.0000
  H   H8        1.0  0.36000  0.77000  0.99400  1.0000
