data_image0
_chemical_formula_structural       Yb4O36C16H8
_chemical_formula_sum              "Yb4 O36 C16 H8"
_cell_length_a       8.6146
_cell_length_b       8.6146
_cell_length_c       12.8808
_cell_angle_alpha    90
_cell_angle_beta     90
_cell_angle_gamma    90

_space_group_name_H-M_alt    "P 1"
_space_group_IT_number       1

loop_
  _space_group_symop_operation_xyz
  'x, y, z'

loop_
  _atom_site_type_symbol
  _atom_site_label
  _atom_site_symmetry_multiplicity
  _atom_site_fract_x
  _atom_site_fract_y
  _atom_site_fract_z
  _atom_site_occupancy
  Yb  Yb1       1.0  0.75000  0.25000  0.28745  1.0000
  Yb  Yb2       1.0  0.75000  0.25000  0.78745  1.0000
  Yb  Yb3       1.0  0.25000  0.75000  0.71255  1.0000
  Yb  Yb4       1.0  0.25000  0.75000  0.21255  1.0000
  O   O1        1.0  0.75000  0.25000  0.47900  1.0000
  O   O2        1.0  0.75000  0.25000  0.97900  1.0000
  O   O3        1.0  0.25000  0.75000  0.52100  1.0000
  O   O4        1.0  0.25000  0.75000  0.02100  1.0000
  O   O5        1.0  0.61900  0.03600  0.35600  1.0000
  O   O6        1.0  0.96400  0.11900  0.85600  1.0000
  O   O7        1.0  0.88100  0.46400  0.35600  1.0000
  O   O8        1.0  0.53600  0.38100  0.85600  1.0000
  O   O9        1.0  0.38100  0.96400  0.64400  1.0000
  O   O10       1.0  0.03600  0.88100  0.14400  1.0000
  O   O11       1.0  0.11900  0.53600  0.64400  1.0000
  O   O12       1.0  0.46400  0.61900  0.14400  1.0000
  O   O13       1.0  0.83400  0.03700  0.18000  1.0000
  O   O14       1.0  0.96300  0.33400  0.68000  1.0000
  O   O15       1.0  0.66600  0.46300  0.18000  1.0000
  O   O16       1.0  0.53700  0.16600  0.68000  1.0000
  O   O17       1.0  0.16600  0.96300  0.82000  1.0000
  O   O18       1.0  0.03700  0.66600  0.32000  1.0000
  O   O19       1.0  0.33400  0.53700  0.82000  1.0000
  O   O20       1.0  0.46300  0.83400  0.32000  1.0000
  O   O21       1.0  0.98500  0.14300  0.34530  1.0000
  O   O22       1.0  0.85700  0.48500  0.84530  1.0000
  O   O23       1.0  0.51500  0.35700  0.34530  1.0000
  O   O24       1.0  0.64300  0.01500  0.84530  1.0000
  O   O25       1.0  0.01500  0.85700  0.65470  1.0000
  O   O26       1.0  0.14300  0.51500  0.15470  1.0000
  O   O27       1.0  0.48500  0.64300  0.65470  1.0000
  O   O28       1.0  0.35700  0.98500  0.15470  1.0000
  O   O29       1.0  0.55300  0.15700  0.16980  1.0000
  O   O30       1.0  0.84300  0.05300  0.66980  1.0000
  O   O31       1.0  0.94700  0.34300  0.16980  1.0000
  O   O32       1.0  0.65700  0.44700  0.66980  1.0000
  O   O33       1.0  0.44700  0.84300  0.83020  1.0000
  O   O34       1.0  0.15700  0.94700  0.33020  1.0000
  O   O35       1.0  0.05300  0.65700  0.83020  1.0000
  O   O36       1.0  0.34300  0.55300  0.33020  1.0000
  C   C1        1.0  0.53100  0.96600  0.29900  1.0000
  C   C2        1.0  0.03400  0.03100  0.79900  1.0000
  C   C3        1.0  0.96900  0.53400  0.29900  1.0000
  C   C4        1.0  0.46600  0.46900  0.79900  1.0000
  C   C5        1.0  0.46900  0.03400  0.70100  1.0000
  C   C6        1.0  0.96600  0.96900  0.20100  1.0000
  C   C7        1.0  0.03100  0.46600  0.70100  1.0000
  C   C8        1.0  0.53400  0.53100  0.20100  1.0000
  C   C9        1.0  0.05000  0.01600  0.30500  1.0000
  C   C10       1.0  0.98400  0.55000  0.80500  1.0000
  C   C11       1.0  0.45000  0.48400  0.30500  1.0000
  C   C12       1.0  0.51600  0.95000  0.80500  1.0000
  C   C13       1.0  0.95000  0.98400  0.69500  1.0000
  C   C14       1.0  0.01600  0.45000  0.19500  1.0000
  C   C15       1.0  0.55000  0.51600  0.69500  1.0000
  C   C16       1.0  0.48400  0.05000  0.19500  1.0000
  H   H1        1.0  0.78900  0.17000  0.52500  1.0000
  H   H2        1.0  0.83000  0.28900  0.02500  1.0000
  H   H3        1.0  0.71100  0.33000  0.52500  1.0000
  H   H4        1.0  0.67000  0.21100  0.02500  1.0000
  H   H5        1.0  0.21100  0.83000  0.47500  1.0000
  H   H6        1.0  0.17000  0.71100  0.97500  1.0000
  H   H7        1.0  0.28900  0.67000  0.47500  1.0000
  H   H8        1.0  0.33000  0.78900  0.97500  1.0000
