data_image0
_chemical_formula_structural       Cu2O20C16H8
_chemical_formula_sum              "Cu2 O20 C16 H8"
_cell_length_a       9.7423
_cell_length_b       7.9262
_cell_length_c       13.541
_cell_angle_alpha    90
_cell_angle_beta     91.571
_cell_angle_gamma    90

_space_group_name_H-M_alt    "P 1"
_space_group_IT_number       1

loop_
  _space_group_symop_operation_xyz
  'x, y, z'

loop_
  _atom_site_type_symbol
  _atom_site_label
  _atom_site_symmetry_multiplicity
  _atom_site_fract_x
  _atom_site_fract_y
  _atom_site_fract_z
  _atom_site_occupancy
  Cu  Cu1       1.0  0.00000  0.00000  0.00000  1.0000
  Cu  Cu2       1.0  0.50000  0.00000  0.50000  1.0000
  O   O1        1.0  0.87300  0.59590  0.12782  1.0000
  O   O2        1.0  0.62700  0.59590  0.37218  1.0000
  O   O3        1.0  0.12700  0.40410  0.87218  1.0000
  O   O4        1.0  0.37300  0.40410  0.62782  1.0000
  O   O5        1.0  0.01820  0.76740  0.93799  1.0000
  O   O6        1.0  0.48180  0.76740  0.56201  1.0000
  O   O7        1.0  0.98180  0.23260  0.06201  1.0000
  O   O8        1.0  0.51820  0.23260  0.43799  1.0000
  O   O9        1.0  0.02080  0.96990  0.28340  1.0000
  O   O10       1.0  0.47920  0.96990  0.21660  1.0000
  O   O11       1.0  0.97920  0.03010  0.71660  1.0000
  O   O12       1.0  0.52080  0.03010  0.78340  1.0000
  O   O13       1.0  0.20290  0.95760  0.08384  1.0000
  O   O14       1.0  0.29710  0.95760  0.41616  1.0000
  O   O15       1.0  0.79710  0.04240  0.91616  1.0000
  O   O16       1.0  0.70290  0.04240  0.58384  1.0000
  O   O17       1.0  0.88570  0.92890  0.11124  1.0000
  O   O18       1.0  0.61430  0.92890  0.38876  1.0000
  O   O19       1.0  0.11430  0.07110  0.88876  1.0000
  O   O20       1.0  0.38570  0.07110  0.61124  1.0000
  C   C1        1.0  0.94300  0.54350  0.05830  1.0000
  C   C2        1.0  0.55700  0.54350  0.44170  1.0000
  C   C3        1.0  0.05700  0.45650  0.94170  1.0000
  C   C4        1.0  0.44300  0.45650  0.55830  1.0000
  C   C5        1.0  0.00760  0.62100  0.97338  1.0000
  C   C6        1.0  0.49240  0.62100  0.52662  1.0000
  C   C7        1.0  0.99240  0.37900  0.02662  1.0000
  C   C8        1.0  0.50760  0.37900  0.47338  1.0000
  C   C9        1.0  0.14570  0.96660  0.26440  1.0000
  C   C10       1.0  0.35430  0.96660  0.23560  1.0000
  C   C11       1.0  0.85430  0.03340  0.73560  1.0000
  C   C12       1.0  0.64570  0.03340  0.76440  1.0000
  C   C13       1.0  0.22710  0.96360  0.17560  1.0000
  C   C14       1.0  0.27290  0.96360  0.32440  1.0000
  C   C15       1.0  0.77290  0.03640  0.82440  1.0000
  C   C16       1.0  0.72710  0.03640  0.67560  1.0000
  H   H1        1.0  0.87100  0.82500  0.11100  1.0000
  H   H2        1.0  0.62900  0.82500  0.38900  1.0000
  H   H3        1.0  0.12900  0.17500  0.88900  1.0000
  H   H4        1.0  0.37100  0.17500  0.61100  1.0000
  H   H5        1.0  0.91300  0.96300  0.16000  1.0000
  H   H6        1.0  0.58700  0.96300  0.34000  1.0000
  H   H7        1.0  0.08700  0.03700  0.84000  1.0000
  H   H8        1.0  0.41300  0.03700  0.66000  1.0000
