data_image0
_chemical_formula_structural       Co2O20C16H8
_chemical_formula_sum              "Co2 O20 C16 H8"
_cell_length_a       9.5725
_cell_length_b       8.0321
_cell_length_c       13.4487
_cell_angle_alpha    90
_cell_angle_beta     92.775
_cell_angle_gamma    90

_space_group_name_H-M_alt    "P 1"
_space_group_IT_number       1

loop_
  _space_group_symop_operation_xyz
  'x, y, z'

loop_
  _atom_site_type_symbol
  _atom_site_label
  _atom_site_symmetry_multiplicity
  _atom_site_fract_x
  _atom_site_fract_y
  _atom_site_fract_z
  _atom_site_occupancy
  Co  Co1       1.0  0.00000  0.00000  0.00000  1.0000
  Co  Co2       1.0  0.50000  0.00000  0.50000  1.0000
  O   O1        1.0  0.87570  0.59590  0.12942  1.0000
  O   O2        1.0  0.62430  0.59590  0.37058  1.0000
  O   O3        1.0  0.12430  0.40410  0.87058  1.0000
  O   O4        1.0  0.37570  0.40410  0.62942  1.0000
  O   O5        1.0  0.01588  0.76344  0.93662  1.0000
  O   O6        1.0  0.48412  0.76344  0.56338  1.0000
  O   O7        1.0  0.98412  0.23656  0.06338  1.0000
  O   O8        1.0  0.51588  0.23656  0.43662  1.0000
  O   O9        1.0  0.02042  0.97350  0.28963  1.0000
  O   O10       1.0  0.47958  0.97350  0.21037  1.0000
  O   O11       1.0  0.97958  0.02650  0.71037  1.0000
  O   O12       1.0  0.52042  0.02650  0.78963  1.0000
  O   O13       1.0  0.19156  0.95920  0.08314  1.0000
  O   O14       1.0  0.30844  0.95920  0.41686  1.0000
  O   O15       1.0  0.80844  0.04080  0.91686  1.0000
  O   O16       1.0  0.69156  0.04080  0.58314  1.0000
  O   O17       1.0  0.87445  0.92780  0.11602  1.0000
  O   O18       1.0  0.62555  0.92780  0.38398  1.0000
  O   O19       1.0  0.12555  0.07220  0.88398  1.0000
  O   O20       1.0  0.37445  0.07220  0.61602  1.0000
  C   C1        1.0  0.94440  0.54370  0.05889  1.0000
  C   C2        1.0  0.55560  0.54370  0.44111  1.0000
  C   C3        1.0  0.05560  0.45630  0.94111  1.0000
  C   C4        1.0  0.44440  0.45630  0.55889  1.0000
  C   C5        1.0  0.00670  0.61970  0.97255  1.0000
  C   C6        1.0  0.49330  0.61970  0.52745  1.0000
  C   C7        1.0  0.99330  0.38030  0.02745  1.0000
  C   C8        1.0  0.50670  0.38030  0.47255  1.0000
  C   C9        1.0  0.14470  0.96910  0.26733  1.0000
  C   C10       1.0  0.35530  0.96910  0.23267  1.0000
  C   C11       1.0  0.85530  0.03090  0.73267  1.0000
  C   C12       1.0  0.64470  0.03090  0.76733  1.0000
  C   C13       1.0  0.22140  0.96570  0.17525  1.0000
  C   C14       1.0  0.27860  0.96570  0.32475  1.0000
  C   C15       1.0  0.77860  0.03430  0.82475  1.0000
  C   C16       1.0  0.72140  0.03430  0.67525  1.0000
  H   H1        1.0  0.86000  0.81300  0.12000  1.0000
  H   H2        1.0  0.64000  0.81300  0.38000  1.0000
  H   H3        1.0  0.14000  0.18700  0.88000  1.0000
  H   H4        1.0  0.36000  0.18700  0.62000  1.0000
  H   H5        1.0  0.91300  0.94500  0.18700  1.0000
  H   H6        1.0  0.58700  0.94500  0.31300  1.0000
  H   H7        1.0  0.08700  0.05500  0.81300  1.0000
  H   H8        1.0  0.41300  0.05500  0.68700  1.0000
