data_image0
_chemical_formula_structural       Ni2O20C16H8
_chemical_formula_sum              "Ni2 O20 C16 H8"
_cell_length_a       9.5262
_cell_length_b       7.9816
_cell_length_c       13.4439
_cell_angle_alpha    90
_cell_angle_beta     93.331
_cell_angle_gamma    90

_space_group_name_H-M_alt    "P 1"
_space_group_IT_number       1

loop_
  _space_group_symop_operation_xyz
  'x, y, z'

loop_
  _atom_site_type_symbol
  _atom_site_label
  _atom_site_symmetry_multiplicity
  _atom_site_fract_x
  _atom_site_fract_y
  _atom_site_fract_z
  _atom_site_occupancy
  Ni  Ni1       1.0  0.00000  0.00000  0.00000  1.0000
  Ni  Ni2       1.0  0.50000  0.00000  0.50000  1.0000
  O   O1        1.0  0.87930  0.59570  0.13083  1.0000
  O   O2        1.0  0.62070  0.59570  0.36917  1.0000
  O   O3        1.0  0.12070  0.40430  0.86917  1.0000
  O   O4        1.0  0.37930  0.40430  0.63083  1.0000
  O   O5        1.0  0.01670  0.76560  0.93789  1.0000
  O   O6        1.0  0.48330  0.76560  0.56211  1.0000
  O   O7        1.0  0.98330  0.23440  0.06211  1.0000
  O   O8        1.0  0.51670  0.23440  0.43789  1.0000
  O   O9        1.0  0.01980  0.97410  0.28889  1.0000
  O   O10       1.0  0.48020  0.97410  0.21111  1.0000
  O   O11       1.0  0.98020  0.02590  0.71111  1.0000
  O   O12       1.0  0.51980  0.02590  0.78889  1.0000
  O   O13       1.0  0.19050  0.95930  0.08249  1.0000
  O   O14       1.0  0.30950  0.95930  0.41751  1.0000
  O   O15       1.0  0.80950  0.04070  0.91751  1.0000
  O   O16       1.0  0.69050  0.04070  0.58249  1.0000
  O   O17       1.0  0.87490  0.92890  0.11343  1.0000
  O   O18       1.0  0.62510  0.92890  0.38657  1.0000
  O   O19       1.0  0.12510  0.07110  0.88657  1.0000
  O   O20       1.0  0.37490  0.07110  0.61343  1.0000
  C   C1        1.0  0.94610  0.54350  0.05960  1.0000
  C   C2        1.0  0.55390  0.54350  0.44040  1.0000
  C   C3        1.0  0.05390  0.45650  0.94040  1.0000
  C   C4        1.0  0.44610  0.45650  0.55960  1.0000
  C   C5        1.0  0.00710  0.62130  0.97350  1.0000
  C   C6        1.0  0.49290  0.62130  0.52650  1.0000
  C   C7        1.0  0.99290  0.37870  0.02650  1.0000
  C   C8        1.0  0.50710  0.37870  0.47350  1.0000
  C   C9        1.0  0.14490  0.96990  0.26720  1.0000
  C   C10       1.0  0.35510  0.96990  0.23280  1.0000
  C   C11       1.0  0.85510  0.03010  0.73280  1.0000
  C   C12       1.0  0.64490  0.03010  0.76720  1.0000
  C   C13       1.0  0.22070  0.96590  0.17560  1.0000
  C   C14       1.0  0.27930  0.96590  0.32440  1.0000
  C   C15       1.0  0.77930  0.03410  0.82440  1.0000
  C   C16       1.0  0.72070  0.03410  0.67560  1.0000
  H   H1        1.0  0.85900  0.81700  0.11500  1.0000
  H   H2        1.0  0.64100  0.81700  0.38500  1.0000
  H   H3        1.0  0.14100  0.18300  0.88500  1.0000
  H   H4        1.0  0.35900  0.18300  0.61500  1.0000
  H   H5        1.0  0.91300  0.93500  0.19200  1.0000
  H   H6        1.0  0.58700  0.93500  0.30800  1.0000
  H   H7        1.0  0.08700  0.06500  0.80800  1.0000
  H   H8        1.0  0.41300  0.06500  0.69200  1.0000
