data_image0
_chemical_formula_structural       Mn2O20C16H8
_chemical_formula_sum              "Mn2 O20 C16 H8"
_cell_length_a       9.6729
_cell_length_b       8.1471
_cell_length_c       13.4765
_cell_angle_alpha    90
_cell_angle_beta     91.773
_cell_angle_gamma    90

_space_group_name_H-M_alt    "P 1"
_space_group_IT_number       1

loop_
  _space_group_symop_operation_xyz
  'x, y, z'

loop_
  _atom_site_type_symbol
  _atom_site_label
  _atom_site_symmetry_multiplicity
  _atom_site_fract_x
  _atom_site_fract_y
  _atom_site_fract_z
  _atom_site_occupancy
  Mn  Mn1       1.0  0.00000  0.00000  0.00000  1.0000
  Mn  Mn2       1.0  0.50000  0.00000  0.50000  1.0000
  O   O1        1.0  0.87050  0.59440  0.12746  1.0000
  O   O2        1.0  0.62950  0.59440  0.37254  1.0000
  O   O3        1.0  0.12950  0.40560  0.87254  1.0000
  O   O4        1.0  0.37050  0.40560  0.62746  1.0000
  O   O5        1.0  0.01493  0.75890  0.93581  1.0000
  O   O6        1.0  0.48507  0.75890  0.56419  1.0000
  O   O7        1.0  0.98507  0.24110  0.06419  1.0000
  O   O8        1.0  0.51493  0.24110  0.43581  1.0000
  O   O9        1.0  0.02223  0.96920  0.29083  1.0000
  O   O10       1.0  0.47777  0.96920  0.20917  1.0000
  O   O11       1.0  0.97777  0.03080  0.70917  1.0000
  O   O12       1.0  0.52223  0.03080  0.79083  1.0000
  O   O13       1.0  0.19446  0.95570  0.08388  1.0000
  O   O14       1.0  0.30554  0.95570  0.41612  1.0000
  O   O15       1.0  0.80554  0.04430  0.91612  1.0000
  O   O16       1.0  0.69446  0.04430  0.58388  1.0000
  O   O17       1.0  0.86892  0.92460  0.12193  1.0000
  O   O18       1.0  0.63108  0.92460  0.37807  1.0000
  O   O19       1.0  0.13108  0.07540  0.87807  1.0000
  O   O20       1.0  0.36892  0.07540  0.62193  1.0000
  C   C1        1.0  0.94210  0.54320  0.05794  1.0000
  C   C2        1.0  0.55790  0.54320  0.44206  1.0000
  C   C3        1.0  0.05790  0.45680  0.94206  1.0000
  C   C4        1.0  0.44210  0.45680  0.55794  1.0000
  C   C5        1.0  0.00610  0.61690  0.97215  1.0000
  C   C6        1.0  0.49390  0.61690  0.52785  1.0000
  C   C7        1.0  0.99390  0.38310  0.02785  1.0000
  C   C8        1.0  0.50610  0.38310  0.47215  1.0000
  C   C9        1.0  0.14550  0.96600  0.26747  1.0000
  C   C10       1.0  0.35450  0.96600  0.23253  1.0000
  C   C11       1.0  0.85450  0.03400  0.73253  1.0000
  C   C12       1.0  0.64550  0.03400  0.76747  1.0000
  C   C13       1.0  0.22300  0.96260  0.17590  1.0000
  C   C14       1.0  0.27700  0.96260  0.32410  1.0000
  C   C15       1.0  0.77700  0.03740  0.82410  1.0000
  C   C16       1.0  0.72300  0.03740  0.67590  1.0000
  H   H1        1.0  0.85200  0.81000  0.12400  1.0000
  H   H2        1.0  0.64800  0.81000  0.37600  1.0000
  H   H3        1.0  0.14800  0.19000  0.87600  1.0000
  H   H4        1.0  0.35200  0.19000  0.62400  1.0000
  H   H5        1.0  0.90400  0.94000  0.17800  1.0000
  H   H6        1.0  0.59600  0.94000  0.32200  1.0000
  H   H7        1.0  0.09600  0.06000  0.82200  1.0000
  H   H8        1.0  0.40400  0.06000  0.67800  1.0000
