data_image0
_chemical_formula_structural       Zn2O20C16H8
_chemical_formula_sum              "Zn2 O20 C16 H8"
_cell_length_a       9.6005
_cell_length_b       8.0323
_cell_length_c       13.4436
_cell_angle_alpha    90
_cell_angle_beta     92.645
_cell_angle_gamma    90

_space_group_name_H-M_alt    "P 1"
_space_group_IT_number       1

loop_
  _space_group_symop_operation_xyz
  'x, y, z'

loop_
  _atom_site_type_symbol
  _atom_site_label
  _atom_site_symmetry_multiplicity
  _atom_site_fract_x
  _atom_site_fract_y
  _atom_site_fract_z
  _atom_site_occupancy
  Zn  Zn1       1.0  0.00000  0.00000  0.00000  1.0000
  Zn  Zn2       1.0  0.50000  0.00000  0.50000  1.0000
  O   O1        1.0  0.87510  0.59640  0.12892  1.0000
  O   O2        1.0  0.62490  0.59640  0.37108  1.0000
  O   O3        1.0  0.12490  0.40360  0.87108  1.0000
  O   O4        1.0  0.37510  0.40360  0.62892  1.0000
  O   O5        1.0  0.01610  0.76330  0.93671  1.0000
  O   O6        1.0  0.48390  0.76330  0.56329  1.0000
  O   O7        1.0  0.98390  0.23670  0.06329  1.0000
  O   O8        1.0  0.51610  0.23670  0.43671  1.0000
  O   O9        1.0  0.02030  0.97210  0.28899  1.0000
  O   O10       1.0  0.47970  0.97210  0.21101  1.0000
  O   O11       1.0  0.97970  0.02790  0.71101  1.0000
  O   O12       1.0  0.52030  0.02790  0.78899  1.0000
  O   O13       1.0  0.19280  0.95800  0.08288  1.0000
  O   O14       1.0  0.30720  0.95800  0.41712  1.0000
  O   O15       1.0  0.80720  0.04200  0.91712  1.0000
  O   O16       1.0  0.69280  0.04200  0.58288  1.0000
  O   O17       1.0  0.87520  0.92820  0.11526  1.0000
  O   O18       1.0  0.62480  0.92820  0.38474  1.0000
  O   O19       1.0  0.12480  0.07180  0.88474  1.0000
  O   O20       1.0  0.37520  0.07180  0.61526  1.0000
  C   C1        1.0  0.94390  0.54410  0.05870  1.0000
  C   C2        1.0  0.55610  0.54410  0.44130  1.0000
  C   C3        1.0  0.05610  0.45590  0.94130  1.0000
  C   C4        1.0  0.44390  0.45590  0.55870  1.0000
  C   C5        1.0  0.00640  0.61920  0.97240  1.0000
  C   C6        1.0  0.49360  0.61920  0.52760  1.0000
  C   C7        1.0  0.99360  0.38080  0.02760  1.0000
  C   C8        1.0  0.50640  0.38080  0.47240  1.0000
  C   C9        1.0  0.14540  0.96810  0.26640  1.0000
  C   C10       1.0  0.35460  0.96810  0.23360  1.0000
  C   C11       1.0  0.85460  0.03190  0.73360  1.0000
  C   C12       1.0  0.64540  0.03190  0.76640  1.0000
  C   C13       1.0  0.22250  0.96540  0.17530  1.0000
  C   C14       1.0  0.27750  0.96540  0.32470  1.0000
  C   C15       1.0  0.77750  0.03460  0.82470  1.0000
  C   C16       1.0  0.72250  0.03460  0.67530  1.0000
  H   H1        1.0  0.86600  0.82200  0.11800  1.0000
  H   H2        1.0  0.63400  0.82200  0.38200  1.0000
  H   H3        1.0  0.13400  0.17800  0.88200  1.0000
  H   H4        1.0  0.36600  0.17800  0.61800  1.0000
  H   H5        1.0  0.90600  0.96200  0.16900  1.0000
  H   H6        1.0  0.59400  0.96200  0.33100  1.0000
  H   H7        1.0  0.09400  0.03800  0.83100  1.0000
  H   H8        1.0  0.40600  0.03800  0.66900  1.0000
