data_image0
_chemical_formula_structural       Eu4Cl4O8C8H4C4H4C8H4C4H4C4O8C8H4C4H4C8H4C4H4C4O8C8H4C4H4C8H4C4H4C4
_chemical_formula_sum              "Eu4 Cl4 O24 C84 H48"
_cell_length_a       13.5393
_cell_length_b       19.8663
_cell_length_c       9.6763
_cell_angle_alpha    90
_cell_angle_beta     96.683
_cell_angle_gamma    90

_space_group_name_H-M_alt    "P 1"
_space_group_IT_number       1

loop_
  _space_group_symop_operation_xyz
  'x, y, z'

loop_
  _atom_site_type_symbol
  _atom_site_label
  _atom_site_symmetry_multiplicity
  _atom_site_fract_x
  _atom_site_fract_y
  _atom_site_fract_z
  _atom_site_occupancy
  Eu  Eu1       1.0  0.99088  0.19427  0.93545  1.0000
  Eu  Eu2       1.0  0.00912  0.69427  0.56455  1.0000
  Eu  Eu3       1.0  0.00912  0.80573  0.06455  1.0000
  Eu  Eu4       1.0  0.99088  0.30573  0.43545  1.0000
  Cl  Cl1       1.0  0.11970  0.11578  0.81183  1.0000
  Cl  Cl2       1.0  0.88030  0.61578  0.68817  1.0000
  Cl  Cl3       1.0  0.88030  0.88422  0.18817  1.0000
  Cl  Cl4       1.0  0.11970  0.38422  0.31183  1.0000
  O   O1        1.0  0.10479  0.18503  0.13172  1.0000
  O   O2        1.0  0.89521  0.68503  0.36828  1.0000
  O   O3        1.0  0.89521  0.81497  0.86828  1.0000
  O   O4        1.0  0.10479  0.31497  0.63172  1.0000
  O   O5        1.0  0.07824  0.22164  0.34006  1.0000
  O   O6        1.0  0.92176  0.72164  0.15994  1.0000
  O   O7        1.0  0.92176  0.77836  0.65994  1.0000
  O   O8        1.0  0.07824  0.27836  0.84006  1.0000
  C   C1        1.0  0.24390  0.19747  0.30170  1.0000
  C   C2        1.0  0.75610  0.69747  0.19830  1.0000
  C   C3        1.0  0.75610  0.80253  0.69830  1.0000
  C   C4        1.0  0.24390  0.30253  0.80170  1.0000
  C   C5        1.0  0.30623  0.16025  0.22600  1.0000
  C   C6        1.0  0.69377  0.66025  0.27400  1.0000
  C   C7        1.0  0.69377  0.83975  0.77400  1.0000
  C   C8        1.0  0.30623  0.33975  0.72600  1.0000
  H   H1        1.0  0.27980  0.13850  0.14240  1.0000
  H   H2        1.0  0.72020  0.63850  0.35760  1.0000
  H   H3        1.0  0.72020  0.86150  0.85760  1.0000
  H   H4        1.0  0.27980  0.36150  0.64240  1.0000
  C   C9        1.0  0.40707  0.15476  0.27230  1.0000
  C   C10       1.0  0.59293  0.65476  0.22770  1.0000
  C   C11       1.0  0.59293  0.84524  0.72770  1.0000
  C   C12       1.0  0.40707  0.34524  0.77230  1.0000
  H   H5        1.0  0.44870  0.12890  0.22030  1.0000
  H   H6        1.0  0.55130  0.62890  0.27970  1.0000
  H   H7        1.0  0.55130  0.87110  0.77970  1.0000
  H   H8        1.0  0.44870  0.37110  0.72030  1.0000
  C   C13       1.0  0.44800  0.18676  0.39420  1.0000
  C   C14       1.0  0.55200  0.68676  0.10580  1.0000
  C   C15       1.0  0.55200  0.81324  0.60580  1.0000
  C   C16       1.0  0.44800  0.31324  0.89420  1.0000
  C   C17       1.0  0.38450  0.22513  0.46760  1.0000
  C   C18       1.0  0.61550  0.72513  0.03240  1.0000
  C   C19       1.0  0.61550  0.77487  0.53240  1.0000
  C   C20       1.0  0.38450  0.27487  0.96760  1.0000
  H   H9        1.0  0.41110  0.24820  0.54950  1.0000
  H   H10       1.0  0.58890  0.74820  0.95050  1.0000
  H   H11       1.0  0.58890  0.75180  0.45050  1.0000
  H   H12       1.0  0.41110  0.25180  0.04950  1.0000
  C   C21       1.0  0.28410  0.23004  0.42300  1.0000
  C   C22       1.0  0.71590  0.73004  0.07700  1.0000
  C   C23       1.0  0.71590  0.76996  0.57700  1.0000
  C   C24       1.0  0.28410  0.26996  0.92300  1.0000
  H   H13       1.0  0.24220  0.25570  0.47510  1.0000
  H   H14       1.0  0.75780  0.75570  0.02490  1.0000
  H   H15       1.0  0.75780  0.74430  0.52490  1.0000
  H   H16       1.0  0.24220  0.24430  0.97510  1.0000
  C   C25       1.0  0.13450  0.20227  0.25430  1.0000
  C   C26       1.0  0.86550  0.70227  0.24570  1.0000
  C   C27       1.0  0.86550  0.79773  0.74570  1.0000
  C   C28       1.0  0.13450  0.29773  0.75430  1.0000
  O   O9        1.0  0.93012  0.20317  0.51871  1.0000
  O   O10       1.0  0.06988  0.70317  0.98129  1.0000
  O   O11       1.0  0.06988  0.79683  0.48129  1.0000
  O   O12       1.0  0.93012  0.29683  0.01871  1.0000
  O   O13       1.0  0.88610  0.18926  0.73150  1.0000
  O   O14       1.0  0.11390  0.68926  0.76850  1.0000
  O   O15       1.0  0.11390  0.81074  0.26850  1.0000
  O   O16       1.0  0.88610  0.31074  0.23150  1.0000
  C   C29       1.0  0.75928  0.18426  0.54400  1.0000
  C   C30       1.0  0.24072  0.68426  0.95600  1.0000
  C   C31       1.0  0.24072  0.81574  0.45600  1.0000
  C   C32       1.0  0.75928  0.31574  0.04400  1.0000
  C   C33       1.0  0.72860  0.18764  0.40140  1.0000
  C   C34       1.0  0.27140  0.68764  0.09860  1.0000
  C   C35       1.0  0.27140  0.81236  0.59860  1.0000
  C   C36       1.0  0.72860  0.31236  0.90140  1.0000
  H   H17       1.0  0.77650  0.19110  0.33740  1.0000
  H   H18       1.0  0.22350  0.69110  0.16260  1.0000
  H   H19       1.0  0.22350  0.80890  0.66260  1.0000
  H   H20       1.0  0.77650  0.30890  0.83740  1.0000
  C   C37       1.0  0.62780  0.18594  0.35300  1.0000
  C   C38       1.0  0.37220  0.68594  0.14700  1.0000
  C   C39       1.0  0.37220  0.81406  0.64700  1.0000
  C   C40       1.0  0.62780  0.31406  0.85300  1.0000
  H   H21       1.0  0.60760  0.18730  0.25570  1.0000
  H   H22       1.0  0.39240  0.68730  0.24430  1.0000
  H   H23       1.0  0.39240  0.81270  0.74430  1.0000
  H   H24       1.0  0.60760  0.31270  0.75570  1.0000
  C   C41       1.0  0.55560  0.18230  0.44510  1.0000
  C   C42       1.0  0.44440  0.68230  0.05490  1.0000
  C   C43       1.0  0.44440  0.81770  0.55490  1.0000
  C   C44       1.0  0.55560  0.31770  0.94510  1.0000
  C   C45       1.0  0.58760  0.17730  0.58720  1.0000
  C   C46       1.0  0.41240  0.67730  0.91280  1.0000
  C   C47       1.0  0.41240  0.82270  0.41280  1.0000
  C   C48       1.0  0.58760  0.32270  0.08720  1.0000
  H   H25       1.0  0.53990  0.17360  0.65130  1.0000
  H   H26       1.0  0.46010  0.67360  0.84870  1.0000
  H   H27       1.0  0.46010  0.82640  0.34870  1.0000
  H   H28       1.0  0.53990  0.32640  0.15130  1.0000
  C   C49       1.0  0.68790  0.17769  0.63590  1.0000
  C   C50       1.0  0.31210  0.67769  0.86410  1.0000
  C   C51       1.0  0.31210  0.82231  0.36410  1.0000
  C   C52       1.0  0.68790  0.32231  0.13590  1.0000
  H   H29       1.0  0.70820  0.17340  0.73290  1.0000
  H   H30       1.0  0.29180  0.67340  0.76710  1.0000
  H   H31       1.0  0.29180  0.82660  0.26710  1.0000
  H   H32       1.0  0.70820  0.32660  0.23290  1.0000
  C   C53       1.0  0.86668  0.19266  0.60160  1.0000
  C   C54       1.0  0.13332  0.69266  0.89840  1.0000
  C   C55       1.0  0.13332  0.80734  0.39840  1.0000
  C   C56       1.0  0.86668  0.30734  0.10160  1.0000
  O   O17       1.0  0.91046  0.08271  0.97440  1.0000
  O   O18       1.0  0.08954  0.58271  0.52560  1.0000
  O   O19       1.0  0.08954  0.91729  0.02560  1.0000
  O   O20       1.0  0.91046  0.41729  0.47440  1.0000
  O   O21       1.0  0.84054  0.17468  0.04260  1.0000
  O   O22       1.0  0.15946  0.67468  0.45740  1.0000
  O   O23       1.0  0.15946  0.82532  0.95740  1.0000
  O   O24       1.0  0.84054  0.32532  0.54260  1.0000
  C   C57       1.0  0.73671  0.07917  0.00350  1.0000
  C   C58       1.0  0.26329  0.57917  0.49650  1.0000
  C   C59       1.0  0.26329  0.92083  0.99650  1.0000
  C   C60       1.0  0.73671  0.42083  0.50350  1.0000
  C   C61       1.0  0.72990  0.00963  0.00920  1.0000
  C   C62       1.0  0.27010  0.50963  0.49080  1.0000
  C   C63       1.0  0.27010  0.99037  0.99080  1.0000
  C   C64       1.0  0.72990  0.49037  0.50920  1.0000
  H   H33       1.0  0.78820  0.98290  0.01260  1.0000
  H   H34       1.0  0.21180  0.48290  0.48740  1.0000
  H   H35       1.0  0.21180  0.01710  0.98740  1.0000
  H   H36       1.0  0.78820  0.51710  0.51260  1.0000
  C   C65       1.0  0.63760  0.97909  0.00990  1.0000
  C   C66       1.0  0.36240  0.47909  0.49010  1.0000
  C   C67       1.0  0.36240  0.02091  0.99010  1.0000
  C   C68       1.0  0.63760  0.52091  0.50990  1.0000
  H   H37       1.0  0.63430  0.93150  0.01770  1.0000
  H   H38       1.0  0.36570  0.43150  0.48230  1.0000
  H   H39       1.0  0.36570  0.06850  0.98230  1.0000
  H   H40       1.0  0.63430  0.56850  0.51770  1.0000
  C   C69       1.0  0.54955  0.01655  0.99960  1.0000
  C   C70       1.0  0.45045  0.51655  0.50040  1.0000
  C   C71       1.0  0.45045  0.98345  0.00040  1.0000
  C   C72       1.0  0.54955  0.48345  0.49960  1.0000
  C   C73       1.0  0.55830  0.08667  0.98970  1.0000
  C   C74       1.0  0.44170  0.58667  0.51030  1.0000
  C   C75       1.0  0.44170  0.91333  0.01030  1.0000
  C   C76       1.0  0.55830  0.41333  0.48970  1.0000
  H   H41       1.0  0.49990  0.11350  0.97980  1.0000
  H   H42       1.0  0.50010  0.61350  0.52020  1.0000
  H   H43       1.0  0.50010  0.88650  0.02020  1.0000
  H   H44       1.0  0.49990  0.38650  0.47980  1.0000
  C   C77       1.0  0.65020  0.11755  0.99410  1.0000
  C   C78       1.0  0.34980  0.61755  0.50590  1.0000
  C   C79       1.0  0.34980  0.88245  0.00590  1.0000
  C   C80       1.0  0.65020  0.38245  0.49410  1.0000
  H   H45       1.0  0.65430  0.16520  0.99070  1.0000
  H   H46       1.0  0.34570  0.66520  0.50930  1.0000
  H   H47       1.0  0.34570  0.83480  0.00930  1.0000
  H   H48       1.0  0.65430  0.33480  0.49070  1.0000
  C   C81       1.0  0.83536  0.11363  0.00730  1.0000
  C   C82       1.0  0.16464  0.61363  0.49270  1.0000
  C   C83       1.0  0.16464  0.88637  0.99270  1.0000
  C   C84       1.0  0.83536  0.38637  0.50730  1.0000
