data_image0
_chemical_formula_structural       Nd8O64N32C192H128
_chemical_formula_sum              "Nd8 O64 N32 C192 H128"
_cell_length_a       13.654
_cell_length_b       21.813
_cell_length_c       20.136
_cell_angle_alpha    90
_cell_angle_beta     99.36
_cell_angle_gamma    90

_space_group_name_H-M_alt    "P 1"
_space_group_IT_number       1

loop_
  _space_group_symop_operation_xyz
  'x, y, z'

loop_
  _atom_site_type_symbol
  _atom_site_label
  _atom_site_symmetry_multiplicity
  _atom_site_fract_x
  _atom_site_fract_y
  _atom_site_fract_z
  _atom_site_occupancy
  Nd  Nd1       1.0  0.00000  0.21370  0.00000  1.0000
  Nd  Nd2       1.0  0.50000  0.71370  0.00000  1.0000
  Nd  Nd3       1.0  0.00000  0.78630  0.50000  1.0000
  Nd  Nd4       1.0  0.50000  0.28630  0.50000  1.0000
  Nd  Nd5       1.0  0.19194  0.47612  0.97256  1.0000
  Nd  Nd6       1.0  0.69194  0.97612  0.97256  1.0000
  Nd  Nd7       1.0  0.19194  0.52388  0.47256  1.0000
  Nd  Nd8       1.0  0.69194  0.02388  0.47256  1.0000
  O   O1        1.0  0.06760  0.21680  0.89550  1.0000
  O   O2        1.0  0.56760  0.71680  0.89550  1.0000
  O   O3        1.0  0.06760  0.78320  0.39550  1.0000
  O   O4        1.0  0.56760  0.28320  0.39550  1.0000
  O   O5        1.0  0.15110  0.18550  0.81660  1.0000
  O   O6        1.0  0.65110  0.68550  0.81660  1.0000
  O   O7        1.0  0.15110  0.81450  0.31660  1.0000
  O   O8        1.0  0.65110  0.31450  0.31660  1.0000
  O   O9        1.0  0.18030  0.52910  0.07770  1.0000
  O   O10       1.0  0.68030  0.02910  0.07770  1.0000
  O   O11       1.0  0.18030  0.47090  0.57770  1.0000
  O   O12       1.0  0.68030  0.97090  0.57770  1.0000
  O   O13       1.0  0.10320  0.56840  0.15630  1.0000
  O   O14       1.0  0.60320  0.06840  0.15630  1.0000
  O   O15       1.0  0.10320  0.43160  0.65630  1.0000
  O   O16       1.0  0.60320  0.93160  0.65630  1.0000
  O   O17       1.0  0.03090  0.13860  0.08980  1.0000
  O   O18       1.0  0.53090  0.63860  0.08980  1.0000
  O   O19       1.0  0.03090  0.86140  0.58980  1.0000
  O   O20       1.0  0.53090  0.36140  0.58980  1.0000
  O   O21       1.0  0.13140  0.08600  0.16720  1.0000
  O   O22       1.0  0.63140  0.58600  0.16720  1.0000
  O   O23       1.0  0.13140  0.91400  0.66720  1.0000
  O   O24       1.0  0.63140  0.41400  0.66720  1.0000
  O   O25       1.0  0.26660  0.39050  0.91950  1.0000
  O   O26       1.0  0.76660  0.89050  0.91950  1.0000
  O   O27       1.0  0.26660  0.60950  0.41950  1.0000
  O   O28       1.0  0.76660  0.10950  0.41950  1.0000
  O   O29       1.0  0.37290  0.31230  0.91990  1.0000
  O   O30       1.0  0.87290  0.81230  0.91990  1.0000
  O   O31       1.0  0.37290  0.68770  0.41990  1.0000
  O   O32       1.0  0.87290  0.18770  0.41990  1.0000
  O   O33       1.0  0.85160  0.24780  0.04320  1.0000
  O   O34       1.0  0.35160  0.74780  0.04320  1.0000
  O   O35       1.0  0.85160  0.75220  0.54320  1.0000
  O   O36       1.0  0.35160  0.25220  0.54320  1.0000
  O   O37       1.0  0.68980  0.26880  0.02900  1.0000
  O   O38       1.0  0.18980  0.76880  0.02900  1.0000
  O   O39       1.0  0.68980  0.73120  0.52900  1.0000
  O   O40       1.0  0.18980  0.23120  0.52900  1.0000
  O   O41       1.0  0.06540  0.45780  0.87710  1.0000
  O   O42       1.0  0.56540  0.95780  0.87710  1.0000
  O   O43       1.0  0.06540  0.54220  0.37710  1.0000
  O   O44       1.0  0.56540  0.04220  0.37710  1.0000
  O   O45       1.0  0.92770  0.47960  0.80690  1.0000
  O   O46       1.0  0.42770  0.97960  0.80690  1.0000
  O   O47       1.0  0.92770  0.52040  0.30690  1.0000
  O   O48       1.0  0.42770  0.02040  0.30690  1.0000
  O   O49       1.0  0.17600  0.38880  0.04450  1.0000
  O   O50       1.0  0.67600  0.88880  0.04450  1.0000
  O   O51       1.0  0.17600  0.61120  0.54450  1.0000
  O   O52       1.0  0.67600  0.11120  0.54450  1.0000
  O   O53       1.0  0.07740  0.31350  0.99760  1.0000
  O   O54       1.0  0.57740  0.81350  0.99760  1.0000
  O   O55       1.0  0.07740  0.68650  0.49760  1.0000
  O   O56       1.0  0.57740  0.18650  0.49760  1.0000
  O   O57       1.0  0.30070  0.56460  0.98660  1.0000
  O   O58       1.0  0.80070  0.06460  0.98660  1.0000
  O   O59       1.0  0.30070  0.43540  0.48660  1.0000
  O   O60       1.0  0.80070  0.93540  0.48660  1.0000
  O   O61       1.0  0.36870  0.64800  0.95070  1.0000
  O   O62       1.0  0.86870  0.14800  0.95070  1.0000
  O   O63       1.0  0.36870  0.35200  0.45070  1.0000
  O   O64       1.0  0.86870  0.85200  0.45070  1.0000
  N   N1        1.0  0.07020  0.10510  0.94910  1.0000
  N   N2        1.0  0.57020  0.60510  0.94910  1.0000
  N   N3        1.0  0.07020  0.89490  0.44910  1.0000
  N   N4        1.0  0.57020  0.39490  0.44910  1.0000
  N   N5        1.0  0.01340  0.47250  0.01840  1.0000
  N   N6        1.0  0.51340  0.97250  0.01840  1.0000
  N   N7        1.0  0.01340  0.52750  0.51840  1.0000
  N   N8        1.0  0.51340  0.02750  0.51840  1.0000
  N   N9        1.0  0.18600  0.19310  0.04660  1.0000
  N   N10       1.0  0.68600  0.69310  0.04660  1.0000
  N   N11       1.0  0.18600  0.80690  0.54660  1.0000
  N   N12       1.0  0.68600  0.30690  0.54660  1.0000
  N   N13       1.0  0.37200  0.43820  0.02950  1.0000
  N   N14       1.0  0.87200  0.93820  0.02950  1.0000
  N   N15       1.0  0.37200  0.56180  0.52950  1.0000
  N   N16       1.0  0.87200  0.06180  0.52950  1.0000
  N   N17       1.0  0.86410  0.28040  0.91830  1.0000
  N   N18       1.0  0.36410  0.78040  0.91830  1.0000
  N   N19       1.0  0.86410  0.71960  0.41830  1.0000
  N   N20       1.0  0.36410  0.21960  0.41830  1.0000
  N   N21       1.0  0.08020  0.57180  0.92690  1.0000
  N   N22       1.0  0.58020  0.07180  0.92690  1.0000
  N   N23       1.0  0.08020  0.42820  0.42690  1.0000
  N   N24       1.0  0.58020  0.92820  0.42690  1.0000
  N   N25       1.0  0.04820  0.27350  0.11710  1.0000
  N   N26       1.0  0.54820  0.77350  0.11710  1.0000
  N   N27       1.0  0.04820  0.72650  0.61710  1.0000
  N   N28       1.0  0.54820  0.22650  0.61710  1.0000
  N   N29       1.0  0.26210  0.51860  0.86310  1.0000
  N   N30       1.0  0.76210  0.01860  0.86310  1.0000
  N   N31       1.0  0.26210  0.48140  0.36310  1.0000
  N   N32       1.0  0.76210  0.98140  0.36310  1.0000
  C   C1        1.0  0.06170  0.04860  0.97230  1.0000
  C   C2        1.0  0.56170  0.54860  0.97230  1.0000
  C   C3        1.0  0.06170  0.95140  0.47230  1.0000
  C   C4        1.0  0.56170  0.45140  0.47230  1.0000
  C   C5        1.0  0.09100  0.99720  0.94190  1.0000
  C   C6        1.0  0.59100  0.49720  0.94190  1.0000
  C   C7        1.0  0.09100  0.00280  0.44190  1.0000
  C   C8        1.0  0.59100  0.50280  0.44190  1.0000
  C   C9        1.0  0.12500  0.00390  0.88140  1.0000
  C   C10       1.0  0.62500  0.50390  0.88140  1.0000
  C   C11       1.0  0.12500  0.99610  0.38140  1.0000
  C   C12       1.0  0.62500  0.49610  0.38140  1.0000
  C   C13       1.0  0.13710  0.06270  0.85690  1.0000
  C   C14       1.0  0.63710  0.56270  0.85690  1.0000
  C   C15       1.0  0.13710  0.93730  0.35690  1.0000
  C   C16       1.0  0.63710  0.43730  0.35690  1.0000
  C   C17       1.0  0.10630  0.11180  0.89110  1.0000
  C   C18       1.0  0.60630  0.61180  0.89110  1.0000
  C   C19       1.0  0.10630  0.88820  0.39110  1.0000
  C   C20       1.0  0.60630  0.38820  0.39110  1.0000
  C   C21       1.0  0.11010  0.17620  0.86590  1.0000
  C   C22       1.0  0.61010  0.67620  0.86590  1.0000
  C   C23       1.0  0.11010  0.82380  0.36590  1.0000
  C   C24       1.0  0.61010  0.32380  0.36590  1.0000
  C   C25       1.0  0.93450  0.43890  0.99260  1.0000
  C   C26       1.0  0.43450  0.93890  0.99260  1.0000
  C   C27       1.0  0.93450  0.56110  0.49260  1.0000
  C   C28       1.0  0.43450  0.06110  0.49260  1.0000
  C   C29       1.0  0.85470  0.43060  0.02530  1.0000
  C   C30       1.0  0.35470  0.93060  0.02530  1.0000
  C   C31       1.0  0.85470  0.56940  0.52530  1.0000
  C   C32       1.0  0.35470  0.06940  0.52530  1.0000
  C   C33       1.0  0.85370  0.45820  0.08560  1.0000
  C   C34       1.0  0.35370  0.95820  0.08560  1.0000
  C   C35       1.0  0.85370  0.54180  0.58560  1.0000
  C   C36       1.0  0.35370  0.04180  0.58560  1.0000
  C   C37       1.0  0.93470  0.49280  0.11250  1.0000
  C   C38       1.0  0.43470  0.99280  0.11250  1.0000
  C   C39       1.0  0.93470  0.50720  0.61250  1.0000
  C   C40       1.0  0.43470  0.00720  0.61250  1.0000
  C   C41       1.0  0.01460  0.49820  0.07860  1.0000
  C   C42       1.0  0.51460  0.99820  0.07860  1.0000
  C   C43       1.0  0.01460  0.50180  0.57860  1.0000
  C   C44       1.0  0.51460  0.00180  0.57860  1.0000
  C   C45       1.0  0.10500  0.53480  0.10700  1.0000
  C   C46       1.0  0.60500  0.03480  0.10700  1.0000
  C   C47       1.0  0.10500  0.46520  0.60700  1.0000
  C   C48       1.0  0.60500  0.96520  0.60700  1.0000
  C   C49       1.0  0.26050  0.22060  0.02360  1.0000
  C   C50       1.0  0.76050  0.72060  0.02360  1.0000
  C   C51       1.0  0.26050  0.77940  0.52360  1.0000
  C   C52       1.0  0.76050  0.27940  0.52360  1.0000
  C   C53       1.0  0.36200  0.20780  0.04820  1.0000
  C   C54       1.0  0.86200  0.70780  0.04820  1.0000
  C   C55       1.0  0.36200  0.79220  0.54820  1.0000
  C   C56       1.0  0.86200  0.29220  0.54820  1.0000
  C   C57       1.0  0.37940  0.16200  0.09640  1.0000
  C   C58       1.0  0.87940  0.66200  0.09640  1.0000
  C   C59       1.0  0.37940  0.83800  0.59640  1.0000
  C   C60       1.0  0.87940  0.33800  0.59640  1.0000
  C   C61       1.0  0.30220  0.13460  0.12060  1.0000
  C   C62       1.0  0.80220  0.63460  0.12060  1.0000
  C   C63       1.0  0.30220  0.86540  0.62060  1.0000
  C   C64       1.0  0.80220  0.36540  0.62060  1.0000
  C   C65       1.0  0.20590  0.15110  0.09510  1.0000
  C   C66       1.0  0.70590  0.65110  0.09510  1.0000
  C   C67       1.0  0.20590  0.84890  0.59510  1.0000
  C   C68       1.0  0.70590  0.34890  0.59510  1.0000
  C   C69       1.0  0.11740  0.12310  0.11970  1.0000
  C   C70       1.0  0.61740  0.62310  0.11970  1.0000
  C   C71       1.0  0.11740  0.87690  0.61970  1.0000
  C   C72       1.0  0.61740  0.37690  0.61970  1.0000
  C   C73       1.0  0.42530  0.46400  0.08650  1.0000
  C   C74       1.0  0.92530  0.96400  0.08650  1.0000
  C   C75       1.0  0.42530  0.53600  0.58650  1.0000
  C   C76       1.0  0.92530  0.03600  0.58650  1.0000
  C   C77       1.0  0.51230  0.43870  0.11700  1.0000
  C   C78       1.0  0.01230  0.93870  0.11700  1.0000
  C   C79       1.0  0.51230  0.56130  0.61700  1.0000
  C   C80       1.0  0.01230  0.06130  0.61700  1.0000
  C   C81       1.0  0.54900  0.38710  0.09140  1.0000
  C   C82       1.0  0.04900  0.88710  0.09140  1.0000
  C   C83       1.0  0.54900  0.61290  0.59140  1.0000
  C   C84       1.0  0.04900  0.11290  0.59140  1.0000
  C   C85       1.0  0.49690  0.36120  0.03520  1.0000
  C   C86       1.0  0.99690  0.86120  0.03520  1.0000
  C   C87       1.0  0.49690  0.63880  0.53520  1.0000
  C   C88       1.0  0.99690  0.13880  0.53520  1.0000
  C   C89       1.0  0.40710  0.38850  0.00520  1.0000
  C   C90       1.0  0.90710  0.88850  0.00520  1.0000
  C   C91       1.0  0.40710  0.61150  0.50520  1.0000
  C   C92       1.0  0.90710  0.11150  0.50520  1.0000
  C   C93       1.0  0.34590  0.36070  0.94310  1.0000
  C   C94       1.0  0.84590  0.86070  0.94310  1.0000
  C   C95       1.0  0.34590  0.63930  0.44310  1.0000
  C   C96       1.0  0.84590  0.13930  0.44310  1.0000
  C   C97       1.0  0.87370  0.30030  0.85590  1.0000
  C   C98       1.0  0.37370  0.80030  0.85590  1.0000
  C   C99       1.0  0.87370  0.69970  0.35590  1.0000
  C   C100      1.0  0.37370  0.19970  0.35590  1.0000
  C   C101      1.0  0.79610  0.32650  0.81250  1.0000
  C   C102      1.0  0.29610  0.82650  0.81250  1.0000
  C   C103      1.0  0.79610  0.67350  0.31250  1.0000
  C   C104      1.0  0.29610  0.17350  0.31250  1.0000
  C   C105      1.0  0.70830  0.33090  0.83390  1.0000
  C   C106      1.0  0.20830  0.83090  0.83390  1.0000
  C   C107      1.0  0.70830  0.66910  0.33390  1.0000
  C   C108      1.0  0.20830  0.16910  0.33390  1.0000
  C   C109      1.0  0.69640  0.31220  0.89680  1.0000
  C   C110      1.0  0.19640  0.81220  0.89680  1.0000
  C   C111      1.0  0.69640  0.68780  0.39680  1.0000
  C   C112      1.0  0.19640  0.18780  0.39680  1.0000
  C   C113      1.0  0.77770  0.28710  0.93740  1.0000
  C   C114      1.0  0.27770  0.78710  0.93740  1.0000
  C   C115      1.0  0.77770  0.71290  0.43740  1.0000
  C   C116      1.0  0.27770  0.21290  0.43740  1.0000
  C   C117      1.0  0.77210  0.26550  0.00960  1.0000
  C   C118      1.0  0.27210  0.76550  0.00960  1.0000
  C   C119      1.0  0.77210  0.73450  0.50960  1.0000
  C   C120      1.0  0.27210  0.23450  0.50960  1.0000
  C   C121      1.0  0.08820  0.62950  0.94940  1.0000
  C   C122      1.0  0.58820  0.12950  0.94940  1.0000
  C   C123      1.0  0.08820  0.37050  0.44940  1.0000
  C   C124      1.0  0.58820  0.87050  0.44940  1.0000
  C   C125      1.0  0.02220  0.67480  0.92930  1.0000
  C   C126      1.0  0.52220  0.17480  0.92930  1.0000
  C   C127      1.0  0.02220  0.32520  0.42930  1.0000
  C   C128      1.0  0.52220  0.82520  0.42930  1.0000
  C   C129      1.0  0.94210  0.66120  0.88240  1.0000
  C   C130      1.0  0.44210  0.16120  0.88240  1.0000
  C   C131      1.0  0.94210  0.33880  0.38240  1.0000
  C   C132      1.0  0.44210  0.83880  0.38240  1.0000
  C   C133      1.0  0.93120  0.60240  0.85840  1.0000
  C   C134      1.0  0.43120  0.10240  0.85840  1.0000
  C   C135      1.0  0.93120  0.39760  0.35840  1.0000
  C   C136      1.0  0.43120  0.89760  0.35840  1.0000
  C   C137      1.0  0.00280  0.55880  0.87980  1.0000
  C   C138      1.0  0.50280  0.05880  0.87980  1.0000
  C   C139      1.0  0.00280  0.44120  0.37980  1.0000
  C   C140      1.0  0.50280  0.94120  0.37980  1.0000
  C   C141      1.0  0.99750  0.49380  0.85190  1.0000
  C   C142      1.0  0.49750  0.99380  0.85190  1.0000
  C   C143      1.0  0.99750  0.50620  0.35190  1.0000
  C   C144      1.0  0.49750  0.00620  0.35190  1.0000
  C   C145      1.0  0.02790  0.25550  0.17810  1.0000
  C   C146      1.0  0.52790  0.75550  0.17810  1.0000
  C   C147      1.0  0.02790  0.74450  0.67810  1.0000
  C   C148      1.0  0.52790  0.24450  0.67810  1.0000
  C   C149      1.0  0.05420  0.28970  0.23550  1.0000
  C   C150      1.0  0.55420  0.78970  0.23550  1.0000
  C   C151      1.0  0.05420  0.71030  0.73550  1.0000
  C   C152      1.0  0.55420  0.21030  0.73550  1.0000
  C   C153      1.0  0.10160  0.34400  0.23220  1.0000
  C   C154      1.0  0.60160  0.84400  0.23220  1.0000
  C   C155      1.0  0.10160  0.65600  0.73220  1.0000
  C   C156      1.0  0.60160  0.15600  0.73220  1.0000
  C   C157      1.0  0.12150  0.36390  0.17080  1.0000
  C   C158      1.0  0.62150  0.86390  0.17080  1.0000
  C   C159      1.0  0.12150  0.63610  0.67080  1.0000
  C   C160      1.0  0.62150  0.13610  0.67080  1.0000
  C   C161      1.0  0.09600  0.32660  0.11500  1.0000
  C   C162      1.0  0.59600  0.82660  0.11500  1.0000
  C   C163      1.0  0.09600  0.67340  0.61500  1.0000
  C   C164      1.0  0.59600  0.17340  0.61500  1.0000
  C   C165      1.0  0.11860  0.34420  0.04670  1.0000
  C   C166      1.0  0.61860  0.84420  0.04670  1.0000
  C   C167      1.0  0.11860  0.65580  0.54670  1.0000
  C   C168      1.0  0.61860  0.15580  0.54670  1.0000
  C   C169      1.0  0.24950  0.49290  0.80170  1.0000
  C   C170      1.0  0.74950  0.99290  0.80170  1.0000
  C   C171      1.0  0.24950  0.50710  0.30170  1.0000
  C   C172      1.0  0.74950  0.00710  0.30170  1.0000
  C   C173      1.0  0.28830  0.51640  0.74870  1.0000
  C   C174      1.0  0.78830  0.01640  0.74870  1.0000
  C   C175      1.0  0.28830  0.48360  0.24870  1.0000
  C   C176      1.0  0.78830  0.98360  0.24870  1.0000
  C   C177      1.0  0.34240  0.56960  0.75770  1.0000
  C   C178      1.0  0.84240  0.06960  0.75770  1.0000
  C   C179      1.0  0.34240  0.43040  0.25770  1.0000
  C   C180      1.0  0.84240  0.93040  0.25770  1.0000
  C   C181      1.0  0.35350  0.59730  0.82030  1.0000
  C   C182      1.0  0.85350  0.09730  0.82030  1.0000
  C   C183      1.0  0.35350  0.40270  0.32030  1.0000
  C   C184      1.0  0.85350  0.90270  0.32030  1.0000
  C   C185      1.0  0.31450  0.57090  0.87140  1.0000
  C   C186      1.0  0.81450  0.07090  0.87140  1.0000
  C   C187      1.0  0.31450  0.42910  0.37140  1.0000
  C   C188      1.0  0.81450  0.92910  0.37140  1.0000
  C   C189      1.0  0.33000  0.59650  0.94150  1.0000
  C   C190      1.0  0.83000  0.09650  0.94150  1.0000
  C   C191      1.0  0.33000  0.40350  0.44150  1.0000
  C   C192      1.0  0.83000  0.90350  0.44150  1.0000
  H   H1        1.0  0.01560  0.05110  0.00420  1.0000
  H   H2        1.0  0.51560  0.55110  0.00420  1.0000
  H   H3        1.0  0.01560  0.94890  0.50420  1.0000
  H   H4        1.0  0.51560  0.44890  0.50420  1.0000
  H   H5        1.0  0.08510  0.95570  0.95810  1.0000
  H   H6        1.0  0.58510  0.45570  0.95810  1.0000
  H   H7        1.0  0.08510  0.04430  0.45810  1.0000
  H   H8        1.0  0.58510  0.54430  0.45810  1.0000
  H   H9        1.0  0.12600  0.96700  0.85450  1.0000
  H   H10       1.0  0.62600  0.46700  0.85450  1.0000
  H   H11       1.0  0.12600  0.03300  0.35450  1.0000
  H   H12       1.0  0.62600  0.53300  0.35450  1.0000
  H   H13       1.0  0.17910  0.06160  0.82230  1.0000
  H   H14       1.0  0.67910  0.56160  0.82230  1.0000
  H   H15       1.0  0.17910  0.93840  0.32230  1.0000
  H   H16       1.0  0.67910  0.43840  0.32230  1.0000
  H   H17       1.0  0.93410  0.41800  0.95000  1.0000
  H   H18       1.0  0.43410  0.91800  0.95000  1.0000
  H   H19       1.0  0.93410  0.58200  0.45000  1.0000
  H   H20       1.0  0.43410  0.08200  0.45000  1.0000
  H   H21       1.0  0.80790  0.40710  0.99360  1.0000
  H   H22       1.0  0.30790  0.90710  0.99360  1.0000
  H   H23       1.0  0.80790  0.59290  0.49360  1.0000
  H   H24       1.0  0.30790  0.09290  0.49360  1.0000
  H   H25       1.0  0.81250  0.44900  0.11930  1.0000
  H   H26       1.0  0.31250  0.94900  0.11930  1.0000
  H   H27       1.0  0.81250  0.55100  0.61930  1.0000
  H   H28       1.0  0.31250  0.05100  0.61930  1.0000
  H   H29       1.0  0.94300  0.50780  0.15850  1.0000
  H   H30       1.0  0.44300  0.00780  0.15850  1.0000
  H   H31       1.0  0.94300  0.49220  0.65850  1.0000
  H   H32       1.0  0.44300  0.99220  0.65850  1.0000
  H   H33       1.0  0.24020  0.25760  0.99830  1.0000
  H   H34       1.0  0.74020  0.75760  0.99830  1.0000
  H   H35       1.0  0.24020  0.74240  0.49830  1.0000
  H   H36       1.0  0.74020  0.24240  0.49830  1.0000
  H   H37       1.0  0.39720  0.19070  0.01430  1.0000
  H   H38       1.0  0.89720  0.69070  0.01430  1.0000
  H   H39       1.0  0.39720  0.80930  0.51430  1.0000
  H   H40       1.0  0.89720  0.30930  0.51430  1.0000
  H   H41       1.0  0.44600  0.14810  0.11420  1.0000
  H   H42       1.0  0.94600  0.64810  0.11420  1.0000
  H   H43       1.0  0.44600  0.85190  0.61420  1.0000
  H   H44       1.0  0.94600  0.35190  0.61420  1.0000
  H   H45       1.0  0.31520  0.10980  0.16180  1.0000
  H   H46       1.0  0.81520  0.60980  0.16180  1.0000
  H   H47       1.0  0.31520  0.89020  0.66180  1.0000
  H   H48       1.0  0.81520  0.39020  0.66180  1.0000
  H   H49       1.0  0.39850  0.50440  0.09340  1.0000
  H   H50       1.0  0.89850  0.00440  0.09340  1.0000
  H   H51       1.0  0.39850  0.49560  0.59340  1.0000
  H   H52       1.0  0.89850  0.99560  0.59340  1.0000
  H   H53       1.0  0.56850  0.45670  0.14630  1.0000
  H   H54       1.0  0.06850  0.95670  0.14630  1.0000
  H   H55       1.0  0.56850  0.54330  0.64630  1.0000
  H   H56       1.0  0.06850  0.04330  0.64630  1.0000
  H   H57       1.0  0.59310  0.35480  0.11130  1.0000
  H   H58       1.0  0.09310  0.85480  0.11130  1.0000
  H   H59       1.0  0.59310  0.64520  0.61130  1.0000
  H   H60       1.0  0.09310  0.14520  0.61130  1.0000
  H   H61       1.0  0.50060  0.31980  0.01780  1.0000
  H   H62       1.0  0.00060  0.81980  0.01780  1.0000
  H   H63       1.0  0.50060  0.68020  0.51780  1.0000
  H   H64       1.0  0.00060  0.18020  0.51780  1.0000
  H   H65       1.0  0.94350  0.29240  0.88520  1.0000
  H   H66       1.0  0.44350  0.79240  0.88520  1.0000
  H   H67       1.0  0.94350  0.70760  0.38520  1.0000
  H   H68       1.0  0.44350  0.20760  0.38520  1.0000
  H   H69       1.0  0.81140  0.34820  0.77340  1.0000
  H   H70       1.0  0.31140  0.84820  0.77340  1.0000
  H   H71       1.0  0.81140  0.65180  0.27340  1.0000
  H   H72       1.0  0.31140  0.15180  0.27340  1.0000
  H   H73       1.0  0.65240  0.35060  0.80610  1.0000
  H   H74       1.0  0.15240  0.85060  0.80610  1.0000
  H   H75       1.0  0.65240  0.64940  0.30610  1.0000
  H   H76       1.0  0.15240  0.14940  0.30610  1.0000
  H   H77       1.0  0.63990  0.32240  0.91850  1.0000
  H   H78       1.0  0.13990  0.82240  0.91850  1.0000
  H   H79       1.0  0.63990  0.67760  0.41850  1.0000
  H   H80       1.0  0.13990  0.17760  0.41850  1.0000
  H   H81       1.0  0.15610  0.63240  0.97280  1.0000
  H   H82       1.0  0.65610  0.13240  0.97280  1.0000
  H   H83       1.0  0.15610  0.36760  0.47280  1.0000
  H   H84       1.0  0.65610  0.86760  0.47280  1.0000
  H   H85       1.0  0.04970  0.71560  0.93770  1.0000
  H   H86       1.0  0.54970  0.21560  0.93770  1.0000
  H   H87       1.0  0.04970  0.28440  0.43770  1.0000
  H   H88       1.0  0.54970  0.78440  0.43770  1.0000
  H   H89       1.0  0.89350  0.69360  0.87130  1.0000
  H   H90       1.0  0.39350  0.19360  0.87130  1.0000
  H   H91       1.0  0.89350  0.30640  0.37130  1.0000
  H   H92       1.0  0.39350  0.80640  0.37130  1.0000
  H   H93       1.0  0.87520  0.58420  0.82930  1.0000
  H   H94       1.0  0.37520  0.08420  0.82930  1.0000
  H   H95       1.0  0.87520  0.41580  0.32930  1.0000
  H   H96       1.0  0.37520  0.91580  0.32930  1.0000
  H   H97       1.0  0.98350  0.22330  0.18820  1.0000
  H   H98       1.0  0.48350  0.72330  0.18820  1.0000
  H   H99       1.0  0.98350  0.77670  0.68820  1.0000
  H   H100      1.0  0.48350  0.27670  0.68820  1.0000
  H   H101      1.0  0.03010  0.27600  0.27580  1.0000
  H   H102      1.0  0.53010  0.77600  0.27580  1.0000
  H   H103      1.0  0.03010  0.72400  0.77580  1.0000
  H   H104      1.0  0.53010  0.22400  0.77580  1.0000
  H   H105      1.0  0.09280  0.36190  0.27500  1.0000
  H   H106      1.0  0.59280  0.86190  0.27500  1.0000
  H   H107      1.0  0.09280  0.63810  0.77500  1.0000
  H   H108      1.0  0.59280  0.13810  0.77500  1.0000
  H   H109      1.0  0.16520  0.39930  0.17420  1.0000
  H   H110      1.0  0.66520  0.89930  0.17420  1.0000
  H   H111      1.0  0.16520  0.60070  0.67420  1.0000
  H   H112      1.0  0.66520  0.10070  0.67420  1.0000
  H   H113      1.0  0.19760  0.46360  0.80640  1.0000
  H   H114      1.0  0.69760  0.96360  0.80640  1.0000
  H   H115      1.0  0.19760  0.53640  0.30640  1.0000
  H   H116      1.0  0.69760  0.03640  0.30640  1.0000
  H   H117      1.0  0.29070  0.49740  0.70540  1.0000
  H   H118      1.0  0.79070  0.99740  0.70540  1.0000
  H   H119      1.0  0.29070  0.50260  0.20540  1.0000
  H   H120      1.0  0.79070  0.00260  0.20540  1.0000
  H   H121      1.0  0.36160  0.59150  0.71990  1.0000
  H   H122      1.0  0.86160  0.09150  0.71990  1.0000
  H   H123      1.0  0.36160  0.40850  0.21990  1.0000
  H   H124      1.0  0.86160  0.90850  0.21990  1.0000
  H   H125      1.0  0.38290  0.63730  0.83150  1.0000
  H   H126      1.0  0.88290  0.13730  0.83150  1.0000
  H   H127      1.0  0.38290  0.36270  0.33150  1.0000
  H   H128      1.0  0.88290  0.86270  0.33150  1.0000
