data_image0
_chemical_formula_structural       C6H2C4H2C4H2C4H2C2H2C4H2C8H2C2H2C4H2C2H2C4H2C2H2C2H2C2H2N6O20Ni2H4
_chemical_formula_sum              "C50 H32 N6 O20 Ni2"
_cell_length_a       10.1438
_cell_length_b       11.2973
_cell_length_c       14.1941
_cell_angle_alpha    72.882
_cell_angle_beta     88.101
_cell_angle_gamma    81.084

_space_group_name_H-M_alt    "P 1"
_space_group_IT_number       1

loop_
  _space_group_symop_operation_xyz
  'x, y, z'

loop_
  _atom_site_type_symbol
  _atom_site_label
  _atom_site_symmetry_multiplicity
  _atom_site_fract_x
  _atom_site_fract_y
  _atom_site_fract_z
  _atom_site_occupancy
  C   C1        1.0  0.25330  0.40910  0.35800  1.0000
  C   C2        1.0  0.74670  0.59090  0.64200  1.0000
  C   C3        1.0  0.39030  0.39030  0.40040  1.0000
  C   C4        1.0  0.60970  0.60970  0.59960  1.0000
  C   C5        1.0  0.49210  0.44650  0.34470  1.0000
  C   C6        1.0  0.50790  0.55350  0.65530  1.0000
  H   H1        1.0  0.47460  0.49820  0.28070  1.0000
  H   H2        1.0  0.52540  0.50180  0.71930  1.0000
  C   C7        1.0  0.61930  0.42500  0.38520  1.0000
  C   C8        1.0  0.38070  0.57500  0.61480  1.0000
  C   C9        1.0  0.64520  0.35020  0.48140  1.0000
  C   C10       1.0  0.35480  0.64980  0.51860  1.0000
  H   H3        1.0  0.72990  0.33780  0.50910  1.0000
  H   H4        1.0  0.27010  0.66220  0.49090  1.0000
  C   C11       1.0  0.54400  0.29420  0.53560  1.0000
  C   C12       1.0  0.45600  0.70580  0.46440  1.0000
  C   C13       1.0  0.41660  0.31470  0.49670  1.0000
  C   C14       1.0  0.58340  0.68530  0.50330  1.0000
  H   H5        1.0  0.34880  0.27820  0.53460  1.0000
  H   H6        1.0  0.65120  0.72180  0.46540  1.0000
  C   C15       1.0  0.48820  0.14050  0.67780  1.0000
  C   C16       1.0  0.51180  0.85950  0.32220  1.0000
  C   C17       1.0  0.39460  0.18580  0.73730  1.0000
  C   C18       1.0  0.60540  0.81420  0.26270  1.0000
  H   H7        1.0  0.39160  0.26670  0.74170  1.0000
  H   H8        1.0  0.60840  0.73330  0.25830  1.0000
  C   C19       1.0  0.30570  0.11060  0.79010  1.0000
  C   C20       1.0  0.69430  0.88940  0.20990  1.0000
  H   H9        1.0  0.24100  0.14280  0.82760  1.0000
  H   H10       1.0  0.75900  0.85720  0.17240  1.0000
  C   C21       1.0  0.31160  0.98710  0.78780  1.0000
  C   C22       1.0  0.68840  0.01290  0.21220  1.0000
  C   C23       1.0  0.40630  0.94180  0.72860  1.0000
  C   C24       1.0  0.59370  0.05820  0.27140  1.0000
  H   H11       1.0  0.41150  0.86000  0.72590  1.0000
  H   H12       1.0  0.58850  0.14000  0.27410  1.0000
  C   C25       1.0  0.49300  0.01860  0.67370  1.0000
  C   C26       1.0  0.50700  0.98140  0.32630  1.0000
  C   C27       1.0  0.21840  0.90500  0.85030  1.0000
  C   C28       1.0  0.78160  0.09500  0.14970  1.0000
  C   C29       1.0  0.73340  0.47530  0.32290  1.0000
  C   C30       1.0  0.26660  0.52470  0.67710  1.0000
  C   C31       1.0  0.94840  0.18870  0.36040  1.0000
  C   C32       1.0  0.05160  0.81130  0.63960  1.0000
  H   H13       1.0  0.89070  0.22310  0.40100  1.0000
  H   H14       1.0  0.10930  0.77690  0.59900  1.0000
  C   C33       1.0  0.95000  0.06470  0.36660  1.0000
  C   C34       1.0  0.05000  0.93530  0.63340  1.0000
  H   H15       1.0  0.89420  0.01780  0.41050  1.0000
  H   H16       1.0  0.10580  0.98220  0.58950  1.0000
  C   C35       1.0  0.03490  0.00910  0.30740  1.0000
  C   C36       1.0  0.96510  0.99090  0.69260  1.0000
  C   C37       1.0  0.11700  0.08540  0.24530  1.0000
  C   C38       1.0  0.88300  0.91460  0.75470  1.0000
  H   H17       1.0  0.17710  0.05300  0.20500  1.0000
  H   H18       1.0  0.82290  0.94700  0.79500  1.0000
  C   C39       1.0  0.10930  0.20910  0.24360  1.0000
  C   C40       1.0  0.89070  0.79090  0.75640  1.0000
  H   H19       1.0  0.16550  0.25770  0.20150  1.0000
  H   H20       1.0  0.83450  0.74230  0.79850  1.0000
  C   C41       1.0  0.03460  0.87800  0.30660  1.0000
  C   C42       1.0  0.96540  0.12200  0.69340  1.0000
  C   C43       1.0  0.98550  0.78860  0.38410  1.0000
  C   C44       1.0  0.01450  0.21140  0.61590  1.0000
  H   H21       1.0  0.95500  0.80910  0.44070  1.0000
  H   H22       1.0  0.04500  0.19090  0.55930  1.0000
  C   C45       1.0  0.98190  0.66980  0.37710  1.0000
  C   C46       1.0  0.01810  0.33020  0.62290  1.0000
  H   H23       1.0  0.94830  0.61210  0.42980  1.0000
  H   H24       1.0  0.05170  0.38790  0.57020  1.0000
  C   C47       1.0  0.07280  0.71950  0.22270  1.0000
  C   C48       1.0  0.92720  0.28050  0.77730  1.0000
  H   H25       1.0  0.10320  0.69610  0.16730  1.0000
  H   H26       1.0  0.89680  0.30390  0.83270  1.0000
  C   C49       1.0  0.07900  0.83910  0.22420  1.0000
  C   C50       1.0  0.92100  0.16090  0.77580  1.0000
  H   H27       1.0  0.11290  0.89490  0.17040  1.0000
  H   H28       1.0  0.88710  0.10510  0.82960  1.0000
  N   N1        1.0  0.59190  0.96440  0.61370  1.0000
  N   N2        1.0  0.40810  0.03560  0.38630  1.0000
  N   N3        1.0  0.02590  0.26300  0.29888  1.0000
  N   N4        1.0  0.97410  0.73700  0.70112  1.0000
  N   N5        1.0  0.02450  0.63370  0.29820  1.0000
  N   N6        1.0  0.97550  0.36630  0.70180  1.0000
  O   O1        1.0  0.23350  0.44410  0.26524  1.0000
  O   O2        1.0  0.76650  0.55590  0.73476  1.0000
  O   O3        1.0  0.15630  0.38980  0.41633  1.0000
  O   O4        1.0  0.84370  0.61020  0.58367  1.0000
  O   O5        1.0  0.94770  0.52110  0.15207  1.0000
  O   O6        1.0  0.05230  0.47890  0.84793  1.0000
  O   O7        1.0  0.84720  0.44930  0.36390  1.0000
  O   O8        1.0  0.15280  0.55070  0.63610  1.0000
  O   O9        1.0  0.58040  0.21560  0.62997  1.0000
  O   O10       1.0  0.41960  0.78440  0.37003  1.0000
  O   O11       1.0  0.62950  0.03470  0.53691  1.0000
  O   O12       1.0  0.37050  0.96530  0.46309  1.0000
  O   O13       1.0  0.63220  0.85220  0.64370  1.0000
  O   O14       1.0  0.36780  0.14780  0.35630  1.0000
  O   O15       1.0  0.22760  0.79380  0.84545  1.0000
  O   O16       1.0  0.77240  0.20620  0.15455  1.0000
  O   O17       1.0  0.13840  0.95180  0.90329  1.0000
  O   O18       1.0  0.86160  0.04820  0.09671  1.0000
  O   O19       1.0  0.70950  0.53620  0.23319  1.0000
  O   O20       1.0  0.29050  0.46380  0.76681  1.0000
  Ni  Ni1       1.0  0.02461  0.45092  0.29484  1.0000
  Ni  Ni2       1.0  0.97539  0.54908  0.70516  1.0000
  H   H29       1.0  0.95200  0.46600  0.11900  1.0000
  H   H30       1.0  0.04800  0.53400  0.88100  1.0000
  H   H31       1.0  0.86500  0.54400  0.15900  1.0000
  H   H32       1.0  0.13500  0.45600  0.84100  1.0000
