data_image0
_chemical_formula_structural       In24O192C96H32C32H32C160H32C96H32N32C32H32C32H32
_chemical_formula_sum              "In24 O192 C448 H192 N32"
_cell_length_a       22.9514
_cell_length_b       32.1466
_cell_length_c       35.5775
_cell_angle_alpha    90
_cell_angle_beta     90
_cell_angle_gamma    90

_space_group_name_H-M_alt    "P 1"
_space_group_IT_number       1

loop_
  _space_group_symop_operation_xyz
  'x, y, z'

loop_
  _atom_site_type_symbol
  _atom_site_label
  _atom_site_symmetry_multiplicity
  _atom_site_fract_x
  _atom_site_fract_y
  _atom_site_fract_z
  _atom_site_occupancy
  In  In1       1.0  0.37500  0.37500  0.87500  1.0000
  In  In2       1.0  0.37500  0.87500  0.37500  1.0000
  In  In3       1.0  0.87500  0.37500  0.37500  1.0000
  In  In4       1.0  0.87500  0.87500  0.87500  1.0000
  In  In5       1.0  0.62500  0.62500  0.12500  1.0000
  In  In6       1.0  0.62500  0.12500  0.62500  1.0000
  In  In7       1.0  0.12500  0.62500  0.62500  1.0000
  In  In8       1.0  0.12500  0.12500  0.12500  1.0000
  In  In9       1.0  0.37500  0.37500  0.61935  1.0000
  In  In10      1.0  0.37500  0.37500  0.13065  1.0000
  In  In11      1.0  0.37500  0.87500  0.11935  1.0000
  In  In12      1.0  0.37500  0.87500  0.63065  1.0000
  In  In13      1.0  0.87500  0.37500  0.11935  1.0000
  In  In14      1.0  0.87500  0.37500  0.63065  1.0000
  In  In15      1.0  0.87500  0.87500  0.61935  1.0000
  In  In16      1.0  0.87500  0.87500  0.13065  1.0000
  In  In17      1.0  0.62500  0.62500  0.38065  1.0000
  In  In18      1.0  0.62500  0.62500  0.86935  1.0000
  In  In19      1.0  0.62500  0.12500  0.88065  1.0000
  In  In20      1.0  0.62500  0.12500  0.36935  1.0000
  In  In21      1.0  0.12500  0.62500  0.88065  1.0000
  In  In22      1.0  0.12500  0.62500  0.36935  1.0000
  In  In23      1.0  0.12500  0.12500  0.38065  1.0000
  In  In24      1.0  0.12500  0.12500  0.86935  1.0000
  O   O1        1.0  0.32440  0.34792  0.83052  1.0000
  O   O2        1.0  0.42560  0.40208  0.83052  1.0000
  O   O3        1.0  0.42560  0.34792  0.91948  1.0000
  O   O4        1.0  0.32440  0.40208  0.91948  1.0000
  O   O5        1.0  0.32440  0.84792  0.33052  1.0000
  O   O6        1.0  0.42560  0.90208  0.33052  1.0000
  O   O7        1.0  0.42560  0.84792  0.41948  1.0000
  O   O8        1.0  0.32440  0.90208  0.41948  1.0000
  O   O9        1.0  0.82440  0.34792  0.33052  1.0000
  O   O10       1.0  0.92560  0.40208  0.33052  1.0000
  O   O11       1.0  0.92560  0.34792  0.41948  1.0000
  O   O12       1.0  0.82440  0.40208  0.41948  1.0000
  O   O13       1.0  0.82440  0.84792  0.83052  1.0000
  O   O14       1.0  0.92560  0.90208  0.83052  1.0000
  O   O15       1.0  0.92560  0.84792  0.91948  1.0000
  O   O16       1.0  0.82440  0.90208  0.91948  1.0000
  O   O17       1.0  0.67560  0.65208  0.16948  1.0000
  O   O18       1.0  0.57440  0.59792  0.16948  1.0000
  O   O19       1.0  0.57440  0.65208  0.08052  1.0000
  O   O20       1.0  0.67560  0.59792  0.08052  1.0000
  O   O21       1.0  0.67560  0.15208  0.66948  1.0000
  O   O22       1.0  0.57440  0.09792  0.66948  1.0000
  O   O23       1.0  0.57440  0.15208  0.58052  1.0000
  O   O24       1.0  0.67560  0.09792  0.58052  1.0000
  O   O25       1.0  0.17560  0.65208  0.66948  1.0000
  O   O26       1.0  0.07440  0.59792  0.66948  1.0000
  O   O27       1.0  0.07440  0.65208  0.58052  1.0000
  O   O28       1.0  0.17560  0.59792  0.58052  1.0000
  O   O29       1.0  0.17560  0.15208  0.16948  1.0000
  O   O30       1.0  0.07440  0.09792  0.16948  1.0000
  O   O31       1.0  0.07440  0.15208  0.08052  1.0000
  O   O32       1.0  0.17560  0.09792  0.08052  1.0000
  O   O33       1.0  0.18390  0.18490  0.87581  1.0000
  O   O34       1.0  0.56610  0.56510  0.87581  1.0000
  O   O35       1.0  0.56610  0.18490  0.87419  1.0000
  O   O36       1.0  0.18390  0.56510  0.87419  1.0000
  O   O37       1.0  0.18390  0.68490  0.37581  1.0000
  O   O38       1.0  0.56610  0.06510  0.37581  1.0000
  O   O39       1.0  0.56610  0.68490  0.37419  1.0000
  O   O40       1.0  0.18390  0.06510  0.37419  1.0000
  O   O41       1.0  0.68390  0.18490  0.37581  1.0000
  O   O42       1.0  0.06610  0.56510  0.37581  1.0000
  O   O43       1.0  0.06610  0.18490  0.37419  1.0000
  O   O44       1.0  0.68390  0.56510  0.37419  1.0000
  O   O45       1.0  0.68390  0.68490  0.87581  1.0000
  O   O46       1.0  0.06610  0.06510  0.87581  1.0000
  O   O47       1.0  0.06610  0.68490  0.87419  1.0000
  O   O48       1.0  0.68390  0.06510  0.87419  1.0000
  O   O49       1.0  0.81610  0.81510  0.12419  1.0000
  O   O50       1.0  0.43390  0.43490  0.12419  1.0000
  O   O51       1.0  0.43390  0.81510  0.12581  1.0000
  O   O52       1.0  0.81610  0.43490  0.12581  1.0000
  O   O53       1.0  0.81610  0.31510  0.62419  1.0000
  O   O54       1.0  0.43390  0.93490  0.62419  1.0000
  O   O55       1.0  0.43390  0.31510  0.62581  1.0000
  O   O56       1.0  0.81610  0.93490  0.62581  1.0000
  O   O57       1.0  0.31610  0.81510  0.62419  1.0000
  O   O58       1.0  0.93390  0.43490  0.62419  1.0000
  O   O59       1.0  0.93390  0.81510  0.62581  1.0000
  O   O60       1.0  0.31610  0.43490  0.62581  1.0000
  O   O61       1.0  0.31610  0.31510  0.12419  1.0000
  O   O62       1.0  0.93390  0.93490  0.12419  1.0000
  O   O63       1.0  0.93390  0.31510  0.12581  1.0000
  O   O64       1.0  0.31610  0.93490  0.12581  1.0000
  O   O65       1.0  0.14780  0.16660  0.82186  1.0000
  O   O66       1.0  0.60220  0.58340  0.82186  1.0000
  O   O67       1.0  0.60220  0.16660  0.92814  1.0000
  O   O68       1.0  0.14780  0.58340  0.92814  1.0000
  O   O69       1.0  0.14780  0.66660  0.32186  1.0000
  O   O70       1.0  0.60220  0.08340  0.32186  1.0000
  O   O71       1.0  0.60220  0.66660  0.42814  1.0000
  O   O72       1.0  0.14780  0.08340  0.42814  1.0000
  O   O73       1.0  0.64780  0.16660  0.32186  1.0000
  O   O74       1.0  0.10220  0.58340  0.32186  1.0000
  O   O75       1.0  0.10220  0.16660  0.42814  1.0000
  O   O76       1.0  0.64780  0.58340  0.42814  1.0000
  O   O77       1.0  0.64780  0.66660  0.82186  1.0000
  O   O78       1.0  0.10220  0.08340  0.82186  1.0000
  O   O79       1.0  0.10220  0.66660  0.92814  1.0000
  O   O80       1.0  0.64780  0.08340  0.92814  1.0000
  O   O81       1.0  0.85220  0.83340  0.17814  1.0000
  O   O82       1.0  0.39780  0.41660  0.17814  1.0000
  O   O83       1.0  0.39780  0.83340  0.07186  1.0000
  O   O84       1.0  0.85220  0.41660  0.07186  1.0000
  O   O85       1.0  0.85220  0.33340  0.67814  1.0000
  O   O86       1.0  0.39780  0.91660  0.67814  1.0000
  O   O87       1.0  0.39780  0.33340  0.57186  1.0000
  O   O88       1.0  0.85220  0.91660  0.57186  1.0000
  O   O89       1.0  0.35220  0.83340  0.67814  1.0000
  O   O90       1.0  0.89780  0.41660  0.67814  1.0000
  O   O91       1.0  0.89780  0.83340  0.57186  1.0000
  O   O92       1.0  0.35220  0.41660  0.57186  1.0000
  O   O93       1.0  0.35220  0.33340  0.17814  1.0000
  O   O94       1.0  0.89780  0.91660  0.17814  1.0000
  O   O95       1.0  0.89780  0.33340  0.07186  1.0000
  O   O96       1.0  0.35220  0.91660  0.07186  1.0000
  O   O97       1.0  0.32620  0.34670  0.66460  1.0000
  O   O98       1.0  0.42380  0.40330  0.66460  1.0000
  O   O99       1.0  0.42380  0.34670  0.08540  1.0000
  O   O100      1.0  0.32620  0.40330  0.08540  1.0000
  O   O101      1.0  0.32620  0.84670  0.16460  1.0000
  O   O102      1.0  0.42380  0.90330  0.16460  1.0000
  O   O103      1.0  0.42380  0.84670  0.58540  1.0000
  O   O104      1.0  0.32620  0.90330  0.58540  1.0000
  O   O105      1.0  0.82620  0.34670  0.16460  1.0000
  O   O106      1.0  0.92380  0.40330  0.16460  1.0000
  O   O107      1.0  0.92380  0.34670  0.58540  1.0000
  O   O108      1.0  0.82620  0.40330  0.58540  1.0000
  O   O109      1.0  0.82620  0.84670  0.66460  1.0000
  O   O110      1.0  0.92380  0.90330  0.66460  1.0000
  O   O111      1.0  0.92380  0.84670  0.08540  1.0000
  O   O112      1.0  0.82620  0.90330  0.08540  1.0000
  O   O113      1.0  0.67380  0.65330  0.33540  1.0000
  O   O114      1.0  0.57620  0.59670  0.33540  1.0000
  O   O115      1.0  0.57620  0.65330  0.91460  1.0000
  O   O116      1.0  0.67380  0.59670  0.91460  1.0000
  O   O117      1.0  0.67380  0.15330  0.83540  1.0000
  O   O118      1.0  0.57620  0.09670  0.83540  1.0000
  O   O119      1.0  0.57620  0.15330  0.41460  1.0000
  O   O120      1.0  0.67380  0.09670  0.41460  1.0000
  O   O121      1.0  0.17380  0.65330  0.83540  1.0000
  O   O122      1.0  0.07620  0.59670  0.83540  1.0000
  O   O123      1.0  0.07620  0.65330  0.41460  1.0000
  O   O124      1.0  0.17380  0.59670  0.41460  1.0000
  O   O125      1.0  0.17380  0.15330  0.33540  1.0000
  O   O126      1.0  0.07620  0.09670  0.33540  1.0000
  O   O127      1.0  0.07620  0.15330  0.91460  1.0000
  O   O128      1.0  0.17380  0.09670  0.91460  1.0000
  O   O129      1.0  0.30800  0.31440  0.88250  1.0000
  O   O130      1.0  0.44200  0.43560  0.88250  1.0000
  O   O131      1.0  0.44200  0.31440  0.86750  1.0000
  O   O132      1.0  0.30800  0.43560  0.86750  1.0000
  O   O133      1.0  0.30800  0.81440  0.38250  1.0000
  O   O134      1.0  0.44200  0.93560  0.38250  1.0000
  O   O135      1.0  0.44200  0.81440  0.36750  1.0000
  O   O136      1.0  0.30800  0.93560  0.36750  1.0000
  O   O137      1.0  0.80800  0.31440  0.38250  1.0000
  O   O138      1.0  0.94200  0.43560  0.38250  1.0000
  O   O139      1.0  0.94200  0.31440  0.36750  1.0000
  O   O140      1.0  0.80800  0.43560  0.36750  1.0000
  O   O141      1.0  0.80800  0.81440  0.88250  1.0000
  O   O142      1.0  0.94200  0.93560  0.88250  1.0000
  O   O143      1.0  0.94200  0.81440  0.86750  1.0000
  O   O144      1.0  0.80800  0.93560  0.86750  1.0000
  O   O145      1.0  0.69200  0.68560  0.11750  1.0000
  O   O146      1.0  0.55800  0.56440  0.11750  1.0000
  O   O147      1.0  0.55800  0.68560  0.13250  1.0000
  O   O148      1.0  0.69200  0.56440  0.13250  1.0000
  O   O149      1.0  0.69200  0.18560  0.61750  1.0000
  O   O150      1.0  0.55800  0.06440  0.61750  1.0000
  O   O151      1.0  0.55800  0.18560  0.63250  1.0000
  O   O152      1.0  0.69200  0.06440  0.63250  1.0000
  O   O153      1.0  0.19200  0.68560  0.61750  1.0000
  O   O154      1.0  0.05800  0.56440  0.61750  1.0000
  O   O155      1.0  0.05800  0.68560  0.63250  1.0000
  O   O156      1.0  0.19200  0.56440  0.63250  1.0000
  O   O157      1.0  0.19200  0.18560  0.11750  1.0000
  O   O158      1.0  0.05800  0.06440  0.11750  1.0000
  O   O159      1.0  0.05800  0.18560  0.13250  1.0000
  O   O160      1.0  0.19200  0.06440  0.13250  1.0000
  O   O161      1.0  0.27910  0.33880  0.61350  1.0000
  O   O162      1.0  0.47090  0.41120  0.61350  1.0000
  O   O163      1.0  0.47090  0.33880  0.13650  1.0000
  O   O164      1.0  0.27910  0.41120  0.13650  1.0000
  O   O165      1.0  0.27910  0.83880  0.11350  1.0000
  O   O166      1.0  0.47090  0.91120  0.11350  1.0000
  O   O167      1.0  0.47090  0.83880  0.63650  1.0000
  O   O168      1.0  0.27910  0.91120  0.63650  1.0000
  O   O169      1.0  0.77910  0.33880  0.11350  1.0000
  O   O170      1.0  0.97090  0.41120  0.11350  1.0000
  O   O171      1.0  0.97090  0.33880  0.63650  1.0000
  O   O172      1.0  0.77910  0.41120  0.63650  1.0000
  O   O173      1.0  0.77910  0.83880  0.61350  1.0000
  O   O174      1.0  0.97090  0.91120  0.61350  1.0000
  O   O175      1.0  0.97090  0.83880  0.13650  1.0000
  O   O176      1.0  0.77910  0.91120  0.13650  1.0000
  O   O177      1.0  0.72090  0.66120  0.38650  1.0000
  O   O178      1.0  0.52910  0.58880  0.38650  1.0000
  O   O179      1.0  0.52910  0.66120  0.86350  1.0000
  O   O180      1.0  0.72090  0.58880  0.86350  1.0000
  O   O181      1.0  0.72090  0.16120  0.88650  1.0000
  O   O182      1.0  0.52910  0.08880  0.88650  1.0000
  O   O183      1.0  0.52910  0.16120  0.36350  1.0000
  O   O184      1.0  0.72090  0.08880  0.36350  1.0000
  O   O185      1.0  0.22090  0.66120  0.88650  1.0000
  O   O186      1.0  0.02910  0.58880  0.88650  1.0000
  O   O187      1.0  0.02910  0.66120  0.36350  1.0000
  O   O188      1.0  0.22090  0.58880  0.36350  1.0000
  O   O189      1.0  0.22090  0.16120  0.38650  1.0000
  O   O190      1.0  0.02910  0.08880  0.38650  1.0000
  O   O191      1.0  0.02910  0.16120  0.86350  1.0000
  O   O192      1.0  0.22090  0.08880  0.86350  1.0000
  C   C1        1.0  0.17640  0.19120  0.84150  1.0000
  C   C2        1.0  0.57360  0.55880  0.84150  1.0000
  C   C3        1.0  0.57360  0.19120  0.90850  1.0000
  C   C4        1.0  0.17640  0.55880  0.90850  1.0000
  C   C5        1.0  0.17640  0.69120  0.34150  1.0000
  C   C6        1.0  0.57360  0.05880  0.34150  1.0000
  C   C7        1.0  0.57360  0.69120  0.40850  1.0000
  C   C8        1.0  0.17640  0.05880  0.40850  1.0000
  C   C9        1.0  0.67640  0.19120  0.34150  1.0000
  C   C10       1.0  0.07360  0.55880  0.34150  1.0000
  C   C11       1.0  0.07360  0.19120  0.40850  1.0000
  C   C12       1.0  0.67640  0.55880  0.40850  1.0000
  C   C13       1.0  0.67640  0.69120  0.84150  1.0000
  C   C14       1.0  0.07360  0.05880  0.84150  1.0000
  C   C15       1.0  0.07360  0.69120  0.90850  1.0000
  C   C16       1.0  0.67640  0.05880  0.90850  1.0000
  C   C17       1.0  0.82360  0.80880  0.15850  1.0000
  C   C18       1.0  0.42640  0.44120  0.15850  1.0000
  C   C19       1.0  0.42640  0.80880  0.09150  1.0000
  C   C20       1.0  0.82360  0.44120  0.09150  1.0000
  C   C21       1.0  0.82360  0.30880  0.65850  1.0000
  C   C22       1.0  0.42640  0.94120  0.65850  1.0000
  C   C23       1.0  0.42640  0.30880  0.59150  1.0000
  C   C24       1.0  0.82360  0.94120  0.59150  1.0000
  C   C25       1.0  0.32360  0.80880  0.65850  1.0000
  C   C26       1.0  0.92640  0.44120  0.65850  1.0000
  C   C27       1.0  0.92640  0.80880  0.59150  1.0000
  C   C28       1.0  0.32360  0.44120  0.59150  1.0000
  C   C29       1.0  0.32360  0.30880  0.15850  1.0000
  C   C30       1.0  0.92640  0.94120  0.15850  1.0000
  C   C31       1.0  0.92640  0.30880  0.09150  1.0000
  C   C32       1.0  0.32360  0.94120  0.09150  1.0000
  C   C33       1.0  0.26000  0.29020  0.82760  1.0000
  C   C34       1.0  0.49000  0.45980  0.82760  1.0000
  C   C35       1.0  0.49000  0.29020  0.92240  1.0000
  C   C36       1.0  0.26000  0.45980  0.92240  1.0000
  C   C37       1.0  0.26000  0.79020  0.32760  1.0000
  C   C38       1.0  0.49000  0.95980  0.32760  1.0000
  C   C39       1.0  0.49000  0.79020  0.42240  1.0000
  C   C40       1.0  0.26000  0.95980  0.42240  1.0000
  C   C41       1.0  0.76000  0.29020  0.32760  1.0000
  C   C42       1.0  0.99000  0.45980  0.32760  1.0000
  C   C43       1.0  0.99000  0.29020  0.42240  1.0000
  C   C44       1.0  0.76000  0.45980  0.42240  1.0000
  C   C45       1.0  0.76000  0.79020  0.82760  1.0000
  C   C46       1.0  0.99000  0.95980  0.82760  1.0000
  C   C47       1.0  0.99000  0.79020  0.92240  1.0000
  C   C48       1.0  0.76000  0.95980  0.92240  1.0000
  C   C49       1.0  0.74000  0.70980  0.17240  1.0000
  C   C50       1.0  0.51000  0.54020  0.17240  1.0000
  C   C51       1.0  0.51000  0.70980  0.07760  1.0000
  C   C52       1.0  0.74000  0.54020  0.07760  1.0000
  C   C53       1.0  0.74000  0.20980  0.67240  1.0000
  C   C54       1.0  0.51000  0.04020  0.67240  1.0000
  C   C55       1.0  0.51000  0.20980  0.57760  1.0000
  C   C56       1.0  0.74000  0.04020  0.57760  1.0000
  C   C57       1.0  0.24000  0.70980  0.67240  1.0000
  C   C58       1.0  0.01000  0.54020  0.67240  1.0000
  C   C59       1.0  0.01000  0.70980  0.57760  1.0000
  C   C60       1.0  0.24000  0.54020  0.57760  1.0000
  C   C61       1.0  0.24000  0.20980  0.17240  1.0000
  C   C62       1.0  0.01000  0.04020  0.17240  1.0000
  C   C63       1.0  0.01000  0.20980  0.07760  1.0000
  C   C64       1.0  0.24000  0.04020  0.07760  1.0000
  C   C65       1.0  0.24830  0.30100  0.70680  1.0000
  C   C66       1.0  0.50170  0.44900  0.70680  1.0000
  C   C67       1.0  0.50170  0.30100  0.04320  1.0000
  C   C68       1.0  0.24830  0.44900  0.04320  1.0000
  C   C69       1.0  0.24830  0.80100  0.20680  1.0000
  C   C70       1.0  0.50170  0.94900  0.20680  1.0000
  C   C71       1.0  0.50170  0.80100  0.54320  1.0000
  C   C72       1.0  0.24830  0.94900  0.54320  1.0000
  C   C73       1.0  0.74830  0.30100  0.20680  1.0000
  C   C74       1.0  0.00170  0.44900  0.20680  1.0000
  C   C75       1.0  0.00170  0.30100  0.54320  1.0000
  C   C76       1.0  0.74830  0.44900  0.54320  1.0000
  C   C77       1.0  0.74830  0.80100  0.70680  1.0000
  C   C78       1.0  0.00170  0.94900  0.70680  1.0000
  C   C79       1.0  0.00170  0.80100  0.04320  1.0000
  C   C80       1.0  0.74830  0.94900  0.04320  1.0000
  C   C81       1.0  0.75170  0.69900  0.29320  1.0000
  C   C82       1.0  0.49830  0.55100  0.29320  1.0000
  C   C83       1.0  0.49830  0.69900  0.95680  1.0000
  C   C84       1.0  0.75170  0.55100  0.95680  1.0000
  C   C85       1.0  0.75170  0.19900  0.79320  1.0000
  C   C86       1.0  0.49830  0.05100  0.79320  1.0000
  C   C87       1.0  0.49830  0.19900  0.45680  1.0000
  C   C88       1.0  0.75170  0.05100  0.45680  1.0000
  C   C89       1.0  0.25170  0.69900  0.79320  1.0000
  C   C90       1.0  0.99830  0.55100  0.79320  1.0000
  C   C91       1.0  0.99830  0.69900  0.45680  1.0000
  C   C92       1.0  0.25170  0.55100  0.45680  1.0000
  C   C93       1.0  0.25170  0.19900  0.29320  1.0000
  C   C94       1.0  0.99830  0.05100  0.29320  1.0000
  C   C95       1.0  0.99830  0.19900  0.95680  1.0000
  C   C96       1.0  0.25170  0.05100  0.95680  1.0000
  H   H1        1.0  0.28320  0.30880  0.71800  1.0000
  H   H2        1.0  0.46680  0.44120  0.71800  1.0000
  H   H3        1.0  0.46680  0.30880  0.03200  1.0000
  H   H4        1.0  0.28320  0.44120  0.03200  1.0000
  H   H5        1.0  0.28320  0.80880  0.21800  1.0000
  H   H6        1.0  0.46680  0.94120  0.21800  1.0000
  H   H7        1.0  0.46680  0.80880  0.53200  1.0000
  H   H8        1.0  0.28320  0.94120  0.53200  1.0000
  H   H9        1.0  0.78320  0.30880  0.21800  1.0000
  H   H10       1.0  0.96680  0.44120  0.21800  1.0000
  H   H11       1.0  0.96680  0.30880  0.53200  1.0000
  H   H12       1.0  0.78320  0.44120  0.53200  1.0000
  H   H13       1.0  0.78320  0.80880  0.71800  1.0000
  H   H14       1.0  0.96680  0.94120  0.71800  1.0000
  H   H15       1.0  0.96680  0.80880  0.03200  1.0000
  H   H16       1.0  0.78320  0.94120  0.03200  1.0000
  H   H17       1.0  0.71680  0.69120  0.28200  1.0000
  H   H18       1.0  0.53320  0.55880  0.28200  1.0000
  H   H19       1.0  0.53320  0.69120  0.96800  1.0000
  H   H20       1.0  0.71680  0.55880  0.96800  1.0000
  H   H21       1.0  0.71680  0.19120  0.78200  1.0000
  H   H22       1.0  0.53320  0.05880  0.78200  1.0000
  H   H23       1.0  0.53320  0.19120  0.46800  1.0000
  H   H24       1.0  0.71680  0.05880  0.46800  1.0000
  H   H25       1.0  0.21680  0.69120  0.78200  1.0000
  H   H26       1.0  0.03320  0.55880  0.78200  1.0000
  H   H27       1.0  0.03320  0.69120  0.46800  1.0000
  H   H28       1.0  0.21680  0.55880  0.46800  1.0000
  H   H29       1.0  0.21680  0.19120  0.28200  1.0000
  H   H30       1.0  0.03320  0.05880  0.28200  1.0000
  H   H31       1.0  0.03320  0.19120  0.96800  1.0000
  H   H32       1.0  0.21680  0.05880  0.96800  1.0000
  C   C97       1.0  0.23660  0.25540  0.84430  1.0000
  C   C98       1.0  0.51340  0.49460  0.84430  1.0000
  C   C99       1.0  0.51340  0.25540  0.90570  1.0000
  C   C100      1.0  0.23660  0.49460  0.90570  1.0000
  C   C101      1.0  0.23660  0.75540  0.34430  1.0000
  C   C102      1.0  0.51340  0.99460  0.34430  1.0000
  C   C103      1.0  0.51340  0.75540  0.40570  1.0000
  C   C104      1.0  0.23660  0.99460  0.40570  1.0000
  C   C105      1.0  0.73660  0.25540  0.34430  1.0000
  C   C106      1.0  0.01340  0.49460  0.34430  1.0000
  C   C107      1.0  0.01340  0.25540  0.40570  1.0000
  C   C108      1.0  0.73660  0.49460  0.40570  1.0000
  C   C109      1.0  0.73660  0.75540  0.84430  1.0000
  C   C110      1.0  0.01340  0.99460  0.84430  1.0000
  C   C111      1.0  0.01340  0.75540  0.90570  1.0000
  C   C112      1.0  0.73660  0.99460  0.90570  1.0000
  C   C113      1.0  0.76340  0.74460  0.15570  1.0000
  C   C114      1.0  0.48660  0.50540  0.15570  1.0000
  C   C115      1.0  0.48660  0.74460  0.09430  1.0000
  C   C116      1.0  0.76340  0.50540  0.09430  1.0000
  C   C117      1.0  0.76340  0.24460  0.65570  1.0000
  C   C118      1.0  0.48660  0.00540  0.65570  1.0000
  C   C119      1.0  0.48660  0.24460  0.59430  1.0000
  C   C120      1.0  0.76340  0.00540  0.59430  1.0000
  C   C121      1.0  0.26340  0.74460  0.65570  1.0000
  C   C122      1.0  0.98660  0.50540  0.65570  1.0000
  C   C123      1.0  0.98660  0.74460  0.59430  1.0000
  C   C124      1.0  0.26340  0.50540  0.59430  1.0000
  C   C125      1.0  0.26340  0.24460  0.15570  1.0000
  C   C126      1.0  0.98660  0.00540  0.15570  1.0000
  C   C127      1.0  0.98660  0.24460  0.09430  1.0000
  C   C128      1.0  0.26340  0.00540  0.09430  1.0000
  H   H33       1.0  0.24410  0.24980  0.86950  1.0000
  H   H34       1.0  0.50590  0.50020  0.86950  1.0000
  H   H35       1.0  0.50590  0.24980  0.88050  1.0000
  H   H36       1.0  0.24410  0.50020  0.88050  1.0000
  H   H37       1.0  0.24410  0.74980  0.36950  1.0000
  H   H38       1.0  0.50590  0.00020  0.36950  1.0000
  H   H39       1.0  0.50590  0.74980  0.38050  1.0000
  H   H40       1.0  0.24410  0.00020  0.38050  1.0000
  H   H41       1.0  0.74410  0.24980  0.36950  1.0000
  H   H42       1.0  0.00590  0.50020  0.36950  1.0000
  H   H43       1.0  0.00590  0.24980  0.38050  1.0000
  H   H44       1.0  0.74410  0.50020  0.38050  1.0000
  H   H45       1.0  0.74410  0.74980  0.86950  1.0000
  H   H46       1.0  0.00590  0.00020  0.86950  1.0000
  H   H47       1.0  0.00590  0.74980  0.88050  1.0000
  H   H48       1.0  0.74410  0.00020  0.88050  1.0000
  H   H49       1.0  0.75590  0.75020  0.13050  1.0000
  H   H50       1.0  0.49410  0.49980  0.13050  1.0000
  H   H51       1.0  0.49410  0.75020  0.11950  1.0000
  H   H52       1.0  0.75590  0.49980  0.11950  1.0000
  H   H53       1.0  0.75590  0.25020  0.63050  1.0000
  H   H54       1.0  0.49410  0.99980  0.63050  1.0000
  H   H55       1.0  0.49410  0.25020  0.61950  1.0000
  H   H56       1.0  0.75590  0.99980  0.61950  1.0000
  H   H57       1.0  0.25590  0.75020  0.63050  1.0000
  H   H58       1.0  0.99410  0.49980  0.63050  1.0000
  H   H59       1.0  0.99410  0.75020  0.61950  1.0000
  H   H60       1.0  0.25590  0.49980  0.61950  1.0000
  H   H61       1.0  0.25590  0.25020  0.13050  1.0000
  H   H62       1.0  0.99410  0.99980  0.13050  1.0000
  H   H63       1.0  0.99410  0.25020  0.11950  1.0000
  H   H64       1.0  0.25590  0.99980  0.11950  1.0000
  C   C129      1.0  0.20240  0.22900  0.82370  1.0000
  C   C130      1.0  0.54760  0.52100  0.82370  1.0000
  C   C131      1.0  0.54760  0.22900  0.92630  1.0000
  C   C132      1.0  0.20240  0.52100  0.92630  1.0000
  C   C133      1.0  0.20240  0.72900  0.32370  1.0000
  C   C134      1.0  0.54760  0.02100  0.32370  1.0000
  C   C135      1.0  0.54760  0.72900  0.42630  1.0000
  C   C136      1.0  0.20240  0.02100  0.42630  1.0000
  C   C137      1.0  0.70240  0.22900  0.32370  1.0000
  C   C138      1.0  0.04760  0.52100  0.32370  1.0000
  C   C139      1.0  0.04760  0.22900  0.42630  1.0000
  C   C140      1.0  0.70240  0.52100  0.42630  1.0000
  C   C141      1.0  0.70240  0.72900  0.82370  1.0000
  C   C142      1.0  0.04760  0.02100  0.82370  1.0000
  C   C143      1.0  0.04760  0.72900  0.92630  1.0000
  C   C144      1.0  0.70240  0.02100  0.92630  1.0000
  C   C145      1.0  0.79760  0.77100  0.17630  1.0000
  C   C146      1.0  0.45240  0.47900  0.17630  1.0000
  C   C147      1.0  0.45240  0.77100  0.07370  1.0000
  C   C148      1.0  0.79760  0.47900  0.07370  1.0000
  C   C149      1.0  0.79760  0.27100  0.67630  1.0000
  C   C150      1.0  0.45240  0.97900  0.67630  1.0000
  C   C151      1.0  0.45240  0.27100  0.57370  1.0000
  C   C152      1.0  0.79760  0.97900  0.57370  1.0000
  C   C153      1.0  0.29760  0.77100  0.67630  1.0000
  C   C154      1.0  0.95240  0.47900  0.67630  1.0000
  C   C155      1.0  0.95240  0.77100  0.57370  1.0000
  C   C156      1.0  0.29760  0.47900  0.57370  1.0000
  C   C157      1.0  0.29760  0.27100  0.17630  1.0000
  C   C158      1.0  0.95240  0.97900  0.17630  1.0000
  C   C159      1.0  0.95240  0.27100  0.07370  1.0000
  C   C160      1.0  0.29760  0.97900  0.07370  1.0000
  C   C161      1.0  0.29970  0.31940  0.84880  1.0000
  C   C162      1.0  0.45030  0.43060  0.84880  1.0000
  C   C163      1.0  0.45030  0.31940  0.90120  1.0000
  C   C164      1.0  0.29970  0.43060  0.90120  1.0000
  C   C165      1.0  0.29970  0.81940  0.34880  1.0000
  C   C166      1.0  0.45030  0.93060  0.34880  1.0000
  C   C167      1.0  0.45030  0.81940  0.40120  1.0000
  C   C168      1.0  0.29970  0.93060  0.40120  1.0000
  C   C169      1.0  0.79970  0.31940  0.34880  1.0000
  C   C170      1.0  0.95030  0.43060  0.34880  1.0000
  C   C171      1.0  0.95030  0.31940  0.40120  1.0000
  C   C172      1.0  0.79970  0.43060  0.40120  1.0000
  C   C173      1.0  0.79970  0.81940  0.84880  1.0000
  C   C174      1.0  0.95030  0.93060  0.84880  1.0000
  C   C175      1.0  0.95030  0.81940  0.90120  1.0000
  C   C176      1.0  0.79970  0.93060  0.90120  1.0000
  C   C177      1.0  0.70030  0.68060  0.15120  1.0000
  C   C178      1.0  0.54970  0.56940  0.15120  1.0000
  C   C179      1.0  0.54970  0.68060  0.09880  1.0000
  C   C180      1.0  0.70030  0.56940  0.09880  1.0000
  C   C181      1.0  0.70030  0.18060  0.65120  1.0000
  C   C182      1.0  0.54970  0.06940  0.65120  1.0000
  C   C183      1.0  0.54970  0.18060  0.59880  1.0000
  C   C184      1.0  0.70030  0.06940  0.59880  1.0000
  C   C185      1.0  0.20030  0.68060  0.65120  1.0000
  C   C186      1.0  0.04970  0.56940  0.65120  1.0000
  C   C187      1.0  0.04970  0.68060  0.59880  1.0000
  C   C188      1.0  0.20030  0.56940  0.59880  1.0000
  C   C189      1.0  0.20030  0.18060  0.15120  1.0000
  C   C190      1.0  0.04970  0.06940  0.15120  1.0000
  C   C191      1.0  0.04970  0.18060  0.09880  1.0000
  C   C192      1.0  0.20030  0.06940  0.09880  1.0000
  C   C193      1.0  0.21590  0.27160  0.76820  1.0000
  C   C194      1.0  0.53410  0.47840  0.76820  1.0000
  C   C195      1.0  0.53410  0.27160  0.98180  1.0000
  C   C196      1.0  0.21590  0.47840  0.98180  1.0000
  C   C197      1.0  0.21590  0.77160  0.26820  1.0000
  C   C198      1.0  0.53410  0.97840  0.26820  1.0000
  C   C199      1.0  0.53410  0.77160  0.48180  1.0000
  C   C200      1.0  0.21590  0.97840  0.48180  1.0000
  C   C201      1.0  0.71590  0.27160  0.26820  1.0000
  C   C202      1.0  0.03410  0.47840  0.26820  1.0000
  C   C203      1.0  0.03410  0.27160  0.48180  1.0000
  C   C204      1.0  0.71590  0.47840  0.48180  1.0000
  C   C205      1.0  0.71590  0.77160  0.76820  1.0000
  C   C206      1.0  0.03410  0.97840  0.76820  1.0000
  C   C207      1.0  0.03410  0.77160  0.98180  1.0000
  C   C208      1.0  0.71590  0.97840  0.98180  1.0000
  C   C209      1.0  0.78410  0.72840  0.23180  1.0000
  C   C210      1.0  0.46590  0.52160  0.23180  1.0000
  C   C211      1.0  0.46590  0.72840  0.01820  1.0000
  C   C212      1.0  0.78410  0.52160  0.01820  1.0000
  C   C213      1.0  0.78410  0.22840  0.73180  1.0000
  C   C214      1.0  0.46590  0.02160  0.73180  1.0000
  C   C215      1.0  0.46590  0.22840  0.51820  1.0000
  C   C216      1.0  0.78410  0.02160  0.51820  1.0000
  C   C217      1.0  0.28410  0.72840  0.73180  1.0000
  C   C218      1.0  0.96590  0.52160  0.73180  1.0000
  C   C219      1.0  0.96590  0.72840  0.51820  1.0000
  C   C220      1.0  0.28410  0.52160  0.51820  1.0000
  C   C221      1.0  0.28410  0.22840  0.23180  1.0000
  C   C222      1.0  0.96590  0.02160  0.23180  1.0000
  C   C223      1.0  0.96590  0.22840  0.01820  1.0000
  C   C224      1.0  0.28410  0.02160  0.01820  1.0000
  C   C225      1.0  0.28540  0.33220  0.64710  1.0000
  C   C226      1.0  0.46460  0.41780  0.64710  1.0000
  C   C227      1.0  0.46460  0.33220  0.10290  1.0000
  C   C228      1.0  0.28540  0.41780  0.10290  1.0000
  C   C229      1.0  0.28540  0.83220  0.14710  1.0000
  C   C230      1.0  0.46460  0.91780  0.14710  1.0000
  C   C231      1.0  0.46460  0.83220  0.60290  1.0000
  C   C232      1.0  0.28540  0.91780  0.60290  1.0000
  C   C233      1.0  0.78540  0.33220  0.14710  1.0000
  C   C234      1.0  0.96460  0.41780  0.14710  1.0000
  C   C235      1.0  0.96460  0.33220  0.60290  1.0000
  C   C236      1.0  0.78540  0.41780  0.60290  1.0000
  C   C237      1.0  0.78540  0.83220  0.64710  1.0000
  C   C238      1.0  0.96460  0.91780  0.64710  1.0000
  C   C239      1.0  0.96460  0.83220  0.10290  1.0000
  C   C240      1.0  0.78540  0.91780  0.10290  1.0000
  C   C241      1.0  0.71460  0.66780  0.35290  1.0000
  C   C242      1.0  0.53540  0.58220  0.35290  1.0000
  C   C243      1.0  0.53540  0.66780  0.89710  1.0000
  C   C244      1.0  0.71460  0.58220  0.89710  1.0000
  C   C245      1.0  0.71460  0.16780  0.85290  1.0000
  C   C246      1.0  0.53540  0.08220  0.85290  1.0000
  C   C247      1.0  0.53540  0.16780  0.39710  1.0000
  C   C248      1.0  0.71460  0.08220  0.39710  1.0000
  C   C249      1.0  0.21460  0.66780  0.85290  1.0000
  C   C250      1.0  0.03540  0.58220  0.85290  1.0000
  C   C251      1.0  0.03540  0.66780  0.39710  1.0000
  C   C252      1.0  0.21460  0.58220  0.39710  1.0000
  C   C253      1.0  0.21460  0.16780  0.35290  1.0000
  C   C254      1.0  0.03540  0.08220  0.35290  1.0000
  C   C255      1.0  0.03540  0.16780  0.89710  1.0000
  C   C256      1.0  0.21460  0.08220  0.89710  1.0000
  C   C257      1.0  0.19270  0.23640  0.78570  1.0000
  C   C258      1.0  0.55730  0.51360  0.78570  1.0000
  C   C259      1.0  0.55730  0.23640  0.96430  1.0000
  C   C260      1.0  0.19270  0.51360  0.96430  1.0000
  C   C261      1.0  0.19270  0.73640  0.28570  1.0000
  C   C262      1.0  0.55730  0.01360  0.28570  1.0000
  C   C263      1.0  0.55730  0.73640  0.46430  1.0000
  C   C264      1.0  0.19270  0.01360  0.46430  1.0000
  C   C265      1.0  0.69270  0.23640  0.28570  1.0000
  C   C266      1.0  0.05730  0.51360  0.28570  1.0000
  C   C267      1.0  0.05730  0.23640  0.46430  1.0000
  C   C268      1.0  0.69270  0.51360  0.46430  1.0000
  C   C269      1.0  0.69270  0.73640  0.78570  1.0000
  C   C270      1.0  0.05730  0.01360  0.78570  1.0000
  C   C271      1.0  0.05730  0.73640  0.96430  1.0000
  C   C272      1.0  0.69270  0.01360  0.96430  1.0000
  C   C273      1.0  0.80730  0.76360  0.21430  1.0000
  C   C274      1.0  0.44270  0.48640  0.21430  1.0000
  C   C275      1.0  0.44270  0.76360  0.03570  1.0000
  C   C276      1.0  0.80730  0.48640  0.03570  1.0000
  C   C277      1.0  0.80730  0.26360  0.71430  1.0000
  C   C278      1.0  0.44270  0.98640  0.71430  1.0000
  C   C279      1.0  0.44270  0.26360  0.53570  1.0000
  C   C280      1.0  0.80730  0.98640  0.53570  1.0000
  C   C281      1.0  0.30730  0.76360  0.71430  1.0000
  C   C282      1.0  0.94270  0.48640  0.71430  1.0000
  C   C283      1.0  0.94270  0.76360  0.53570  1.0000
  C   C284      1.0  0.30730  0.48640  0.53570  1.0000
  C   C285      1.0  0.30730  0.26360  0.21430  1.0000
  C   C286      1.0  0.94270  0.98640  0.21430  1.0000
  C   C287      1.0  0.94270  0.26360  0.03570  1.0000
  C   C288      1.0  0.30730  0.98640  0.03570  1.0000
  H   H65       1.0  0.17060  0.21770  0.77170  1.0000
  H   H66       1.0  0.57940  0.53230  0.77170  1.0000
  H   H67       1.0  0.57940  0.21770  0.97830  1.0000
  H   H68       1.0  0.17060  0.53230  0.97830  1.0000
  H   H69       1.0  0.17060  0.71770  0.27170  1.0000
  H   H70       1.0  0.57940  0.03230  0.27170  1.0000
  H   H71       1.0  0.57940  0.71770  0.47830  1.0000
  H   H72       1.0  0.17060  0.03230  0.47830  1.0000
  H   H73       1.0  0.67060  0.21770  0.27170  1.0000
  H   H74       1.0  0.07940  0.53230  0.27170  1.0000
  H   H75       1.0  0.07940  0.21770  0.47830  1.0000
  H   H76       1.0  0.67060  0.53230  0.47830  1.0000
  H   H77       1.0  0.67060  0.71770  0.77170  1.0000
  H   H78       1.0  0.07940  0.03230  0.77170  1.0000
  H   H79       1.0  0.07940  0.71770  0.97830  1.0000
  H   H80       1.0  0.67060  0.03230  0.97830  1.0000
  H   H81       1.0  0.82940  0.78230  0.22830  1.0000
  H   H82       1.0  0.42060  0.46770  0.22830  1.0000
  H   H83       1.0  0.42060  0.78230  0.02170  1.0000
  H   H84       1.0  0.82940  0.46770  0.02170  1.0000
  H   H85       1.0  0.82940  0.28230  0.72830  1.0000
  H   H86       1.0  0.42060  0.96770  0.72830  1.0000
  H   H87       1.0  0.42060  0.28230  0.52170  1.0000
  H   H88       1.0  0.82940  0.96770  0.52170  1.0000
  H   H89       1.0  0.32940  0.78230  0.72830  1.0000
  H   H90       1.0  0.92060  0.46770  0.72830  1.0000
  H   H91       1.0  0.92060  0.78230  0.52170  1.0000
  H   H92       1.0  0.32940  0.46770  0.52170  1.0000
  H   H93       1.0  0.32940  0.28230  0.22830  1.0000
  H   H94       1.0  0.92060  0.96770  0.22830  1.0000
  H   H95       1.0  0.92060  0.28230  0.02170  1.0000
  H   H96       1.0  0.32940  0.96770  0.02170  1.0000
  C   C289      1.0  0.23840  0.31010  0.66950  1.0000
  C   C290      1.0  0.51160  0.43990  0.66950  1.0000
  C   C291      1.0  0.51160  0.31010  0.08050  1.0000
  C   C292      1.0  0.23840  0.43990  0.08050  1.0000
  C   C293      1.0  0.23840  0.81010  0.16950  1.0000
  C   C294      1.0  0.51160  0.93990  0.16950  1.0000
  C   C295      1.0  0.51160  0.81010  0.58050  1.0000
  C   C296      1.0  0.23840  0.93990  0.58050  1.0000
  C   C297      1.0  0.73840  0.31010  0.16950  1.0000
  C   C298      1.0  0.01160  0.43990  0.16950  1.0000
  C   C299      1.0  0.01160  0.31010  0.58050  1.0000
  C   C300      1.0  0.73840  0.43990  0.58050  1.0000
  C   C301      1.0  0.73840  0.81010  0.66950  1.0000
  C   C302      1.0  0.01160  0.93990  0.66950  1.0000
  C   C303      1.0  0.01160  0.81010  0.08050  1.0000
  C   C304      1.0  0.73840  0.93990  0.08050  1.0000
  C   C305      1.0  0.76160  0.68990  0.33050  1.0000
  C   C306      1.0  0.48840  0.56010  0.33050  1.0000
  C   C307      1.0  0.48840  0.68990  0.91950  1.0000
  C   C308      1.0  0.76160  0.56010  0.91950  1.0000
  C   C309      1.0  0.76160  0.18990  0.83050  1.0000
  C   C310      1.0  0.48840  0.06010  0.83050  1.0000
  C   C311      1.0  0.48840  0.18990  0.41950  1.0000
  C   C312      1.0  0.76160  0.06010  0.41950  1.0000
  C   C313      1.0  0.26160  0.68990  0.83050  1.0000
  C   C314      1.0  0.98840  0.56010  0.83050  1.0000
  C   C315      1.0  0.98840  0.68990  0.41950  1.0000
  C   C316      1.0  0.26160  0.56010  0.41950  1.0000
  C   C317      1.0  0.26160  0.18990  0.33050  1.0000
  C   C318      1.0  0.98840  0.06010  0.33050  1.0000
  C   C319      1.0  0.98840  0.18990  0.91950  1.0000
  C   C320      1.0  0.26160  0.06010  0.91950  1.0000
  C   C321      1.0  0.20710  0.28050  0.72770  1.0000
  C   C322      1.0  0.54290  0.46950  0.72770  1.0000
  C   C323      1.0  0.54290  0.28050  0.02230  1.0000
  C   C324      1.0  0.20710  0.46950  0.02230  1.0000
  C   C325      1.0  0.20710  0.78050  0.22770  1.0000
  C   C326      1.0  0.54290  0.96950  0.22770  1.0000
  C   C327      1.0  0.54290  0.78050  0.52230  1.0000
  C   C328      1.0  0.20710  0.96950  0.52230  1.0000
  C   C329      1.0  0.70710  0.28050  0.22770  1.0000
  C   C330      1.0  0.04290  0.46950  0.22770  1.0000
  C   C331      1.0  0.04290  0.28050  0.52230  1.0000
  C   C332      1.0  0.70710  0.46950  0.52230  1.0000
  C   C333      1.0  0.70710  0.78050  0.72770  1.0000
  C   C334      1.0  0.04290  0.96950  0.72770  1.0000
  C   C335      1.0  0.04290  0.78050  0.02230  1.0000
  C   C336      1.0  0.70710  0.96950  0.02230  1.0000
  C   C337      1.0  0.79290  0.71950  0.27230  1.0000
  C   C338      1.0  0.45710  0.53050  0.27230  1.0000
  C   C339      1.0  0.45710  0.71950  0.97770  1.0000
  C   C340      1.0  0.79290  0.53050  0.97770  1.0000
  C   C341      1.0  0.79290  0.21950  0.77230  1.0000
  C   C342      1.0  0.45710  0.03050  0.77230  1.0000
  C   C343      1.0  0.45710  0.21950  0.47770  1.0000
  C   C344      1.0  0.79290  0.03050  0.47770  1.0000
  C   C345      1.0  0.29290  0.71950  0.77230  1.0000
  C   C346      1.0  0.95710  0.53050  0.77230  1.0000
  C   C347      1.0  0.95710  0.71950  0.47770  1.0000
  C   C348      1.0  0.29290  0.53050  0.47770  1.0000
  C   C349      1.0  0.29290  0.21950  0.27230  1.0000
  C   C350      1.0  0.95710  0.03050  0.27230  1.0000
  C   C351      1.0  0.95710  0.21950  0.97770  1.0000
  C   C352      1.0  0.29290  0.03050  0.97770  1.0000
  C   C353      1.0  0.18760  0.29650  0.65370  1.0000
  C   C354      1.0  0.56240  0.45350  0.65370  1.0000
  C   C355      1.0  0.56240  0.29650  0.09630  1.0000
  C   C356      1.0  0.18760  0.45350  0.09630  1.0000
  C   C357      1.0  0.18760  0.79650  0.15370  1.0000
  C   C358      1.0  0.56240  0.95350  0.15370  1.0000
  C   C359      1.0  0.56240  0.79650  0.59630  1.0000
  C   C360      1.0  0.18760  0.95350  0.59630  1.0000
  C   C361      1.0  0.68760  0.29650  0.15370  1.0000
  C   C362      1.0  0.06240  0.45350  0.15370  1.0000
  C   C363      1.0  0.06240  0.29650  0.59630  1.0000
  C   C364      1.0  0.68760  0.45350  0.59630  1.0000
  C   C365      1.0  0.68760  0.79650  0.65370  1.0000
  C   C366      1.0  0.06240  0.95350  0.65370  1.0000
  C   C367      1.0  0.06240  0.79650  0.09630  1.0000
  C   C368      1.0  0.68760  0.95350  0.09630  1.0000
  C   C369      1.0  0.81240  0.70350  0.34630  1.0000
  C   C370      1.0  0.43760  0.54650  0.34630  1.0000
  C   C371      1.0  0.43760  0.70350  0.90370  1.0000
  C   C372      1.0  0.81240  0.54650  0.90370  1.0000
  C   C373      1.0  0.81240  0.20350  0.84630  1.0000
  C   C374      1.0  0.43760  0.04650  0.84630  1.0000
  C   C375      1.0  0.43760  0.20350  0.40370  1.0000
  C   C376      1.0  0.81240  0.04650  0.40370  1.0000
  C   C377      1.0  0.31240  0.70350  0.84630  1.0000
  C   C378      1.0  0.93760  0.54650  0.84630  1.0000
  C   C379      1.0  0.93760  0.70350  0.40370  1.0000
  C   C380      1.0  0.31240  0.54650  0.40370  1.0000
  C   C381      1.0  0.31240  0.20350  0.34630  1.0000
  C   C382      1.0  0.93760  0.04650  0.34630  1.0000
  C   C383      1.0  0.93760  0.20350  0.90370  1.0000
  C   C384      1.0  0.31240  0.04650  0.90370  1.0000
  H   H97       1.0  0.18170  0.30110  0.62820  1.0000
  H   H98       1.0  0.56830  0.44890  0.62820  1.0000
  H   H99       1.0  0.56830  0.30110  0.12180  1.0000
  H   H100      1.0  0.18170  0.44890  0.12180  1.0000
  H   H101      1.0  0.18170  0.80110  0.12820  1.0000
  H   H102      1.0  0.56830  0.94890  0.12820  1.0000
  H   H103      1.0  0.56830  0.80110  0.62180  1.0000
  H   H104      1.0  0.18170  0.94890  0.62180  1.0000
  H   H105      1.0  0.68170  0.30110  0.12820  1.0000
  H   H106      1.0  0.06830  0.44890  0.12820  1.0000
  H   H107      1.0  0.06830  0.30110  0.62180  1.0000
  H   H108      1.0  0.68170  0.44890  0.62180  1.0000
  H   H109      1.0  0.68170  0.80110  0.62820  1.0000
  H   H110      1.0  0.06830  0.94890  0.62820  1.0000
  H   H111      1.0  0.06830  0.80110  0.12180  1.0000
  H   H112      1.0  0.68170  0.94890  0.12180  1.0000
  H   H113      1.0  0.81830  0.69890  0.37180  1.0000
  H   H114      1.0  0.43170  0.55110  0.37180  1.0000
  H   H115      1.0  0.43170  0.69890  0.87820  1.0000
  H   H116      1.0  0.81830  0.55110  0.87820  1.0000
  H   H117      1.0  0.81830  0.19890  0.87180  1.0000
  H   H118      1.0  0.43170  0.05110  0.87180  1.0000
  H   H119      1.0  0.43170  0.19890  0.37820  1.0000
  H   H120      1.0  0.81830  0.05110  0.37820  1.0000
  H   H121      1.0  0.31830  0.69890  0.87180  1.0000
  H   H122      1.0  0.93170  0.55110  0.87180  1.0000
  H   H123      1.0  0.93170  0.69890  0.37820  1.0000
  H   H124      1.0  0.31830  0.55110  0.37820  1.0000
  H   H125      1.0  0.31830  0.19890  0.37180  1.0000
  H   H126      1.0  0.93170  0.05110  0.37180  1.0000
  H   H127      1.0  0.93170  0.19890  0.87820  1.0000
  H   H128      1.0  0.31830  0.05110  0.87820  1.0000
  N   N1        1.0  0.14580  0.27710  0.67330  1.0000
  N   N2        1.0  0.60420  0.47290  0.67330  1.0000
  N   N3        1.0  0.60420  0.27710  0.07670  1.0000
  N   N4        1.0  0.14580  0.47290  0.07670  1.0000
  N   N5        1.0  0.14580  0.77710  0.17330  1.0000
  N   N6        1.0  0.60420  0.97290  0.17330  1.0000
  N   N7        1.0  0.60420  0.77710  0.57670  1.0000
  N   N8        1.0  0.14580  0.97290  0.57670  1.0000
  N   N9        1.0  0.64580  0.27710  0.17330  1.0000
  N   N10       1.0  0.10420  0.47290  0.17330  1.0000
  N   N11       1.0  0.10420  0.27710  0.57670  1.0000
  N   N12       1.0  0.64580  0.47290  0.57670  1.0000
  N   N13       1.0  0.64580  0.77710  0.67330  1.0000
  N   N14       1.0  0.10420  0.97290  0.67330  1.0000
  N   N15       1.0  0.10420  0.77710  0.07670  1.0000
  N   N16       1.0  0.64580  0.97290  0.07670  1.0000
  N   N17       1.0  0.85420  0.72290  0.32670  1.0000
  N   N18       1.0  0.39580  0.52710  0.32670  1.0000
  N   N19       1.0  0.39580  0.72290  0.92330  1.0000
  N   N20       1.0  0.85420  0.52710  0.92330  1.0000
  N   N21       1.0  0.85420  0.22290  0.82670  1.0000
  N   N22       1.0  0.39580  0.02710  0.82670  1.0000
  N   N23       1.0  0.39580  0.22290  0.42330  1.0000
  N   N24       1.0  0.85420  0.02710  0.42330  1.0000
  N   N25       1.0  0.35420  0.72290  0.82670  1.0000
  N   N26       1.0  0.89580  0.52710  0.82670  1.0000
  N   N27       1.0  0.89580  0.72290  0.42330  1.0000
  N   N28       1.0  0.35420  0.52710  0.42330  1.0000
  N   N29       1.0  0.35420  0.22290  0.32670  1.0000
  N   N30       1.0  0.89580  0.02710  0.32670  1.0000
  N   N31       1.0  0.89580  0.22290  0.92330  1.0000
  N   N32       1.0  0.35420  0.02710  0.92330  1.0000
  C   C385      1.0  0.15580  0.27070  0.70960  1.0000
  C   C386      1.0  0.59420  0.47930  0.70960  1.0000
  C   C387      1.0  0.59420  0.27070  0.04040  1.0000
  C   C388      1.0  0.15580  0.47930  0.04040  1.0000
  C   C389      1.0  0.15580  0.77070  0.20960  1.0000
  C   C390      1.0  0.59420  0.97930  0.20960  1.0000
  C   C391      1.0  0.59420  0.77070  0.54040  1.0000
  C   C392      1.0  0.15580  0.97930  0.54040  1.0000
  C   C393      1.0  0.65580  0.27070  0.20960  1.0000
  C   C394      1.0  0.09420  0.47930  0.20960  1.0000
  C   C395      1.0  0.09420  0.27070  0.54040  1.0000
  C   C396      1.0  0.65580  0.47930  0.54040  1.0000
  C   C397      1.0  0.65580  0.77070  0.70960  1.0000
  C   C398      1.0  0.09420  0.97930  0.70960  1.0000
  C   C399      1.0  0.09420  0.77070  0.04040  1.0000
  C   C400      1.0  0.65580  0.97930  0.04040  1.0000
  C   C401      1.0  0.84420  0.72930  0.29040  1.0000
  C   C402      1.0  0.40580  0.52070  0.29040  1.0000
  C   C403      1.0  0.40580  0.72930  0.95960  1.0000
  C   C404      1.0  0.84420  0.52070  0.95960  1.0000
  C   C405      1.0  0.84420  0.22930  0.79040  1.0000
  C   C406      1.0  0.40580  0.02070  0.79040  1.0000
  C   C407      1.0  0.40580  0.22930  0.45960  1.0000
  C   C408      1.0  0.84420  0.02070  0.45960  1.0000
  C   C409      1.0  0.34420  0.72930  0.79040  1.0000
  C   C410      1.0  0.90580  0.52070  0.79040  1.0000
  C   C411      1.0  0.90580  0.72930  0.45960  1.0000
  C   C412      1.0  0.34420  0.52070  0.45960  1.0000
  C   C413      1.0  0.34420  0.22930  0.29040  1.0000
  C   C414      1.0  0.90580  0.02070  0.29040  1.0000
  C   C415      1.0  0.90580  0.22930  0.95960  1.0000
  C   C416      1.0  0.34420  0.02070  0.95960  1.0000
  H   H129      1.0  0.12610  0.25880  0.72380  1.0000
  H   H130      1.0  0.62390  0.49120  0.72380  1.0000
  H   H131      1.0  0.62390  0.25880  0.02620  1.0000
  H   H132      1.0  0.12610  0.49120  0.02620  1.0000
  H   H133      1.0  0.12610  0.75880  0.22380  1.0000
  H   H134      1.0  0.62390  0.99120  0.22380  1.0000
  H   H135      1.0  0.62390  0.75880  0.52620  1.0000
  H   H136      1.0  0.12610  0.99120  0.52620  1.0000
  H   H137      1.0  0.62610  0.25880  0.22380  1.0000
  H   H138      1.0  0.12390  0.49120  0.22380  1.0000
  H   H139      1.0  0.12390  0.25880  0.52620  1.0000
  H   H140      1.0  0.62610  0.49120  0.52620  1.0000
  H   H141      1.0  0.62610  0.75880  0.72380  1.0000
  H   H142      1.0  0.12390  0.99120  0.72380  1.0000
  H   H143      1.0  0.12390  0.75880  0.02620  1.0000
  H   H144      1.0  0.62610  0.99120  0.02620  1.0000
  H   H145      1.0  0.87390  0.74120  0.27620  1.0000
  H   H146      1.0  0.37610  0.50880  0.27620  1.0000
  H   H147      1.0  0.37610  0.74120  0.97380  1.0000
  H   H148      1.0  0.87390  0.50880  0.97380  1.0000
  H   H149      1.0  0.87390  0.24120  0.77620  1.0000
  H   H150      1.0  0.37610  0.00880  0.77620  1.0000
  H   H151      1.0  0.37610  0.24120  0.47380  1.0000
  H   H152      1.0  0.87390  0.00880  0.47380  1.0000
  H   H153      1.0  0.37390  0.74120  0.77620  1.0000
  H   H154      1.0  0.87610  0.50880  0.77620  1.0000
  H   H155      1.0  0.87610  0.74120  0.47380  1.0000
  H   H156      1.0  0.37390  0.50880  0.47380  1.0000
  H   H157      1.0  0.37390  0.24120  0.27620  1.0000
  H   H158      1.0  0.87610  0.00880  0.27620  1.0000
  H   H159      1.0  0.87610  0.24120  0.97380  1.0000
  H   H160      1.0  0.37390  0.00880  0.97380  1.0000
  C   C417      1.0  0.24990  0.29800  0.78990  1.0000
  C   C418      1.0  0.50010  0.45200  0.78990  1.0000
  C   C419      1.0  0.50010  0.29800  0.96010  1.0000
  C   C420      1.0  0.24990  0.45200  0.96010  1.0000
  C   C421      1.0  0.24990  0.79800  0.28990  1.0000
  C   C422      1.0  0.50010  0.95200  0.28990  1.0000
  C   C423      1.0  0.50010  0.79800  0.46010  1.0000
  C   C424      1.0  0.24990  0.95200  0.46010  1.0000
  C   C425      1.0  0.74990  0.29800  0.28990  1.0000
  C   C426      1.0  0.00010  0.45200  0.28990  1.0000
  C   C427      1.0  0.00010  0.29800  0.46010  1.0000
  C   C428      1.0  0.74990  0.45200  0.46010  1.0000
  C   C429      1.0  0.74990  0.79800  0.78990  1.0000
  C   C430      1.0  0.00010  0.95200  0.78990  1.0000
  C   C431      1.0  0.00010  0.79800  0.96010  1.0000
  C   C432      1.0  0.74990  0.95200  0.96010  1.0000
  C   C433      1.0  0.75010  0.70200  0.21010  1.0000
  C   C434      1.0  0.49990  0.54800  0.21010  1.0000
  C   C435      1.0  0.49990  0.70200  0.03990  1.0000
  C   C436      1.0  0.75010  0.54800  0.03990  1.0000
  C   C437      1.0  0.75010  0.20200  0.71010  1.0000
  C   C438      1.0  0.49990  0.04800  0.71010  1.0000
  C   C439      1.0  0.49990  0.20200  0.53990  1.0000
  C   C440      1.0  0.75010  0.04800  0.53990  1.0000
  C   C441      1.0  0.25010  0.70200  0.71010  1.0000
  C   C442      1.0  0.99990  0.54800  0.71010  1.0000
  C   C443      1.0  0.99990  0.70200  0.53990  1.0000
  C   C444      1.0  0.25010  0.54800  0.53990  1.0000
  C   C445      1.0  0.25010  0.20200  0.21010  1.0000
  C   C446      1.0  0.99990  0.04800  0.21010  1.0000
  C   C447      1.0  0.99990  0.20200  0.03990  1.0000
  C   C448      1.0  0.25010  0.04800  0.03990  1.0000
  H   H161      1.0  0.26630  0.32150  0.77880  1.0000
  H   H162      1.0  0.48370  0.42850  0.77880  1.0000
  H   H163      1.0  0.48370  0.32150  0.97120  1.0000
  H   H164      1.0  0.26630  0.42850  0.97120  1.0000
  H   H165      1.0  0.26630  0.82150  0.27880  1.0000
  H   H166      1.0  0.48370  0.92850  0.27880  1.0000
  H   H167      1.0  0.48370  0.82150  0.47120  1.0000
  H   H168      1.0  0.26630  0.92850  0.47120  1.0000
  H   H169      1.0  0.76630  0.32150  0.27880  1.0000
  H   H170      1.0  0.98370  0.42850  0.27880  1.0000
  H   H171      1.0  0.98370  0.32150  0.47120  1.0000
  H   H172      1.0  0.76630  0.42850  0.47120  1.0000
  H   H173      1.0  0.76630  0.82150  0.77880  1.0000
  H   H174      1.0  0.98370  0.92850  0.77880  1.0000
  H   H175      1.0  0.98370  0.82150  0.97120  1.0000
  H   H176      1.0  0.76630  0.92850  0.97120  1.0000
  H   H177      1.0  0.73370  0.67850  0.22120  1.0000
  H   H178      1.0  0.51630  0.57150  0.22120  1.0000
  H   H179      1.0  0.51630  0.67850  0.02880  1.0000
  H   H180      1.0  0.73370  0.57150  0.02880  1.0000
  H   H181      1.0  0.73370  0.17850  0.72120  1.0000
  H   H182      1.0  0.51630  0.07150  0.72120  1.0000
  H   H183      1.0  0.51630  0.17850  0.52880  1.0000
  H   H184      1.0  0.73370  0.07150  0.52880  1.0000
  H   H185      1.0  0.23370  0.67850  0.72120  1.0000
  H   H186      1.0  0.01630  0.57150  0.72120  1.0000
  H   H187      1.0  0.01630  0.67850  0.52880  1.0000
  H   H188      1.0  0.23370  0.57150  0.52880  1.0000
  H   H189      1.0  0.23370  0.17850  0.22120  1.0000
  H   H190      1.0  0.01630  0.07150  0.22120  1.0000
  H   H191      1.0  0.01630  0.17850  0.02880  1.0000
  H   H192      1.0  0.23370  0.07150  0.02880  1.0000
