data_image0
_chemical_formula_structural       In8O72C12H4C4H4C8H4C4H4C8H4C8H4C8H4C8H4C4H4C8H4C4H4C12H4C8H4C8H4C8H4C4H4C8H4C4H4C12H4C4H4C8H4C4H4C16H4C4H4C8H4C4H4C8H4C8H4C8H4C8H4C4H4C8H4C4H4C12H4C8H4C8H4C8H4C4H4C8H4C4H4C12H4C4H4C8H4C4H4C4
_chemical_formula_sum              "In8 O72 C320 H176"
_cell_length_a       34.946
_cell_length_b       17.4553
_cell_length_c       23.7
_cell_angle_alpha    90
_cell_angle_beta     108.999
_cell_angle_gamma    90

_space_group_name_H-M_alt    "P 1"
_space_group_IT_number       1

loop_
  _space_group_symop_operation_xyz
  'x, y, z'

loop_
  _atom_site_type_symbol
  _atom_site_label
  _atom_site_symmetry_multiplicity
  _atom_site_fract_x
  _atom_site_fract_y
  _atom_site_fract_z
  _atom_site_occupancy
  In  In1       1.0  0.99918  0.93675  0.19139  1.0000
  In  In2       1.0  0.00082  0.43675  0.30861  1.0000
  In  In3       1.0  0.00082  0.06325  0.80861  1.0000
  In  In4       1.0  0.99918  0.56325  0.69139  1.0000
  In  In5       1.0  0.49749  0.87811  0.19504  1.0000
  In  In6       1.0  0.50251  0.37811  0.30496  1.0000
  In  In7       1.0  0.50251  0.12189  0.80496  1.0000
  In  In8       1.0  0.49749  0.62189  0.69504  1.0000
  O   O1        1.0  0.50100  0.01270  0.20330  1.0000
  O   O2        1.0  0.49900  0.51270  0.29670  1.0000
  O   O3        1.0  0.49900  0.98730  0.79670  1.0000
  O   O4        1.0  0.50100  0.48730  0.70330  1.0000
  O   O5        1.0  0.47630  0.95740  0.11340  1.0000
  O   O6        1.0  0.52370  0.45740  0.38660  1.0000
  O   O7        1.0  0.52370  0.04260  0.88660  1.0000
  O   O8        1.0  0.47630  0.54260  0.61340  1.0000
  O   O9        1.0  0.31160  0.37370  0.96420  1.0000
  O   O10       1.0  0.68840  0.87370  0.53580  1.0000
  O   O11       1.0  0.68840  0.62630  0.03580  1.0000
  O   O12       1.0  0.31160  0.12630  0.46420  1.0000
  O   O13       1.0  0.05730  0.55980  0.76340  1.0000
  O   O14       1.0  0.94270  0.05980  0.73660  1.0000
  O   O15       1.0  0.94270  0.44020  0.23660  1.0000
  O   O16       1.0  0.05730  0.94020  0.26340  1.0000
  O   O17       1.0  0.06030  0.54550  0.67620  1.0000
  O   O18       1.0  0.93970  0.04550  0.82380  1.0000
  O   O19       1.0  0.93970  0.45450  0.32380  1.0000
  O   O20       1.0  0.06030  0.95450  0.17620  1.0000
  O   O21       1.0  0.43060  0.60190  0.68600  1.0000
  O   O22       1.0  0.56940  0.10190  0.81400  1.0000
  O   O23       1.0  0.56940  0.39810  0.31400  1.0000
  O   O24       1.0  0.43060  0.89810  0.18600  1.0000
  O   O25       1.0  0.47390  0.61090  0.77320  1.0000
  O   O26       1.0  0.52610  0.11090  0.72680  1.0000
  O   O27       1.0  0.52610  0.38910  0.22680  1.0000
  O   O28       1.0  0.47390  0.88910  0.27320  1.0000
  O   O29       1.0  0.49780  0.75500  0.20420  1.0000
  O   O30       1.0  0.50220  0.25500  0.29580  1.0000
  O   O31       1.0  0.50220  0.24500  0.79580  1.0000
  O   O32       1.0  0.49780  0.74500  0.70420  1.0000
  O   O33       1.0  0.47240  0.79590  0.11800  1.0000
  O   O34       1.0  0.52760  0.29590  0.38200  1.0000
  O   O35       1.0  0.52760  0.20410  0.88200  1.0000
  O   O36       1.0  0.47240  0.70410  0.61800  1.0000
  O   O37       1.0  0.55460  0.87580  0.26920  1.0000
  O   O38       1.0  0.44540  0.37580  0.23080  1.0000
  O   O39       1.0  0.44540  0.12420  0.73080  1.0000
  O   O40       1.0  0.55460  0.62420  0.76920  1.0000
  O   O41       1.0  0.56000  0.88330  0.18000  1.0000
  O   O42       1.0  0.44000  0.38330  0.32000  1.0000
  O   O43       1.0  0.44000  0.11670  0.82000  1.0000
  O   O44       1.0  0.56000  0.61670  0.68000  1.0000
  O   O45       1.0  0.80650  0.05490  0.48160  1.0000
  O   O46       1.0  0.19350  0.55490  0.01840  1.0000
  O   O47       1.0  0.19350  0.94510  0.51840  1.0000
  O   O48       1.0  0.80650  0.44510  0.98160  1.0000
  O   O49       1.0  0.97930  0.64630  0.61210  1.0000
  O   O50       1.0  0.02070  0.14630  0.88790  1.0000
  O   O51       1.0  0.02070  0.35370  0.38790  1.0000
  O   O52       1.0  0.97930  0.85370  0.11210  1.0000
  O   O53       1.0  0.00480  0.69810  0.70430  1.0000
  O   O54       1.0  0.99520  0.19810  0.79570  1.0000
  O   O55       1.0  0.99520  0.30190  0.29570  1.0000
  O   O56       1.0  0.00480  0.80190  0.20430  1.0000
  O   O57       1.0  0.99420  0.43540  0.70180  1.0000
  O   O58       1.0  0.00580  0.93540  0.79820  1.0000
  O   O59       1.0  0.00580  0.56460  0.29820  1.0000
  O   O60       1.0  0.99420  0.06460  0.20180  1.0000
  O   O61       1.0  0.97350  0.47950  0.61440  1.0000
  O   O62       1.0  0.02650  0.97950  0.88560  1.0000
  O   O63       1.0  0.02650  0.52050  0.38560  1.0000
  O   O64       1.0  0.97350  0.02050  0.11440  1.0000
  O   O65       1.0  0.97670  0.93080  0.27230  1.0000
  O   O66       1.0  0.02330  0.43080  0.22770  1.0000
  O   O67       1.0  0.02330  0.06920  0.72770  1.0000
  O   O68       1.0  0.97670  0.56920  0.77230  1.0000
  O   O69       1.0  0.93580  0.92820  0.18600  1.0000
  O   O70       1.0  0.06420  0.42820  0.31400  1.0000
  O   O71       1.0  0.06420  0.07180  0.81400  1.0000
  O   O72       1.0  0.93580  0.57180  0.68600  1.0000
  C   C1        1.0  0.07800  0.54520  0.73190  1.0000
  C   C2        1.0  0.92200  0.04520  0.76810  1.0000
  C   C3        1.0  0.92200  0.45480  0.26810  1.0000
  C   C4        1.0  0.07800  0.95480  0.23190  1.0000
  C   C5        1.0  0.12280  0.52810  0.75820  1.0000
  C   C6        1.0  0.87720  0.02810  0.74180  1.0000
  C   C7        1.0  0.87720  0.47190  0.24180  1.0000
  C   C8        1.0  0.12280  0.97190  0.25820  1.0000
  C   C9        1.0  0.13710  0.52520  0.81400  1.0000
  C   C10       1.0  0.86290  0.02520  0.68600  1.0000
  C   C11       1.0  0.86290  0.47480  0.18600  1.0000
  C   C12       1.0  0.13710  0.97480  0.31400  1.0000
  H   H1        1.0  0.12071  0.53401  0.83735  1.0000
  H   H2        1.0  0.87929  0.03401  0.66265  1.0000
  H   H3        1.0  0.87929  0.46599  0.16265  1.0000
  H   H4        1.0  0.12071  0.96599  0.33735  1.0000
  C   C13       1.0  0.18160  0.50720  0.84270  1.0000
  C   C14       1.0  0.81840  0.00720  0.65730  1.0000
  C   C15       1.0  0.81840  0.49280  0.15730  1.0000
  C   C16       1.0  0.18160  0.99280  0.34270  1.0000
  H   H5        1.0  0.19304  0.50527  0.88399  1.0000
  H   H6        1.0  0.80696  0.00527  0.61601  1.0000
  H   H7        1.0  0.80696  0.49473  0.11601  1.0000
  H   H8        1.0  0.19304  0.99473  0.38399  1.0000
  C   C17       1.0  0.20370  0.49450  0.80850  1.0000
  C   C18       1.0  0.79630  0.99450  0.69150  1.0000
  C   C19       1.0  0.79630  0.50550  0.19150  1.0000
  C   C20       1.0  0.20370  0.00550  0.30850  1.0000
  C   C21       1.0  0.18640  0.49510  0.74580  1.0000
  C   C22       1.0  0.81360  0.99510  0.75420  1.0000
  C   C23       1.0  0.81360  0.50490  0.25420  1.0000
  C   C24       1.0  0.18640  0.00490  0.24580  1.0000
  H   H9        1.0  0.20173  0.48394  0.72130  1.0000
  H   H10       1.0  0.79827  0.98394  0.77870  1.0000
  H   H11       1.0  0.79827  0.51606  0.27870  1.0000
  H   H12       1.0  0.20173  0.01606  0.22130  1.0000
  C   C25       1.0  0.14630  0.51260  0.72270  1.0000
  C   C26       1.0  0.85370  0.01260  0.77730  1.0000
  C   C27       1.0  0.85370  0.48740  0.27730  1.0000
  C   C28       1.0  0.14630  0.98740  0.22270  1.0000
  H   H13       1.0  0.13437  0.51417  0.68144  1.0000
  H   H14       1.0  0.86563  0.01417  0.81856  1.0000
  H   H15       1.0  0.86563  0.48583  0.31856  1.0000
  H   H16       1.0  0.13437  0.98583  0.18144  1.0000
  C   C29       1.0  0.24810  0.47500  0.83590  1.0000
  C   C30       1.0  0.75190  0.97500  0.66410  1.0000
  C   C31       1.0  0.75190  0.52500  0.16410  1.0000
  C   C32       1.0  0.24810  0.02500  0.33590  1.0000
  C   C33       1.0  0.25980  0.43470  0.88790  1.0000
  C   C34       1.0  0.74020  0.93470  0.61210  1.0000
  C   C35       1.0  0.74020  0.56530  0.11210  1.0000
  C   C36       1.0  0.25980  0.06530  0.38790  1.0000
  H   H17       1.0  0.24137  0.41818  0.90612  1.0000
  H   H18       1.0  0.75863  0.91818  0.59388  1.0000
  H   H19       1.0  0.75863  0.58182  0.09388  1.0000
  H   H20       1.0  0.24137  0.08182  0.40612  1.0000
  C   C37       1.0  0.30070  0.41990  0.91180  1.0000
  C   C38       1.0  0.69930  0.91990  0.58820  1.0000
  C   C39       1.0  0.69930  0.58010  0.08820  1.0000
  C   C40       1.0  0.30070  0.08010  0.41180  1.0000
  C   C41       1.0  0.32990  0.44520  0.88730  1.0000
  C   C42       1.0  0.67010  0.94520  0.61270  1.0000
  C   C43       1.0  0.67010  0.55480  0.11270  1.0000
  C   C44       1.0  0.32990  0.05480  0.38730  1.0000
  H   H21       1.0  0.35725  0.43384  0.90494  1.0000
  H   H22       1.0  0.64275  0.93384  0.59506  1.0000
  H   H23       1.0  0.64275  0.56616  0.09506  1.0000
  H   H24       1.0  0.35725  0.06616  0.40494  1.0000
  C   C45       1.0  0.31740  0.48400  0.84050  1.0000
  C   C46       1.0  0.68260  0.98400  0.65950  1.0000
  C   C47       1.0  0.68260  0.51600  0.15950  1.0000
  C   C48       1.0  0.31740  0.01600  0.34050  1.0000
  C   C49       1.0  0.27580  0.50370  0.81490  1.0000
  C   C50       1.0  0.72420  0.00370  0.68510  1.0000
  C   C51       1.0  0.72420  0.49630  0.18510  1.0000
  C   C52       1.0  0.27580  0.99630  0.31490  1.0000
  H   H25       1.0  0.26791  0.53738  0.78281  1.0000
  H   H26       1.0  0.73209  0.03738  0.71719  1.0000
  H   H27       1.0  0.73209  0.46262  0.21719  1.0000
  H   H28       1.0  0.26791  0.96262  0.28281  1.0000
  C   C53       1.0  0.34660  0.51450  0.81170  1.0000
  C   C54       1.0  0.65340  0.01450  0.68830  1.0000
  C   C55       1.0  0.65340  0.48550  0.18830  1.0000
  C   C56       1.0  0.34660  0.98550  0.31170  1.0000
  C   C57       1.0  0.34010  0.52820  0.75110  1.0000
  C   C58       1.0  0.65990  0.02820  0.74890  1.0000
  C   C59       1.0  0.65990  0.47180  0.24890  1.0000
  C   C60       1.0  0.34010  0.97180  0.25110  1.0000
  H   H29       1.0  0.31464  0.51592  0.72470  1.0000
  H   H30       1.0  0.68536  0.01592  0.77530  1.0000
  H   H31       1.0  0.68536  0.48408  0.27530  1.0000
  H   H32       1.0  0.31464  0.98408  0.22470  1.0000
  C   C61       1.0  0.36770  0.55830  0.72660  1.0000
  C   C62       1.0  0.63230  0.05830  0.77340  1.0000
  C   C63       1.0  0.63230  0.44170  0.27340  1.0000
  C   C64       1.0  0.36770  0.94170  0.22660  1.0000
  H   H33       1.0  0.36071  0.56872  0.68596  1.0000
  H   H34       1.0  0.63929  0.06872  0.81404  1.0000
  H   H35       1.0  0.63929  0.43128  0.31404  1.0000
  H   H36       1.0  0.36071  0.93128  0.18596  1.0000
  C   C65       1.0  0.40730  0.57260  0.76620  1.0000
  C   C66       1.0  0.59270  0.07260  0.73380  1.0000
  C   C67       1.0  0.59270  0.42740  0.23380  1.0000
  C   C68       1.0  0.40730  0.92740  0.26620  1.0000
  C   C69       1.0  0.41610  0.56530  0.82780  1.0000
  C   C70       1.0  0.58390  0.06530  0.67220  1.0000
  C   C71       1.0  0.58390  0.43470  0.17220  1.0000
  C   C72       1.0  0.41610  0.93470  0.32780  1.0000
  H   H37       1.0  0.44086  0.58163  0.85392  1.0000
  H   H38       1.0  0.55914  0.08163  0.64608  1.0000
  H   H39       1.0  0.55914  0.41837  0.14608  1.0000
  H   H40       1.0  0.44086  0.91837  0.35392  1.0000
  C   C73       1.0  0.38800  0.53420  0.84890  1.0000
  C   C74       1.0  0.61200  0.03420  0.65110  1.0000
  C   C75       1.0  0.61200  0.46580  0.15110  1.0000
  C   C76       1.0  0.38800  0.96580  0.34890  1.0000
  H   H41       1.0  0.39537  0.52466  0.88965  1.0000
  H   H42       1.0  0.60463  0.02466  0.61035  1.0000
  H   H43       1.0  0.60463  0.47534  0.11035  1.0000
  H   H44       1.0  0.39537  0.97534  0.38965  1.0000
  C   C77       1.0  0.44020  0.59980  0.74260  1.0000
  C   C78       1.0  0.55980  0.09980  0.75740  1.0000
  C   C79       1.0  0.55980  0.40020  0.25740  1.0000
  C   C80       1.0  0.44020  0.90020  0.24260  1.0000
  C   C81       1.0  0.35220  0.37770  0.00380  1.0000
  C   C82       1.0  0.64780  0.87770  0.49620  1.0000
  C   C83       1.0  0.64780  0.62230  0.99620  1.0000
  C   C84       1.0  0.35220  0.12230  0.50380  1.0000
  C   C85       1.0  0.37080  0.30970  0.02360  1.0000
  C   C86       1.0  0.62920  0.80970  0.47640  1.0000
  C   C87       1.0  0.62920  0.69030  0.97640  1.0000
  C   C88       1.0  0.37080  0.19030  0.52360  1.0000
  H   H45       1.0  0.35746  0.26369  0.01043  1.0000
  H   H46       1.0  0.64254  0.76369  0.48957  1.0000
  H   H47       1.0  0.64254  0.73631  0.98957  1.0000
  H   H48       1.0  0.35746  0.23631  0.51043  1.0000
  C   C89       1.0  0.41060  0.31000  0.06420  1.0000
  C   C90       1.0  0.58940  0.81000  0.43580  1.0000
  C   C91       1.0  0.58940  0.69000  0.93580  1.0000
  C   C92       1.0  0.41060  0.19000  0.56420  1.0000
  C   C93       1.0  0.42770  0.37600  0.08110  1.0000
  C   C94       1.0  0.57230  0.87600  0.41890  1.0000
  C   C95       1.0  0.57230  0.62400  0.91890  1.0000
  C   C96       1.0  0.42770  0.12400  0.58110  1.0000
  H   H49       1.0  0.45422  0.37515  0.10699  1.0000
  H   H50       1.0  0.54578  0.87515  0.39301  1.0000
  H   H51       1.0  0.54578  0.62485  0.89301  1.0000
  H   H52       1.0  0.45422  0.12485  0.60699  1.0000
  C   C97       1.0  0.41050  0.44810  0.06430  1.0000
  C   C98       1.0  0.58950  0.94810  0.43570  1.0000
  C   C99       1.0  0.58950  0.55190  0.93570  1.0000
  C   C100      1.0  0.41050  0.05190  0.56430  1.0000
  C   C101      1.0  0.37120  0.44600  0.02620  1.0000
  C   C102      1.0  0.62880  0.94600  0.47380  1.0000
  C   C103      1.0  0.62880  0.55400  0.97380  1.0000
  C   C104      1.0  0.37120  0.05400  0.52620  1.0000
  H   H53       1.0  0.35701  0.49170  0.01535  1.0000
  H   H54       1.0  0.64299  0.99170  0.48465  1.0000
  H   H55       1.0  0.64299  0.50830  0.98465  1.0000
  H   H56       1.0  0.35701  0.00830  0.51535  1.0000
  C   C105      1.0  0.43190  0.23680  0.08360  1.0000
  C   C106      1.0  0.56810  0.73680  0.41640  1.0000
  C   C107      1.0  0.56810  0.76320  0.91640  1.0000
  C   C108      1.0  0.43190  0.26320  0.58360  1.0000
  C   C109      1.0  0.42120  0.17050  0.04310  1.0000
  C   C110      1.0  0.57880  0.67050  0.45690  1.0000
  C   C111      1.0  0.57880  0.82950  0.95690  1.0000
  C   C112      1.0  0.42120  0.32950  0.54310  1.0000
  H   H57       1.0  0.40199  0.17291  0.00529  1.0000
  H   H58       1.0  0.59801  0.67291  0.49471  1.0000
  H   H59       1.0  0.59801  0.82709  0.99471  1.0000
  H   H60       1.0  0.40199  0.32709  0.50529  1.0000
  C   C113      1.0  0.44380  0.09930  0.06800  1.0000
  C   C114      1.0  0.55620  0.59930  0.43200  1.0000
  C   C115      1.0  0.55620  0.90070  0.93200  1.0000
  C   C116      1.0  0.44380  0.40070  0.56800  1.0000
  H   H61       1.0  0.44176  0.05659  0.04376  1.0000
  H   H62       1.0  0.55824  0.55659  0.45624  1.0000
  H   H63       1.0  0.55824  0.94341  0.95624  1.0000
  H   H64       1.0  0.44176  0.44341  0.54376  1.0000
  C   C117      1.0  0.46750  0.09690  0.12620  1.0000
  C   C118      1.0  0.53250  0.59690  0.37380  1.0000
  C   C119      1.0  0.53250  0.90310  0.87380  1.0000
  C   C120      1.0  0.46750  0.40310  0.62620  1.0000
  C   C121      1.0  0.47780  0.15930  0.16170  1.0000
  C   C122      1.0  0.52220  0.65930  0.33830  1.0000
  C   C123      1.0  0.52220  0.84070  0.83830  1.0000
  C   C124      1.0  0.47780  0.34070  0.66170  1.0000
  H   H65       1.0  0.49736  0.15589  0.19924  1.0000
  H   H66       1.0  0.50264  0.65589  0.30076  1.0000
  H   H67       1.0  0.50264  0.84411  0.80076  1.0000
  H   H68       1.0  0.49736  0.34411  0.69924  1.0000
  C   C125      1.0  0.45920  0.22730  0.14160  1.0000
  C   C126      1.0  0.54080  0.72730  0.35840  1.0000
  C   C127      1.0  0.54080  0.77270  0.85840  1.0000
  C   C128      1.0  0.45920  0.27270  0.64160  1.0000
  H   H69       1.0  0.46478  0.26912  0.16728  1.0000
  H   H70       1.0  0.53522  0.76912  0.33272  1.0000
  H   H71       1.0  0.53522  0.73088  0.83272  1.0000
  H   H72       1.0  0.46478  0.23088  0.66728  1.0000
  C   C129      1.0  0.48120  0.01620  0.15100  1.0000
  C   C130      1.0  0.51880  0.51620  0.34900  1.0000
  C   C131      1.0  0.51880  0.98380  0.84900  1.0000
  C   C132      1.0  0.48120  0.48380  0.65100  1.0000
  C   C133      1.0  0.42900  0.51930  0.08420  1.0000
  C   C134      1.0  0.57100  0.01930  0.41580  1.0000
  C   C135      1.0  0.57100  0.48070  0.91580  1.0000
  C   C136      1.0  0.42900  0.98070  0.58420  1.0000
  C   C137      1.0  0.41930  0.58730  0.04910  1.0000
  C   C138      1.0  0.58070  0.08730  0.45090  1.0000
  C   C139      1.0  0.58070  0.41270  0.95090  1.0000
  C   C140      1.0  0.41930  0.91270  0.54910  1.0000
  H   H73       1.0  0.40122  0.58425  0.01037  1.0000
  H   H74       1.0  0.59878  0.08425  0.48963  1.0000
  H   H75       1.0  0.59878  0.41575  0.98963  1.0000
  H   H76       1.0  0.40122  0.91575  0.51037  1.0000
  C   C141      1.0  0.43540  0.65610  0.07020  1.0000
  C   C142      1.0  0.56460  0.15610  0.42980  1.0000
  C   C143      1.0  0.56460  0.34390  0.92980  1.0000
  C   C144      1.0  0.43540  0.84390  0.57020  1.0000
  H   H77       1.0  0.42812  0.69903  0.04582  1.0000
  H   H78       1.0  0.57188  0.19903  0.45418  1.0000
  H   H79       1.0  0.57188  0.30097  0.95418  1.0000
  H   H80       1.0  0.42812  0.80097  0.54582  1.0000
  C   C145      1.0  0.46320  0.66420  0.12910  1.0000
  C   C146      1.0  0.53680  0.16420  0.37090  1.0000
  C   C147      1.0  0.53680  0.33580  0.87090  1.0000
  C   C148      1.0  0.46320  0.83580  0.62910  1.0000
  C   C149      1.0  0.47500  0.59780  0.16330  1.0000
  C   C150      1.0  0.52500  0.09780  0.33670  1.0000
  C   C151      1.0  0.52500  0.40220  0.83670  1.0000
  C   C152      1.0  0.47500  0.90220  0.66330  1.0000
  H   H81       1.0  0.49479  0.60067  0.20064  1.0000
  H   H82       1.0  0.50521  0.10067  0.29936  1.0000
  H   H83       1.0  0.50521  0.39933  0.79936  1.0000
  H   H84       1.0  0.49479  0.89933  0.70064  1.0000
  C   C153      1.0  0.45770  0.52770  0.14210  1.0000
  C   C154      1.0  0.54230  0.02770  0.35790  1.0000
  C   C155      1.0  0.54230  0.47230  0.85790  1.0000
  C   C156      1.0  0.45770  0.97230  0.64210  1.0000
  H   H85       1.0  0.46514  0.48488  0.16659  1.0000
  H   H86       1.0  0.53486  0.98488  0.33341  1.0000
  H   H87       1.0  0.53486  0.51512  0.83341  1.0000
  H   H88       1.0  0.46514  0.01512  0.66659  1.0000
  C   C157      1.0  0.47790  0.73720  0.15360  1.0000
  C   C158      1.0  0.52210  0.23720  0.34640  1.0000
  C   C159      1.0  0.52210  0.26280  0.84640  1.0000
  C   C160      1.0  0.47790  0.76280  0.65360  1.0000
  C   C161      1.0  0.57670  0.88510  0.23660  1.0000
  C   C162      1.0  0.42330  0.38510  0.26340  1.0000
  C   C163      1.0  0.42330  0.11490  0.76340  1.0000
  C   C164      1.0  0.57670  0.61490  0.73660  1.0000
  C   C165      1.0  0.61950  0.89390  0.26400  1.0000
  C   C166      1.0  0.38050  0.39390  0.23600  1.0000
  C   C167      1.0  0.38050  0.10610  0.73600  1.0000
  C   C168      1.0  0.61950  0.60610  0.76400  1.0000
  C   C169      1.0  0.63840  0.89070  0.32510  1.0000
  C   C170      1.0  0.36160  0.39070  0.17490  1.0000
  C   C171      1.0  0.36160  0.10930  0.67490  1.0000
  C   C172      1.0  0.63840  0.60930  0.82510  1.0000
  H   H89       1.0  0.62288  0.87760  0.34903  1.0000
  H   H90       1.0  0.37712  0.37760  0.15097  1.0000
  H   H91       1.0  0.37712  0.12240  0.65097  1.0000
  H   H92       1.0  0.62288  0.62240  0.84903  1.0000
  C   C173      1.0  0.67810  0.90580  0.35180  1.0000
  C   C174      1.0  0.32190  0.40580  0.14820  1.0000
  C   C175      1.0  0.32190  0.09420  0.64820  1.0000
  C   C176      1.0  0.67810  0.59420  0.85180  1.0000
  H   H93       1.0  0.68926  0.90076  0.39302  1.0000
  H   H94       1.0  0.31074  0.40076  0.10698  1.0000
  H   H95       1.0  0.31074  0.09924  0.60698  1.0000
  H   H96       1.0  0.68926  0.59924  0.89302  1.0000
  C   C177      1.0  0.70300  0.92890  0.31840  1.0000
  C   C178      1.0  0.29700  0.42890  0.18160  1.0000
  C   C179      1.0  0.29700  0.07110  0.68160  1.0000
  C   C180      1.0  0.70300  0.57110  0.81840  1.0000
  C   C181      1.0  0.68680  0.92920  0.25950  1.0000
  C   C182      1.0  0.31320  0.42920  0.24050  1.0000
  C   C183      1.0  0.31320  0.07080  0.74050  1.0000
  C   C184      1.0  0.68680  0.57080  0.75950  1.0000
  H   H97       1.0  0.70294  0.94072  0.23625  1.0000
  H   H98       1.0  0.29706  0.44072  0.26375  1.0000
  H   H99       1.0  0.29706  0.05928  0.76375  1.0000
  H   H100      1.0  0.70294  0.55928  0.73625  1.0000
  C   C185      1.0  0.64420  0.91160  0.23050  1.0000
  C   C186      1.0  0.35580  0.41160  0.26950  1.0000
  C   C187      1.0  0.35580  0.08840  0.76950  1.0000
  C   C188      1.0  0.64420  0.58840  0.73050  1.0000
  H   H101      1.0  0.63340  0.91239  0.18909  1.0000
  H   H102      1.0  0.36660  0.41239  0.31091  1.0000
  H   H103      1.0  0.36660  0.08761  0.81091  1.0000
  H   H104      1.0  0.63340  0.58761  0.68909  1.0000
  C   C189      1.0  0.74530  0.95440  0.34690  1.0000
  C   C190      1.0  0.25470  0.45440  0.15310  1.0000
  C   C191      1.0  0.25470  0.04560  0.65310  1.0000
  C   C192      1.0  0.74530  0.54560  0.84690  1.0000
  C   C193      1.0  0.77370  0.93680  0.31990  1.0000
  C   C194      1.0  0.22630  0.43680  0.18010  1.0000
  C   C195      1.0  0.22630  0.06320  0.68010  1.0000
  C   C196      1.0  0.77370  0.56320  0.81990  1.0000
  H   H105      1.0  0.76602  0.90627  0.28585  1.0000
  H   H106      1.0  0.23398  0.40627  0.21415  1.0000
  H   H107      1.0  0.23398  0.09373  0.71415  1.0000
  H   H108      1.0  0.76602  0.59373  0.78585  1.0000
  C   C197      1.0  0.81350  0.96320  0.34200  1.0000
  C   C198      1.0  0.18650  0.46320  0.15800  1.0000
  C   C199      1.0  0.18650  0.03680  0.65800  1.0000
  C   C200      1.0  0.81350  0.53680  0.84200  1.0000
  C   C201      1.0  0.82540  0.00020  0.39770  1.0000
  C   C202      1.0  0.17460  0.50020  0.10230  1.0000
  C   C203      1.0  0.17460  0.99980  0.60230  1.0000
  C   C204      1.0  0.82540  0.49980  0.89770  1.0000
  H   H109      1.0  0.85225  0.01482  0.41497  1.0000
  H   H110      1.0  0.14775  0.51482  0.08503  1.0000
  H   H111      1.0  0.14775  0.98518  0.58503  1.0000
  H   H112      1.0  0.85225  0.48518  0.91497  1.0000
  C   C205      1.0  0.79670  0.01620  0.42890  1.0000
  C   C206      1.0  0.20330  0.51620  0.07110  1.0000
  C   C207      1.0  0.20330  0.98380  0.57110  1.0000
  C   C208      1.0  0.79670  0.48380  0.92890  1.0000
  C   C209      1.0  0.75780  0.98930  0.40180  1.0000
  C   C210      1.0  0.24220  0.48930  0.09820  1.0000
  C   C211      1.0  0.24220  0.01070  0.59820  1.0000
  C   C212      1.0  0.75780  0.51070  0.90180  1.0000
  H   H113      1.0  0.73910  0.99526  0.42181  1.0000
  H   H114      1.0  0.26090  0.49526  0.07819  1.0000
  H   H115      1.0  0.26090  0.00474  0.57819  1.0000
  H   H116      1.0  0.73910  0.50474  0.92181  1.0000
  C   C213      1.0  0.84560  0.94790  0.31750  1.0000
  C   C214      1.0  0.15440  0.44790  0.18250  1.0000
  C   C215      1.0  0.15440  0.05210  0.68250  1.0000
  C   C216      1.0  0.84560  0.55210  0.81750  1.0000
  C   C217      1.0  0.83780  0.95060  0.25580  1.0000
  C   C218      1.0  0.16220  0.45060  0.24420  1.0000
  C   C219      1.0  0.16220  0.04940  0.74420  1.0000
  C   C220      1.0  0.83780  0.54940  0.75580  1.0000
  H   H117      1.0  0.81127  0.96109  0.23245  1.0000
  H   H118      1.0  0.18873  0.46109  0.26755  1.0000
  H   H119      1.0  0.18873  0.03891  0.76755  1.0000
  H   H120      1.0  0.81127  0.53891  0.73245  1.0000
  C   C221      1.0  0.86480  0.93960  0.22640  1.0000
  C   C222      1.0  0.13520  0.43960  0.27360  1.0000
  C   C223      1.0  0.13520  0.06040  0.77360  1.0000
  C   C224      1.0  0.86480  0.56040  0.72640  1.0000
  H   H121      1.0  0.85709  0.93790  0.18503  1.0000
  H   H122      1.0  0.14291  0.43790  0.31497  1.0000
  H   H123      1.0  0.14291  0.06210  0.81497  1.0000
  H   H124      1.0  0.85709  0.56210  0.68503  1.0000
  C   C225      1.0  0.90750  0.93030  0.26500  1.0000
  C   C226      1.0  0.09250  0.43030  0.23500  1.0000
  C   C227      1.0  0.09250  0.06970  0.73500  1.0000
  C   C228      1.0  0.90750  0.56970  0.76500  1.0000
  C   C229      1.0  0.91670  0.92300  0.32770  1.0000
  C   C230      1.0  0.08330  0.42300  0.17230  1.0000
  C   C231      1.0  0.08330  0.07700  0.67230  1.0000
  C   C232      1.0  0.91670  0.57700  0.82770  1.0000
  H   H125      1.0  0.94283  0.91099  0.35197  1.0000
  H   H126      1.0  0.05717  0.41099  0.14803  1.0000
  H   H127      1.0  0.05717  0.08901  0.64803  1.0000
  H   H128      1.0  0.94283  0.58901  0.85197  1.0000
  C   C233      1.0  0.88620  0.93420  0.35180  1.0000
  C   C234      1.0  0.11380  0.43420  0.14820  1.0000
  C   C235      1.0  0.11380  0.06580  0.64820  1.0000
  C   C236      1.0  0.88620  0.56580  0.85180  1.0000
  H   H129      1.0  0.89283  0.93262  0.39308  1.0000
  H   H130      1.0  0.10717  0.43262  0.10692  1.0000
  H   H131      1.0  0.10717  0.06738  0.60692  1.0000
  H   H132      1.0  0.89283  0.56738  0.89308  1.0000
  C   C237      1.0  0.93880  0.92650  0.23630  1.0000
  C   C238      1.0  0.06120  0.42650  0.26370  1.0000
  C   C239      1.0  0.06120  0.07350  0.76370  1.0000
  C   C240      1.0  0.93880  0.57350  0.73630  1.0000
  C   C241      1.0  0.84670  0.05240  0.51580  1.0000
  C   C242      1.0  0.15330  0.55240  0.98420  1.0000
  C   C243      1.0  0.15330  0.94760  0.48420  1.0000
  C   C244      1.0  0.84670  0.44760  0.01580  1.0000
  C   C245      1.0  0.86410  0.13030  0.53020  1.0000
  C   C246      1.0  0.13590  0.63030  0.96980  1.0000
  C   C247      1.0  0.13590  0.86970  0.46980  1.0000
  C   C248      1.0  0.86410  0.36970  0.03020  1.0000
  H   H133      1.0  0.84959  0.17430  0.51436  1.0000
  H   H134      1.0  0.15041  0.67430  0.98564  1.0000
  H   H135      1.0  0.15041  0.82570  0.48564  1.0000
  H   H136      1.0  0.84959  0.32570  0.01436  1.0000
  C   C249      1.0  0.90430  0.13270  0.56960  1.0000
  C   C250      1.0  0.09570  0.63270  0.93040  1.0000
  C   C251      1.0  0.09570  0.86730  0.43040  1.0000
  C   C252      1.0  0.90430  0.36730  0.06960  1.0000
  C   C253      1.0  0.92760  0.06820  0.58570  1.0000
  C   C254      1.0  0.07240  0.56820  0.91430  1.0000
  C   C255      1.0  0.07240  0.93180  0.41430  1.0000
  C   C256      1.0  0.92760  0.43180  0.08570  1.0000
  H   H137      1.0  0.95498  0.07261  0.60730  1.0000
  H   H138      1.0  0.04502  0.57261  0.89270  1.0000
  H   H139      1.0  0.04502  0.92739  0.39270  1.0000
  H   H140      1.0  0.95498  0.42739  0.10730  1.0000
  C   C257      1.0  0.90880  0.98870  0.56830  1.0000
  C   C258      1.0  0.09120  0.48870  0.93170  1.0000
  C   C259      1.0  0.09120  0.01130  0.43170  1.0000
  C   C260      1.0  0.90880  0.51130  0.06830  1.0000
  C   C261      1.0  0.86700  0.98890  0.53150  1.0000
  C   C262      1.0  0.13300  0.48890  0.96850  1.0000
  C   C263      1.0  0.13300  0.01110  0.46850  1.0000
  C   C264      1.0  0.86700  0.51110  0.03150  1.0000
  H   H141      1.0  0.85407  0.94243  0.51861  1.0000
  H   H142      1.0  0.14593  0.44243  0.98139  1.0000
  H   H143      1.0  0.14593  0.05757  0.48139  1.0000
  H   H144      1.0  0.85407  0.55757  0.01861  1.0000
  C   C265      1.0  0.92290  0.20900  0.58580  1.0000
  C   C266      1.0  0.07710  0.70900  0.91420  1.0000
  C   C267      1.0  0.07710  0.79100  0.41420  1.0000
  C   C268      1.0  0.92290  0.29100  0.08580  1.0000
  C   C269      1.0  0.91500  0.27260  0.55220  1.0000
  C   C270      1.0  0.08500  0.77260  0.94780  1.0000
  C   C271      1.0  0.08500  0.72740  0.44780  1.0000
  C   C272      1.0  0.91500  0.22740  0.05220  1.0000
  H   H145      1.0  0.89772  0.26816  0.51310  1.0000
  H   H146      1.0  0.10228  0.76816  0.98690  1.0000
  H   H147      1.0  0.10228  0.73184  0.48690  1.0000
  H   H148      1.0  0.89772  0.23184  0.01310  1.0000
  C   C273      1.0  0.92940  0.33870  0.57020  1.0000
  C   C274      1.0  0.07060  0.83870  0.92980  1.0000
  C   C275      1.0  0.07060  0.66130  0.42980  1.0000
  C   C276      1.0  0.92940  0.16130  0.07020  1.0000
  H   H149      1.0  0.91905  0.38099  0.54620  1.0000
  H   H150      1.0  0.08095  0.88099  0.95380  1.0000
  H   H151      1.0  0.08095  0.61901  0.45380  1.0000
  H   H152      1.0  0.91905  0.11901  0.04620  1.0000
  C   C277      1.0  0.96110  0.35010  0.62600  1.0000
  C   C278      1.0  0.03890  0.85010  0.87400  1.0000
  C   C279      1.0  0.03890  0.64990  0.37400  1.0000
  C   C280      1.0  0.96110  0.14990  0.12600  1.0000
  C   C281      1.0  0.97070  0.28670  0.66440  1.0000
  C   C282      1.0  0.02930  0.78670  0.83560  1.0000
  C   C283      1.0  0.02930  0.71330  0.33560  1.0000
  C   C284      1.0  0.97070  0.21330  0.16440  1.0000
  H   H153      1.0  0.98791  0.29325  0.70334  1.0000
  H   H154      1.0  0.01209  0.79325  0.79666  1.0000
  H   H155      1.0  0.01209  0.70675  0.29666  1.0000
  H   H156      1.0  0.98791  0.20675  0.20334  1.0000
  C   C285      1.0  0.95490  0.21350  0.64530  1.0000
  C   C286      1.0  0.04510  0.71350  0.85470  1.0000
  C   C287      1.0  0.04510  0.78650  0.35470  1.0000
  C   C288      1.0  0.95490  0.28650  0.14530  1.0000
  H   H157      1.0  0.96406  0.17011  0.66861  1.0000
  H   H158      1.0  0.03594  0.67011  0.83139  1.0000
  H   H159      1.0  0.03594  0.82989  0.33139  1.0000
  H   H160      1.0  0.96406  0.32989  0.16861  1.0000
  C   C289      1.0  0.97910  0.42760  0.65100  1.0000
  C   C290      1.0  0.02090  0.92760  0.84900  1.0000
  C   C291      1.0  0.02090  0.57240  0.34900  1.0000
  C   C292      1.0  0.97910  0.07240  0.15100  1.0000
  C   C293      1.0  0.93140  0.92110  0.58760  1.0000
  C   C294      1.0  0.06860  0.42110  0.91240  1.0000
  C   C295      1.0  0.06860  0.07890  0.41240  1.0000
  C   C296      1.0  0.93140  0.57890  0.08760  1.0000
  C   C297      1.0  0.92330  0.85610  0.55260  1.0000
  C   C298      1.0  0.07670  0.35610  0.94740  1.0000
  C   C299      1.0  0.07670  0.14390  0.44740  1.0000
  C   C300      1.0  0.92330  0.64390  0.05260  1.0000
  H   H161      1.0  0.90472  0.86053  0.51442  1.0000
  H   H162      1.0  0.09528  0.36053  0.98558  1.0000
  H   H163      1.0  0.09528  0.13947  0.48558  1.0000
  H   H164      1.0  0.90472  0.63947  0.01442  1.0000
  C   C301      1.0  0.94020  0.78610  0.56940  1.0000
  C   C302      1.0  0.05980  0.28610  0.93060  1.0000
  C   C303      1.0  0.05980  0.21390  0.43060  1.0000
  C   C304      1.0  0.94020  0.71390  0.06940  1.0000
  H   H165      1.0  0.93433  0.74465  0.54335  1.0000
  H   H166      1.0  0.06567  0.24465  0.95665  1.0000
  H   H167      1.0  0.06567  0.25535  0.45665  1.0000
  H   H168      1.0  0.93433  0.75535  0.04335  1.0000
  C   C305      1.0  0.96740  0.77950  0.62850  1.0000
  C   C306      1.0  0.03260  0.27950  0.87150  1.0000
  C   C307      1.0  0.03260  0.22050  0.37150  1.0000
  C   C308      1.0  0.96740  0.72050  0.12850  1.0000
  C   C309      1.0  0.97750  0.84660  0.66060  1.0000
  C   C310      1.0  0.02250  0.34660  0.83940  1.0000
  C   C311      1.0  0.02250  0.15340  0.33940  1.0000
  C   C312      1.0  0.97750  0.65340  0.16060  1.0000
  H   H169      1.0  0.99717  0.84410  0.69807  1.0000
  H   H170      1.0  0.00283  0.34410  0.80193  1.0000
  H   H171      1.0  0.00283  0.15590  0.30193  1.0000
  H   H172      1.0  0.99717  0.65590  0.19807  1.0000
  C   C313      1.0  0.96190  0.91230  0.64250  1.0000
  C   C314      1.0  0.03810  0.41230  0.85750  1.0000
  C   C315      1.0  0.03810  0.08770  0.35750  1.0000
  C   C316      1.0  0.96190  0.58770  0.14250  1.0000
  H   H173      1.0  0.97109  0.95505  0.66656  1.0000
  H   H174      1.0  0.02891  0.45505  0.83344  1.0000
  H   H175      1.0  0.02891  0.04495  0.33344  1.0000
  H   H176      1.0  0.97109  0.54495  0.16656  1.0000
  C   C317      1.0  0.98700  0.70100  0.64800  1.0000
  C   C318      1.0  0.01300  0.20100  0.85200  1.0000
  C   C319      1.0  0.01300  0.29900  0.35200  1.0000
  C   C320      1.0  0.98700  0.79900  0.14800  1.0000
