data_image0
_chemical_formula_structural       Mn80O384N96C128H16C48H16C48H16C112
_chemical_formula_sum              "Mn80 O384 N96 C336 H48"
_cell_length_a       26.343
_cell_length_b       26.343
_cell_length_c       37.301
_cell_angle_alpha    90
_cell_angle_beta     90
_cell_angle_gamma    90

_space_group_name_H-M_alt    "P 1"
_space_group_IT_number       1

loop_
  _space_group_symop_operation_xyz
  'x, y, z'

loop_
  _atom_site_type_symbol
  _atom_site_label
  _atom_site_symmetry_multiplicity
  _atom_site_fract_x
  _atom_site_fract_y
  _atom_site_fract_z
  _atom_site_occupancy
  Mn  Mn1       1.0  0.01695  0.17384  0.83954  1.0000
  Mn  Mn2       1.0  0.17384  0.98305  0.16046  1.0000
  Mn  Mn3       1.0  0.98305  0.82616  0.83954  1.0000
  Mn  Mn4       1.0  0.82616  0.01695  0.16046  1.0000
  Mn  Mn5       1.0  0.98305  0.17384  0.33954  1.0000
  Mn  Mn6       1.0  0.17384  0.01695  0.66046  1.0000
  Mn  Mn7       1.0  0.01695  0.82616  0.33954  1.0000
  Mn  Mn8       1.0  0.82616  0.98305  0.66046  1.0000
  Mn  Mn9       1.0  0.51695  0.67384  0.33954  1.0000
  Mn  Mn10      1.0  0.67384  0.48305  0.66046  1.0000
  Mn  Mn11      1.0  0.48305  0.32616  0.33954  1.0000
  Mn  Mn12      1.0  0.32616  0.51695  0.66046  1.0000
  Mn  Mn13      1.0  0.48305  0.67384  0.83954  1.0000
  Mn  Mn14      1.0  0.67384  0.51695  0.16046  1.0000
  Mn  Mn15      1.0  0.51695  0.32616  0.83954  1.0000
  Mn  Mn16      1.0  0.32616  0.48305  0.16046  1.0000
  Mn  Mn17      1.0  0.94942  0.35741  0.75536  1.0000
  Mn  Mn18      1.0  0.35741  0.05058  0.24464  1.0000
  Mn  Mn19      1.0  0.05058  0.64259  0.75536  1.0000
  Mn  Mn20      1.0  0.64259  0.94942  0.24464  1.0000
  Mn  Mn21      1.0  0.05058  0.35741  0.25536  1.0000
  Mn  Mn22      1.0  0.35741  0.94942  0.74464  1.0000
  Mn  Mn23      1.0  0.94942  0.64259  0.25536  1.0000
  Mn  Mn24      1.0  0.64259  0.05058  0.74464  1.0000
  Mn  Mn25      1.0  0.44942  0.85741  0.25536  1.0000
  Mn  Mn26      1.0  0.85741  0.55058  0.74464  1.0000
  Mn  Mn27      1.0  0.55058  0.14259  0.25536  1.0000
  Mn  Mn28      1.0  0.14259  0.44942  0.74464  1.0000
  Mn  Mn29      1.0  0.55058  0.85741  0.75536  1.0000
  Mn  Mn30      1.0  0.85741  0.44942  0.24464  1.0000
  Mn  Mn31      1.0  0.44942  0.14259  0.75536  1.0000
  Mn  Mn32      1.0  0.14259  0.55058  0.24464  1.0000
  Mn  Mn33      1.0  0.98296  0.17655  0.66348  1.0000
  Mn  Mn34      1.0  0.17655  0.01704  0.33652  1.0000
  Mn  Mn35      1.0  0.01704  0.82345  0.66348  1.0000
  Mn  Mn36      1.0  0.82345  0.98296  0.33652  1.0000
  Mn  Mn37      1.0  0.01704  0.17655  0.16348  1.0000
  Mn  Mn38      1.0  0.17655  0.98296  0.83652  1.0000
  Mn  Mn39      1.0  0.98296  0.82345  0.16348  1.0000
  Mn  Mn40      1.0  0.82345  0.01704  0.83652  1.0000
  Mn  Mn41      1.0  0.48296  0.67655  0.16348  1.0000
  Mn  Mn42      1.0  0.67655  0.51704  0.83652  1.0000
  Mn  Mn43      1.0  0.51704  0.32345  0.16348  1.0000
  Mn  Mn44      1.0  0.32345  0.48296  0.83652  1.0000
  Mn  Mn45      1.0  0.51704  0.67655  0.66348  1.0000
  Mn  Mn46      1.0  0.67655  0.48296  0.33652  1.0000
  Mn  Mn47      1.0  0.48296  0.32345  0.66348  1.0000
  Mn  Mn48      1.0  0.32345  0.51704  0.33652  1.0000
  Mn  Mn49      1.0  0.86210  0.16841  0.95490  1.0000
  Mn  Mn50      1.0  0.16841  0.13790  0.04510  1.0000
  Mn  Mn51      1.0  0.13790  0.83159  0.95490  1.0000
  Mn  Mn52      1.0  0.83159  0.86210  0.04510  1.0000
  Mn  Mn53      1.0  0.13790  0.16841  0.45490  1.0000
  Mn  Mn54      1.0  0.16841  0.86210  0.54510  1.0000
  Mn  Mn55      1.0  0.86210  0.83159  0.45490  1.0000
  Mn  Mn56      1.0  0.83159  0.13790  0.54510  1.0000
  Mn  Mn57      1.0  0.36210  0.66841  0.45490  1.0000
  Mn  Mn58      1.0  0.66841  0.63790  0.54510  1.0000
  Mn  Mn59      1.0  0.63790  0.33159  0.45490  1.0000
  Mn  Mn60      1.0  0.33159  0.36210  0.54510  1.0000
  Mn  Mn61      1.0  0.63790  0.66841  0.95490  1.0000
  Mn  Mn62      1.0  0.66841  0.36210  0.04510  1.0000
  Mn  Mn63      1.0  0.36210  0.33159  0.95490  1.0000
  Mn  Mn64      1.0  0.33159  0.63790  0.04510  1.0000
  Mn  Mn65      1.0  0.22135  0.18628  0.90256  1.0000
  Mn  Mn66      1.0  0.18628  0.77865  0.09744  1.0000
  Mn  Mn67      1.0  0.77865  0.81372  0.90256  1.0000
  Mn  Mn68      1.0  0.81372  0.22135  0.09744  1.0000
  Mn  Mn69      1.0  0.77865  0.18628  0.40256  1.0000
  Mn  Mn70      1.0  0.18628  0.22135  0.59744  1.0000
  Mn  Mn71      1.0  0.22135  0.81372  0.40256  1.0000
  Mn  Mn72      1.0  0.81372  0.77865  0.59744  1.0000
  Mn  Mn73      1.0  0.72135  0.68628  0.40256  1.0000
  Mn  Mn74      1.0  0.68628  0.27865  0.59744  1.0000
  Mn  Mn75      1.0  0.27865  0.31372  0.40256  1.0000
  Mn  Mn76      1.0  0.31372  0.72135  0.59744  1.0000
  Mn  Mn77      1.0  0.27865  0.68628  0.90256  1.0000
  Mn  Mn78      1.0  0.68628  0.72135  0.09744  1.0000
  Mn  Mn79      1.0  0.72135  0.31372  0.90256  1.0000
  Mn  Mn80      1.0  0.31372  0.27865  0.09744  1.0000
  O   O1        1.0  0.93600  0.24270  0.67870  1.0000
  O   O2        1.0  0.24270  0.06400  0.32130  1.0000
  O   O3        1.0  0.06400  0.75730  0.67870  1.0000
  O   O4        1.0  0.75730  0.93600  0.32130  1.0000
  O   O5        1.0  0.06400  0.24270  0.17870  1.0000
  O   O6        1.0  0.24270  0.93600  0.82130  1.0000
  O   O7        1.0  0.93600  0.75730  0.17870  1.0000
  O   O8        1.0  0.75730  0.06400  0.82130  1.0000
  O   O9        1.0  0.43600  0.74270  0.17870  1.0000
  O   O10       1.0  0.74270  0.56400  0.82130  1.0000
  O   O11       1.0  0.56400  0.25730  0.17870  1.0000
  O   O12       1.0  0.25730  0.43600  0.82130  1.0000
  O   O13       1.0  0.56400  0.74270  0.67870  1.0000
  O   O14       1.0  0.74270  0.43600  0.32130  1.0000
  O   O15       1.0  0.43600  0.25730  0.67870  1.0000
  O   O16       1.0  0.25730  0.56400  0.32130  1.0000
  O   O17       1.0  0.83500  0.15660  0.06480  1.0000
  O   O18       1.0  0.15660  0.16500  0.93520  1.0000
  O   O19       1.0  0.16500  0.84340  0.06480  1.0000
  O   O20       1.0  0.84340  0.83500  0.93520  1.0000
  O   O21       1.0  0.16500  0.15660  0.56480  1.0000
  O   O22       1.0  0.15660  0.83500  0.43520  1.0000
  O   O23       1.0  0.83500  0.84340  0.56480  1.0000
  O   O24       1.0  0.84340  0.16500  0.43520  1.0000
  O   O25       1.0  0.33500  0.65660  0.56480  1.0000
  O   O26       1.0  0.65660  0.66500  0.43520  1.0000
  O   O27       1.0  0.66500  0.34340  0.56480  1.0000
  O   O28       1.0  0.34340  0.33500  0.43520  1.0000
  O   O29       1.0  0.66500  0.65660  0.06480  1.0000
  O   O30       1.0  0.65660  0.33500  0.93520  1.0000
  O   O31       1.0  0.33500  0.34340  0.06480  1.0000
  O   O32       1.0  0.34340  0.66500  0.93520  1.0000
  O   O33       1.0  0.07760  0.44080  0.78340  1.0000
  O   O34       1.0  0.44080  0.92240  0.21660  1.0000
  O   O35       1.0  0.92240  0.55920  0.78340  1.0000
  O   O36       1.0  0.55920  0.07760  0.21660  1.0000
  O   O37       1.0  0.92240  0.44080  0.28340  1.0000
  O   O38       1.0  0.44080  0.07760  0.71660  1.0000
  O   O39       1.0  0.07760  0.55920  0.28340  1.0000
  O   O40       1.0  0.55920  0.92240  0.71660  1.0000
  O   O41       1.0  0.57760  0.94080  0.28340  1.0000
  O   O42       1.0  0.94080  0.42240  0.71660  1.0000
  O   O43       1.0  0.42240  0.05920  0.28340  1.0000
  O   O44       1.0  0.05920  0.57760  0.71660  1.0000
  O   O45       1.0  0.42240  0.94080  0.78340  1.0000
  O   O46       1.0  0.94080  0.57760  0.21660  1.0000
  O   O47       1.0  0.57760  0.05920  0.78340  1.0000
  O   O48       1.0  0.05920  0.42240  0.21660  1.0000
  O   O49       1.0  0.97540  0.24900  0.83580  1.0000
  O   O50       1.0  0.24900  0.02460  0.16420  1.0000
  O   O51       1.0  0.02460  0.75100  0.83580  1.0000
  O   O52       1.0  0.75100  0.97540  0.16420  1.0000
  O   O53       1.0  0.02460  0.24900  0.33580  1.0000
  O   O54       1.0  0.24900  0.97540  0.66420  1.0000
  O   O55       1.0  0.97540  0.75100  0.33580  1.0000
  O   O56       1.0  0.75100  0.02460  0.66420  1.0000
  O   O57       1.0  0.47540  0.74900  0.33580  1.0000
  O   O58       1.0  0.74900  0.52460  0.66420  1.0000
  O   O59       1.0  0.52460  0.25100  0.33580  1.0000
  O   O60       1.0  0.25100  0.47540  0.66420  1.0000
  O   O61       1.0  0.52460  0.74900  0.83580  1.0000
  O   O62       1.0  0.74900  0.47540  0.16420  1.0000
  O   O63       1.0  0.47540  0.25100  0.83580  1.0000
  O   O64       1.0  0.25100  0.52460  0.16420  1.0000
  O   O65       1.0  0.81610  0.04390  0.89400  1.0000
  O   O66       1.0  0.04390  0.18390  0.10600  1.0000
  O   O67       1.0  0.18390  0.95610  0.89400  1.0000
  O   O68       1.0  0.95610  0.81610  0.10600  1.0000
  O   O69       1.0  0.18390  0.04390  0.39400  1.0000
  O   O70       1.0  0.04390  0.81610  0.60600  1.0000
  O   O71       1.0  0.81610  0.95610  0.39400  1.0000
  O   O72       1.0  0.95610  0.18390  0.60600  1.0000
  O   O73       1.0  0.31610  0.54390  0.39400  1.0000
  O   O74       1.0  0.54390  0.68390  0.60600  1.0000
  O   O75       1.0  0.68390  0.45610  0.39400  1.0000
  O   O76       1.0  0.45610  0.31610  0.60600  1.0000
  O   O77       1.0  0.68390  0.54390  0.89400  1.0000
  O   O78       1.0  0.54390  0.31610  0.10600  1.0000
  O   O79       1.0  0.31610  0.45610  0.89400  1.0000
  O   O80       1.0  0.45610  0.68390  0.10600  1.0000
  O   O81       1.0  0.99730  0.17930  0.89660  1.0000
  O   O82       1.0  0.17930  0.00270  0.10340  1.0000
  O   O83       1.0  0.00270  0.82070  0.89660  1.0000
  O   O84       1.0  0.82070  0.99730  0.10340  1.0000
  O   O85       1.0  0.00270  0.17930  0.39660  1.0000
  O   O86       1.0  0.17930  0.99730  0.60340  1.0000
  O   O87       1.0  0.99730  0.82070  0.39660  1.0000
  O   O88       1.0  0.82070  0.00270  0.60340  1.0000
  O   O89       1.0  0.49730  0.67930  0.39660  1.0000
  O   O90       1.0  0.67930  0.50270  0.60340  1.0000
  O   O91       1.0  0.50270  0.32070  0.39660  1.0000
  O   O92       1.0  0.32070  0.49730  0.60340  1.0000
  O   O93       1.0  0.50270  0.67930  0.89660  1.0000
  O   O94       1.0  0.67930  0.49730  0.10340  1.0000
  O   O95       1.0  0.49730  0.32070  0.89660  1.0000
  O   O96       1.0  0.32070  0.50270  0.10340  1.0000
  O   O97       1.0  0.02450  0.34770  0.72990  1.0000
  O   O98       1.0  0.34770  0.97550  0.27010  1.0000
  O   O99       1.0  0.97550  0.65230  0.72990  1.0000
  O   O100      1.0  0.65230  0.02450  0.27010  1.0000
  O   O101      1.0  0.97550  0.34770  0.22990  1.0000
  O   O102      1.0  0.34770  0.02450  0.77010  1.0000
  O   O103      1.0  0.02450  0.65230  0.22990  1.0000
  O   O104      1.0  0.65230  0.97550  0.77010  1.0000
  O   O105      1.0  0.52450  0.84770  0.22990  1.0000
  O   O106      1.0  0.84770  0.47550  0.77010  1.0000
  O   O107      1.0  0.47550  0.15230  0.22990  1.0000
  O   O108      1.0  0.15230  0.52450  0.77010  1.0000
  O   O109      1.0  0.47550  0.84770  0.72990  1.0000
  O   O110      1.0  0.84770  0.52450  0.27010  1.0000
  O   O111      1.0  0.52450  0.15230  0.72990  1.0000
  O   O112      1.0  0.15230  0.47550  0.27010  1.0000
  O   O113      1.0  0.91830  0.30140  0.72200  1.0000
  O   O114      1.0  0.30140  0.08170  0.27800  1.0000
  O   O115      1.0  0.08170  0.69860  0.72200  1.0000
  O   O116      1.0  0.69860  0.91830  0.27800  1.0000
  O   O117      1.0  0.08170  0.30140  0.22200  1.0000
  O   O118      1.0  0.30140  0.91830  0.77800  1.0000
  O   O119      1.0  0.91830  0.69860  0.22200  1.0000
  O   O120      1.0  0.69860  0.08170  0.77800  1.0000
  O   O121      1.0  0.41830  0.80140  0.22200  1.0000
  O   O122      1.0  0.80140  0.58170  0.77800  1.0000
  O   O123      1.0  0.58170  0.19860  0.22200  1.0000
  O   O124      1.0  0.19860  0.41830  0.77800  1.0000
  O   O125      1.0  0.58170  0.80140  0.72200  1.0000
  O   O126      1.0  0.80140  0.41830  0.27800  1.0000
  O   O127      1.0  0.41830  0.19860  0.72200  1.0000
  O   O128      1.0  0.19860  0.58170  0.27800  1.0000
  O   O129      1.0  0.09890  0.38340  0.72690  1.0000
  O   O130      1.0  0.38340  0.90110  0.27310  1.0000
  O   O131      1.0  0.90110  0.61660  0.72690  1.0000
  O   O132      1.0  0.61660  0.09890  0.27310  1.0000
  O   O133      1.0  0.90110  0.38340  0.22690  1.0000
  O   O134      1.0  0.38340  0.09890  0.77310  1.0000
  O   O135      1.0  0.09890  0.61660  0.22690  1.0000
  O   O136      1.0  0.61660  0.90110  0.77310  1.0000
  O   O137      1.0  0.59890  0.88340  0.22690  1.0000
  O   O138      1.0  0.88340  0.40110  0.77310  1.0000
  O   O139      1.0  0.40110  0.11660  0.22690  1.0000
  O   O140      1.0  0.11660  0.59890  0.77310  1.0000
  O   O141      1.0  0.40110  0.88340  0.72690  1.0000
  O   O142      1.0  0.88340  0.59890  0.27310  1.0000
  O   O143      1.0  0.59890  0.11660  0.72690  1.0000
  O   O144      1.0  0.11660  0.40110  0.27310  1.0000
  O   O145      1.0  0.85080  0.25320  0.04910  1.0000
  O   O146      1.0  0.25320  0.14920  0.95090  1.0000
  O   O147      1.0  0.14920  0.74680  0.04910  1.0000
  O   O148      1.0  0.74680  0.85080  0.95090  1.0000
  O   O149      1.0  0.14920  0.25320  0.54910  1.0000
  O   O150      1.0  0.25320  0.85080  0.45090  1.0000
  O   O151      1.0  0.85080  0.74680  0.54910  1.0000
  O   O152      1.0  0.74680  0.14920  0.45090  1.0000
  O   O153      1.0  0.35080  0.75320  0.54910  1.0000
  O   O154      1.0  0.75320  0.64920  0.45090  1.0000
  O   O155      1.0  0.64920  0.24680  0.54910  1.0000
  O   O156      1.0  0.24680  0.35080  0.45090  1.0000
  O   O157      1.0  0.64920  0.75320  0.04910  1.0000
  O   O158      1.0  0.75320  0.35080  0.95090  1.0000
  O   O159      1.0  0.35080  0.24680  0.04910  1.0000
  O   O160      1.0  0.24680  0.64920  0.95090  1.0000
  O   O161      1.0  0.71990  0.23590  0.93130  1.0000
  O   O162      1.0  0.23590  0.28010  0.06870  1.0000
  O   O163      1.0  0.28010  0.76410  0.93130  1.0000
  O   O164      1.0  0.76410  0.71990  0.06870  1.0000
  O   O165      1.0  0.28010  0.23590  0.43130  1.0000
  O   O166      1.0  0.23590  0.71990  0.56870  1.0000
  O   O167      1.0  0.71990  0.76410  0.43130  1.0000
  O   O168      1.0  0.76410  0.28010  0.56870  1.0000
  O   O169      1.0  0.21990  0.73590  0.43130  1.0000
  O   O170      1.0  0.73590  0.78010  0.56870  1.0000
  O   O171      1.0  0.78010  0.26410  0.43130  1.0000
  O   O172      1.0  0.26410  0.21990  0.56870  1.0000
  O   O173      1.0  0.78010  0.73590  0.93130  1.0000
  O   O174      1.0  0.73590  0.21990  0.06870  1.0000
  O   O175      1.0  0.21990  0.26410  0.93130  1.0000
  O   O176      1.0  0.26410  0.78010  0.06870  1.0000
  O   O177      1.0  0.23240  0.04300  0.85470  1.0000
  O   O178      1.0  0.04300  0.76760  0.14530  1.0000
  O   O179      1.0  0.76760  0.95700  0.85470  1.0000
  O   O180      1.0  0.95700  0.23240  0.14530  1.0000
  O   O181      1.0  0.76760  0.04300  0.35470  1.0000
  O   O182      1.0  0.04300  0.23240  0.64530  1.0000
  O   O183      1.0  0.23240  0.95700  0.35470  1.0000
  O   O184      1.0  0.95700  0.76760  0.64530  1.0000
  O   O185      1.0  0.73240  0.54300  0.35470  1.0000
  O   O186      1.0  0.54300  0.26760  0.64530  1.0000
  O   O187      1.0  0.26760  0.45700  0.35470  1.0000
  O   O188      1.0  0.45700  0.73240  0.64530  1.0000
  O   O189      1.0  0.26760  0.54300  0.85470  1.0000
  O   O190      1.0  0.54300  0.73240  0.14530  1.0000
  O   O191      1.0  0.73240  0.45700  0.85470  1.0000
  O   O192      1.0  0.45700  0.26760  0.14530  1.0000
  O   O193      1.0  0.08720  0.21670  0.85040  1.0000
  O   O194      1.0  0.21670  0.91280  0.14960  1.0000
  O   O195      1.0  0.91280  0.78330  0.85040  1.0000
  O   O196      1.0  0.78330  0.08720  0.14960  1.0000
  O   O197      1.0  0.91280  0.21670  0.35040  1.0000
  O   O198      1.0  0.21670  0.08720  0.64960  1.0000
  O   O199      1.0  0.08720  0.78330  0.35040  1.0000
  O   O200      1.0  0.78330  0.91280  0.64960  1.0000
  O   O201      1.0  0.58720  0.71670  0.35040  1.0000
  O   O202      1.0  0.71670  0.41280  0.64960  1.0000
  O   O203      1.0  0.41280  0.28330  0.35040  1.0000
  O   O204      1.0  0.28330  0.58720  0.64960  1.0000
  O   O205      1.0  0.41280  0.71670  0.85040  1.0000
  O   O206      1.0  0.71670  0.58720  0.14960  1.0000
  O   O207      1.0  0.58720  0.28330  0.85040  1.0000
  O   O208      1.0  0.28330  0.41280  0.14960  1.0000
  O   O209      1.0  0.93620  0.15810  0.93940  1.0000
  O   O210      1.0  0.15810  0.06380  0.06060  1.0000
  O   O211      1.0  0.06380  0.84190  0.93940  1.0000
  O   O212      1.0  0.84190  0.93620  0.06060  1.0000
  O   O213      1.0  0.06380  0.15810  0.43940  1.0000
  O   O214      1.0  0.15810  0.93620  0.56060  1.0000
  O   O215      1.0  0.93620  0.84190  0.43940  1.0000
  O   O216      1.0  0.84190  0.06380  0.56060  1.0000
  O   O217      1.0  0.43620  0.65810  0.43940  1.0000
  O   O218      1.0  0.65810  0.56380  0.56060  1.0000
  O   O219      1.0  0.56380  0.34190  0.43940  1.0000
  O   O220      1.0  0.34190  0.43620  0.56060  1.0000
  O   O221      1.0  0.56380  0.65810  0.93940  1.0000
  O   O222      1.0  0.65810  0.43620  0.06060  1.0000
  O   O223      1.0  0.43620  0.34190  0.93940  1.0000
  O   O224      1.0  0.34190  0.56380  0.06060  1.0000
  O   O225      1.0  0.87530  0.23350  0.99190  1.0000
  O   O226      1.0  0.23350  0.12470  0.00810  1.0000
  O   O227      1.0  0.12470  0.76650  0.99190  1.0000
  O   O228      1.0  0.76650  0.87530  0.00810  1.0000
  O   O229      1.0  0.12470  0.23350  0.49190  1.0000
  O   O230      1.0  0.23350  0.87530  0.50810  1.0000
  O   O231      1.0  0.87530  0.76650  0.49190  1.0000
  O   O232      1.0  0.76650  0.12470  0.50810  1.0000
  O   O233      1.0  0.37530  0.73350  0.49190  1.0000
  O   O234      1.0  0.73350  0.62470  0.50810  1.0000
  O   O235      1.0  0.62470  0.26650  0.49190  1.0000
  O   O236      1.0  0.26650  0.37530  0.50810  1.0000
  O   O237      1.0  0.62470  0.73350  0.99190  1.0000
  O   O238      1.0  0.73350  0.37530  0.00810  1.0000
  O   O239      1.0  0.37530  0.26650  0.99190  1.0000
  O   O240      1.0  0.26650  0.62470  0.00810  1.0000
  O   O241      1.0  0.84280  0.09370  0.93490  1.0000
  O   O242      1.0  0.09370  0.15720  0.06510  1.0000
  O   O243      1.0  0.15720  0.90630  0.93490  1.0000
  O   O244      1.0  0.90630  0.84280  0.06510  1.0000
  O   O245      1.0  0.15720  0.09370  0.43490  1.0000
  O   O246      1.0  0.09370  0.84280  0.56510  1.0000
  O   O247      1.0  0.84280  0.90630  0.43490  1.0000
  O   O248      1.0  0.90630  0.15720  0.56510  1.0000
  O   O249      1.0  0.34280  0.59370  0.43490  1.0000
  O   O250      1.0  0.59370  0.65720  0.56510  1.0000
  O   O251      1.0  0.65720  0.40630  0.43490  1.0000
  O   O252      1.0  0.40630  0.34280  0.56510  1.0000
  O   O253      1.0  0.65720  0.59370  0.93490  1.0000
  O   O254      1.0  0.59370  0.34280  0.06510  1.0000
  O   O255      1.0  0.34280  0.40630  0.93490  1.0000
  O   O256      1.0  0.40630  0.65720  0.06510  1.0000
  O   O257      1.0  0.85120  0.21940  0.91050  1.0000
  O   O258      1.0  0.21940  0.14880  0.08950  1.0000
  O   O259      1.0  0.14880  0.78060  0.91050  1.0000
  O   O260      1.0  0.78060  0.85120  0.08950  1.0000
  O   O261      1.0  0.14880  0.21940  0.41050  1.0000
  O   O262      1.0  0.21940  0.85120  0.58950  1.0000
  O   O263      1.0  0.85120  0.78060  0.41050  1.0000
  O   O264      1.0  0.78060  0.14880  0.58950  1.0000
  O   O265      1.0  0.35120  0.71940  0.41050  1.0000
  O   O266      1.0  0.71940  0.64880  0.58950  1.0000
  O   O267      1.0  0.64880  0.28060  0.41050  1.0000
  O   O268      1.0  0.28060  0.35120  0.58950  1.0000
  O   O269      1.0  0.64880  0.71940  0.91050  1.0000
  O   O270      1.0  0.71940  0.35120  0.08950  1.0000
  O   O271      1.0  0.35120  0.28060  0.91050  1.0000
  O   O272      1.0  0.28060  0.64880  0.08950  1.0000
  O   O273      1.0  0.94280  0.30550  0.79900  1.0000
  O   O274      1.0  0.30550  0.05720  0.20100  1.0000
  O   O275      1.0  0.05720  0.69450  0.79900  1.0000
  O   O276      1.0  0.69450  0.94280  0.20100  1.0000
  O   O277      1.0  0.05720  0.30550  0.29900  1.0000
  O   O278      1.0  0.30550  0.94280  0.70100  1.0000
  O   O279      1.0  0.94280  0.69450  0.29900  1.0000
  O   O280      1.0  0.69450  0.05720  0.70100  1.0000
  O   O281      1.0  0.44280  0.80550  0.29900  1.0000
  O   O282      1.0  0.80550  0.55720  0.70100  1.0000
  O   O283      1.0  0.55720  0.19450  0.29900  1.0000
  O   O284      1.0  0.19450  0.44280  0.70100  1.0000
  O   O285      1.0  0.55720  0.80550  0.79900  1.0000
  O   O286      1.0  0.80550  0.44280  0.20100  1.0000
  O   O287      1.0  0.44280  0.19450  0.79900  1.0000
  O   O288      1.0  0.19450  0.55720  0.20100  1.0000
  O   O289      1.0  0.24140  0.12260  0.86790  1.0000
  O   O290      1.0  0.12260  0.75860  0.13210  1.0000
  O   O291      1.0  0.75860  0.87740  0.86790  1.0000
  O   O292      1.0  0.87740  0.24140  0.13210  1.0000
  O   O293      1.0  0.75860  0.12260  0.36790  1.0000
  O   O294      1.0  0.12260  0.24140  0.63210  1.0000
  O   O295      1.0  0.24140  0.87740  0.36790  1.0000
  O   O296      1.0  0.87740  0.75860  0.63210  1.0000
  O   O297      1.0  0.74140  0.62260  0.36790  1.0000
  O   O298      1.0  0.62260  0.25860  0.63210  1.0000
  O   O299      1.0  0.25860  0.37740  0.36790  1.0000
  O   O300      1.0  0.37740  0.74140  0.63210  1.0000
  O   O301      1.0  0.25860  0.62260  0.86790  1.0000
  O   O302      1.0  0.62260  0.74140  0.13210  1.0000
  O   O303      1.0  0.74140  0.37740  0.86790  1.0000
  O   O304      1.0  0.37740  0.25860  0.13210  1.0000
  O   O305      1.0  0.79840  0.27960  0.88870  1.0000
  O   O306      1.0  0.27960  0.20160  0.11130  1.0000
  O   O307      1.0  0.20160  0.72040  0.88870  1.0000
  O   O308      1.0  0.72040  0.79840  0.11130  1.0000
  O   O309      1.0  0.20160  0.27960  0.38870  1.0000
  O   O310      1.0  0.27960  0.79840  0.61130  1.0000
  O   O311      1.0  0.79840  0.72040  0.38870  1.0000
  O   O312      1.0  0.72040  0.20160  0.61130  1.0000
  O   O313      1.0  0.29840  0.77960  0.38870  1.0000
  O   O314      1.0  0.77960  0.70160  0.61130  1.0000
  O   O315      1.0  0.70160  0.22040  0.38870  1.0000
  O   O316      1.0  0.22040  0.29840  0.61130  1.0000
  O   O317      1.0  0.70160  0.77960  0.88870  1.0000
  O   O318      1.0  0.77960  0.29840  0.11130  1.0000
  O   O319      1.0  0.29840  0.22040  0.88870  1.0000
  O   O320      1.0  0.22040  0.70160  0.11130  1.0000
  O   O321      1.0  0.00110  0.40750  0.78710  1.0000
  O   O322      1.0  0.40750  0.99890  0.21290  1.0000
  O   O323      1.0  0.99890  0.59250  0.78710  1.0000
  O   O324      1.0  0.59250  0.00110  0.21290  1.0000
  O   O325      1.0  0.99890  0.40750  0.28710  1.0000
  O   O326      1.0  0.40750  0.00110  0.71290  1.0000
  O   O327      1.0  0.00110  0.59250  0.28710  1.0000
  O   O328      1.0  0.59250  0.99890  0.71290  1.0000
  O   O329      1.0  0.50110  0.90750  0.28710  1.0000
  O   O330      1.0  0.90750  0.49890  0.71290  1.0000
  O   O331      1.0  0.49890  0.09250  0.28710  1.0000
  O   O332      1.0  0.09250  0.50110  0.71290  1.0000
  O   O333      1.0  0.49890  0.90750  0.78710  1.0000
  O   O334      1.0  0.90750  0.50110  0.21290  1.0000
  O   O335      1.0  0.50110  0.09250  0.78710  1.0000
  O   O336      1.0  0.09250  0.49890  0.21290  1.0000
  O   O337      1.0  0.85270  0.13420  0.00760  1.0000
  O   O338      1.0  0.13420  0.14730  0.99240  1.0000
  O   O339      1.0  0.14730  0.86580  0.00760  1.0000
  O   O340      1.0  0.86580  0.85270  0.99240  1.0000
  O   O341      1.0  0.14730  0.13420  0.50760  1.0000
  O   O342      1.0  0.13420  0.85270  0.49240  1.0000
  O   O343      1.0  0.85270  0.86580  0.50760  1.0000
  O   O344      1.0  0.86580  0.14730  0.49240  1.0000
  O   O345      1.0  0.35270  0.63420  0.50760  1.0000
  O   O346      1.0  0.63420  0.64730  0.49240  1.0000
  O   O347      1.0  0.64730  0.36580  0.50760  1.0000
  O   O348      1.0  0.36580  0.35270  0.49240  1.0000
  O   O349      1.0  0.64730  0.63420  0.00760  1.0000
  O   O350      1.0  0.63420  0.35270  0.99240  1.0000
  O   O351      1.0  0.35270  0.36580  0.00760  1.0000
  O   O352      1.0  0.36580  0.64730  0.99240  1.0000
  O   O353      1.0  0.17180  0.21000  0.86280  1.0000
  O   O354      1.0  0.21000  0.82820  0.13720  1.0000
  O   O355      1.0  0.82820  0.79000  0.86280  1.0000
  O   O356      1.0  0.79000  0.17180  0.13720  1.0000
  O   O357      1.0  0.82820  0.21000  0.36280  1.0000
  O   O358      1.0  0.21000  0.17180  0.63720  1.0000
  O   O359      1.0  0.17180  0.79000  0.36280  1.0000
  O   O360      1.0  0.79000  0.82820  0.63720  1.0000
  O   O361      1.0  0.67180  0.71000  0.36280  1.0000
  O   O362      1.0  0.71000  0.32820  0.63720  1.0000
  O   O363      1.0  0.32820  0.29000  0.36280  1.0000
  O   O364      1.0  0.29000  0.67180  0.63720  1.0000
  O   O365      1.0  0.32820  0.71000  0.86280  1.0000
  O   O366      1.0  0.71000  0.67180  0.13720  1.0000
  O   O367      1.0  0.67180  0.29000  0.86280  1.0000
  O   O368      1.0  0.29000  0.32820  0.13720  1.0000
  O   O369      1.0  0.77610  0.18470  0.95490  1.0000
  O   O370      1.0  0.18470  0.22390  0.04510  1.0000
  O   O371      1.0  0.22390  0.81530  0.95490  1.0000
  O   O372      1.0  0.81530  0.77610  0.04510  1.0000
  O   O373      1.0  0.22390  0.18470  0.45490  1.0000
  O   O374      1.0  0.18470  0.77610  0.54510  1.0000
  O   O375      1.0  0.77610  0.81530  0.45490  1.0000
  O   O376      1.0  0.81530  0.22390  0.54510  1.0000
  O   O377      1.0  0.27610  0.68470  0.45490  1.0000
  O   O378      1.0  0.68470  0.72390  0.54510  1.0000
  O   O379      1.0  0.72390  0.31530  0.45490  1.0000
  O   O380      1.0  0.31530  0.27610  0.54510  1.0000
  O   O381      1.0  0.72390  0.68470  0.95490  1.0000
  O   O382      1.0  0.68470  0.27610  0.04510  1.0000
  O   O383      1.0  0.27610  0.31530  0.95490  1.0000
  O   O384      1.0  0.31530  0.72390  0.04510  1.0000
  N   N1        1.0  0.00280  0.18360  0.78160  1.0000
  N   N2        1.0  0.18360  0.99720  0.21840  1.0000
  N   N3        1.0  0.99720  0.81640  0.78160  1.0000
  N   N4        1.0  0.81640  0.00280  0.21840  1.0000
  N   N5        1.0  0.99720  0.18360  0.28160  1.0000
  N   N6        1.0  0.18360  0.00280  0.71840  1.0000
  N   N7        1.0  0.00280  0.81640  0.28160  1.0000
  N   N8        1.0  0.81640  0.99720  0.71840  1.0000
  N   N9        1.0  0.50280  0.68360  0.28160  1.0000
  N   N10       1.0  0.68360  0.49720  0.71840  1.0000
  N   N11       1.0  0.49720  0.31640  0.28160  1.0000
  N   N12       1.0  0.31640  0.50280  0.71840  1.0000
  N   N13       1.0  0.49720  0.68360  0.78160  1.0000
  N   N14       1.0  0.68360  0.50280  0.21840  1.0000
  N   N15       1.0  0.50280  0.31640  0.78160  1.0000
  N   N16       1.0  0.31640  0.49720  0.21840  1.0000
  N   N17       1.0  0.88310  0.07360  0.84400  1.0000
  N   N18       1.0  0.07360  0.11690  0.15600  1.0000
  N   N19       1.0  0.11690  0.92640  0.84400  1.0000
  N   N20       1.0  0.92640  0.88310  0.15600  1.0000
  N   N21       1.0  0.11690  0.07360  0.34400  1.0000
  N   N22       1.0  0.07360  0.88310  0.65600  1.0000
  N   N23       1.0  0.88310  0.92640  0.34400  1.0000
  N   N24       1.0  0.92640  0.11690  0.65600  1.0000
  N   N25       1.0  0.38310  0.57360  0.34400  1.0000
  N   N26       1.0  0.57360  0.61690  0.65600  1.0000
  N   N27       1.0  0.61690  0.42640  0.34400  1.0000
  N   N28       1.0  0.42640  0.38310  0.65600  1.0000
  N   N29       1.0  0.61690  0.57360  0.84400  1.0000
  N   N30       1.0  0.57360  0.38310  0.15600  1.0000
  N   N31       1.0  0.38310  0.42640  0.84400  1.0000
  N   N32       1.0  0.42640  0.61690  0.15600  1.0000
  N   N33       1.0  0.94850  0.12350  0.84650  1.0000
  N   N34       1.0  0.12350  0.05150  0.15350  1.0000
  N   N35       1.0  0.05150  0.87650  0.84650  1.0000
  N   N36       1.0  0.87650  0.94850  0.15350  1.0000
  N   N37       1.0  0.05150  0.12350  0.34650  1.0000
  N   N38       1.0  0.12350  0.94850  0.65350  1.0000
  N   N39       1.0  0.94850  0.87650  0.34650  1.0000
  N   N40       1.0  0.87650  0.05150  0.65350  1.0000
  N   N41       1.0  0.44850  0.62350  0.34650  1.0000
  N   N42       1.0  0.62350  0.55150  0.65350  1.0000
  N   N43       1.0  0.55150  0.37650  0.34650  1.0000
  N   N44       1.0  0.37650  0.44850  0.65350  1.0000
  N   N45       1.0  0.55150  0.62350  0.84650  1.0000
  N   N46       1.0  0.62350  0.44850  0.15350  1.0000
  N   N47       1.0  0.44850  0.37650  0.84650  1.0000
  N   N48       1.0  0.37650  0.55150  0.15350  1.0000
  N   N49       1.0  0.13180  0.05090  0.84270  1.0000
  N   N50       1.0  0.05090  0.86820  0.15730  1.0000
  N   N51       1.0  0.86820  0.94910  0.84270  1.0000
  N   N52       1.0  0.94910  0.13180  0.15730  1.0000
  N   N53       1.0  0.86820  0.05090  0.34270  1.0000
  N   N54       1.0  0.05090  0.13180  0.65730  1.0000
  N   N55       1.0  0.13180  0.94910  0.34270  1.0000
  N   N56       1.0  0.94910  0.86820  0.65730  1.0000
  N   N57       1.0  0.63180  0.55090  0.34270  1.0000
  N   N58       1.0  0.55090  0.36820  0.65730  1.0000
  N   N59       1.0  0.36820  0.44910  0.34270  1.0000
  N   N60       1.0  0.44910  0.63180  0.65730  1.0000
  N   N61       1.0  0.36820  0.55090  0.84270  1.0000
  N   N62       1.0  0.55090  0.63180  0.15730  1.0000
  N   N63       1.0  0.63180  0.44910  0.84270  1.0000
  N   N64       1.0  0.44910  0.36820  0.15730  1.0000
  N   N65       1.0  0.07690  0.11730  0.84030  1.0000
  N   N66       1.0  0.11730  0.92310  0.15970  1.0000
  N   N67       1.0  0.92310  0.88270  0.84030  1.0000
  N   N68       1.0  0.88270  0.07690  0.15970  1.0000
  N   N69       1.0  0.92310  0.11730  0.34030  1.0000
  N   N70       1.0  0.11730  0.07690  0.65970  1.0000
  N   N71       1.0  0.07690  0.88270  0.34030  1.0000
  N   N72       1.0  0.88270  0.92310  0.65970  1.0000
  N   N73       1.0  0.57690  0.61730  0.34030  1.0000
  N   N74       1.0  0.61730  0.42310  0.65970  1.0000
  N   N75       1.0  0.42310  0.38270  0.34030  1.0000
  N   N76       1.0  0.38270  0.57690  0.65970  1.0000
  N   N77       1.0  0.42310  0.61730  0.84030  1.0000
  N   N78       1.0  0.61730  0.57690  0.15970  1.0000
  N   N79       1.0  0.57690  0.38270  0.84030  1.0000
  N   N80       1.0  0.38270  0.42310  0.15970  1.0000
  N   N81       1.0  0.98770  0.18480  0.72150  1.0000
  N   N82       1.0  0.18480  0.01230  0.27850  1.0000
  N   N83       1.0  0.01230  0.81520  0.72150  1.0000
  N   N84       1.0  0.81520  0.98770  0.27850  1.0000
  N   N85       1.0  0.01230  0.18480  0.22150  1.0000
  N   N86       1.0  0.18480  0.98770  0.77850  1.0000
  N   N87       1.0  0.98770  0.81520  0.22150  1.0000
  N   N88       1.0  0.81520  0.01230  0.77850  1.0000
  N   N89       1.0  0.48770  0.68480  0.22150  1.0000
  N   N90       1.0  0.68480  0.51230  0.77850  1.0000
  N   N91       1.0  0.51230  0.31520  0.22150  1.0000
  N   N92       1.0  0.31520  0.48770  0.77850  1.0000
  N   N93       1.0  0.51230  0.68480  0.72150  1.0000
  N   N94       1.0  0.68480  0.48770  0.27850  1.0000
  N   N95       1.0  0.48770  0.31520  0.72150  1.0000
  N   N96       1.0  0.31520  0.51230  0.27850  1.0000
  C   C1        1.0  0.97000  0.22890  0.73570  1.0000
  C   C2        1.0  0.22890  0.03000  0.26430  1.0000
  C   C3        1.0  0.03000  0.77110  0.73570  1.0000
  C   C4        1.0  0.77110  0.97000  0.26430  1.0000
  C   C5        1.0  0.03000  0.22890  0.23570  1.0000
  C   C6        1.0  0.22890  0.97000  0.76430  1.0000
  C   C7        1.0  0.97000  0.77110  0.23570  1.0000
  C   C8        1.0  0.77110  0.03000  0.76430  1.0000
  C   C9        1.0  0.47000  0.72890  0.23570  1.0000
  C   C10       1.0  0.72890  0.53000  0.76430  1.0000
  C   C11       1.0  0.53000  0.27110  0.23570  1.0000
  C   C12       1.0  0.27110  0.47000  0.76430  1.0000
  C   C13       1.0  0.53000  0.72890  0.73570  1.0000
  C   C14       1.0  0.72890  0.47000  0.26430  1.0000
  C   C15       1.0  0.47000  0.27110  0.73570  1.0000
  C   C16       1.0  0.27110  0.53000  0.26430  1.0000
  C   C17       1.0  0.12600  0.13420  0.84880  1.0000
  C   C18       1.0  0.13420  0.87400  0.15120  1.0000
  C   C19       1.0  0.87400  0.86580  0.84880  1.0000
  C   C20       1.0  0.86580  0.12600  0.15120  1.0000
  C   C21       1.0  0.87400  0.13420  0.34880  1.0000
  C   C22       1.0  0.13420  0.12600  0.65120  1.0000
  C   C23       1.0  0.12600  0.86580  0.34880  1.0000
  C   C24       1.0  0.86580  0.87400  0.65120  1.0000
  C   C25       1.0  0.62600  0.63420  0.34880  1.0000
  C   C26       1.0  0.63420  0.37400  0.65120  1.0000
  C   C27       1.0  0.37400  0.36580  0.34880  1.0000
  C   C28       1.0  0.36580  0.62600  0.65120  1.0000
  C   C29       1.0  0.37400  0.63420  0.84880  1.0000
  C   C30       1.0  0.63420  0.62600  0.15120  1.0000
  C   C31       1.0  0.62600  0.36580  0.84880  1.0000
  C   C32       1.0  0.36580  0.37400  0.15120  1.0000
  C   C33       1.0  0.15670  0.09280  0.85140  1.0000
  C   C34       1.0  0.09280  0.84330  0.14860  1.0000
  C   C35       1.0  0.84330  0.90720  0.85140  1.0000
  C   C36       1.0  0.90720  0.15670  0.14860  1.0000
  C   C37       1.0  0.84330  0.09280  0.35140  1.0000
  C   C38       1.0  0.09280  0.15670  0.64860  1.0000
  C   C39       1.0  0.15670  0.90720  0.35140  1.0000
  C   C40       1.0  0.90720  0.84330  0.64860  1.0000
  C   C41       1.0  0.65670  0.59280  0.35140  1.0000
  C   C42       1.0  0.59280  0.34330  0.64860  1.0000
  C   C43       1.0  0.34330  0.40720  0.35140  1.0000
  C   C44       1.0  0.40720  0.65670  0.64860  1.0000
  C   C45       1.0  0.34330  0.59280  0.85140  1.0000
  C   C46       1.0  0.59280  0.65670  0.14860  1.0000
  C   C47       1.0  0.65670  0.40720  0.85140  1.0000
  C   C48       1.0  0.40720  0.34330  0.14860  1.0000
  C   C49       1.0  0.97730  0.22850  0.77340  1.0000
  C   C50       1.0  0.22850  0.02270  0.22660  1.0000
  C   C51       1.0  0.02270  0.77150  0.77340  1.0000
  C   C52       1.0  0.77150  0.97730  0.22660  1.0000
  C   C53       1.0  0.02270  0.22850  0.27340  1.0000
  C   C54       1.0  0.22850  0.97730  0.72660  1.0000
  C   C55       1.0  0.97730  0.77150  0.27340  1.0000
  C   C56       1.0  0.77150  0.02270  0.72660  1.0000
  C   C57       1.0  0.47730  0.72850  0.27340  1.0000
  C   C58       1.0  0.72850  0.52270  0.72660  1.0000
  C   C59       1.0  0.52270  0.27150  0.27340  1.0000
  C   C60       1.0  0.27150  0.47730  0.72660  1.0000
  C   C61       1.0  0.52270  0.72850  0.77340  1.0000
  C   C62       1.0  0.72850  0.47730  0.22660  1.0000
  C   C63       1.0  0.47730  0.27150  0.77340  1.0000
  C   C64       1.0  0.27150  0.52270  0.22660  1.0000
  C   C65       1.0  0.21370  0.08790  0.86000  1.0000
  C   C66       1.0  0.08790  0.78630  0.14000  1.0000
  C   C67       1.0  0.78630  0.91210  0.86000  1.0000
  C   C68       1.0  0.91210  0.21370  0.14000  1.0000
  C   C69       1.0  0.78630  0.08790  0.36000  1.0000
  C   C70       1.0  0.08790  0.21370  0.64000  1.0000
  C   C71       1.0  0.21370  0.91210  0.36000  1.0000
  C   C72       1.0  0.91210  0.78630  0.64000  1.0000
  C   C73       1.0  0.71370  0.58790  0.36000  1.0000
  C   C74       1.0  0.58790  0.28630  0.64000  1.0000
  C   C75       1.0  0.28630  0.41210  0.36000  1.0000
  C   C76       1.0  0.41210  0.71370  0.64000  1.0000
  C   C77       1.0  0.28630  0.58790  0.86000  1.0000
  C   C78       1.0  0.58790  0.71370  0.14000  1.0000
  C   C79       1.0  0.71370  0.41210  0.86000  1.0000
  C   C80       1.0  0.41210  0.28630  0.14000  1.0000
  C   C81       1.0  0.88490  0.09320  0.87870  1.0000
  C   C82       1.0  0.09320  0.11510  0.12130  1.0000
  C   C83       1.0  0.11510  0.90680  0.87870  1.0000
  C   C84       1.0  0.90680  0.88490  0.12130  1.0000
  C   C85       1.0  0.11510  0.09320  0.37870  1.0000
  C   C86       1.0  0.09320  0.88490  0.62130  1.0000
  C   C87       1.0  0.88490  0.90680  0.37870  1.0000
  C   C88       1.0  0.90680  0.11510  0.62130  1.0000
  C   C89       1.0  0.38490  0.59320  0.37870  1.0000
  C   C90       1.0  0.59320  0.61510  0.62130  1.0000
  C   C91       1.0  0.61510  0.40680  0.37870  1.0000
  C   C92       1.0  0.40680  0.38490  0.62130  1.0000
  C   C93       1.0  0.61510  0.59320  0.87870  1.0000
  C   C94       1.0  0.59320  0.38490  0.12130  1.0000
  C   C95       1.0  0.38490  0.40680  0.87870  1.0000
  C   C96       1.0  0.40680  0.61510  0.12130  1.0000
  C   C97       1.0  0.96650  0.26420  0.80570  1.0000
  C   C98       1.0  0.26420  0.03350  0.19430  1.0000
  C   C99       1.0  0.03350  0.73580  0.80570  1.0000
  C   C100      1.0  0.73580  0.96650  0.19430  1.0000
  C   C101      1.0  0.03350  0.26420  0.30570  1.0000
  C   C102      1.0  0.26420  0.96650  0.69430  1.0000
  C   C103      1.0  0.96650  0.73580  0.30570  1.0000
  C   C104      1.0  0.73580  0.03350  0.69430  1.0000
  C   C105      1.0  0.46650  0.76420  0.30570  1.0000
  C   C106      1.0  0.76420  0.53350  0.69430  1.0000
  C   C107      1.0  0.53350  0.23580  0.30570  1.0000
  C   C108      1.0  0.23580  0.46650  0.69430  1.0000
  C   C109      1.0  0.53350  0.76420  0.80570  1.0000
  C   C110      1.0  0.76420  0.46650  0.19430  1.0000
  C   C111      1.0  0.46650  0.23580  0.80570  1.0000
  C   C112      1.0  0.23580  0.53350  0.19430  1.0000
  C   C113      1.0  0.00860  0.16220  0.75140  1.0000
  C   C114      1.0  0.16220  0.99140  0.24860  1.0000
  C   C115      1.0  0.99140  0.83780  0.75140  1.0000
  C   C116      1.0  0.83780  0.00860  0.24860  1.0000
  C   C117      1.0  0.99140  0.16220  0.25140  1.0000
  C   C118      1.0  0.16220  0.00860  0.74860  1.0000
  C   C119      1.0  0.00860  0.83780  0.25140  1.0000
  C   C120      1.0  0.83780  0.99140  0.74860  1.0000
  C   C121      1.0  0.50860  0.66220  0.25140  1.0000
  C   C122      1.0  0.66220  0.49140  0.74860  1.0000
  C   C123      1.0  0.49140  0.33780  0.25140  1.0000
  C   C124      1.0  0.33780  0.50860  0.74860  1.0000
  C   C125      1.0  0.49140  0.66220  0.75140  1.0000
  C   C126      1.0  0.66220  0.50860  0.24860  1.0000
  C   C127      1.0  0.50860  0.33780  0.75140  1.0000
  C   C128      1.0  0.33780  0.49140  0.24860  1.0000
  H   H1        1.0  0.02700  0.13130  0.74940  1.0000
  H   H2        1.0  0.13130  0.97300  0.25060  1.0000
  H   H3        1.0  0.97300  0.86870  0.74940  1.0000
  H   H4        1.0  0.86870  0.02700  0.25060  1.0000
  H   H5        1.0  0.97300  0.13130  0.24940  1.0000
  H   H6        1.0  0.13130  0.02700  0.75060  1.0000
  H   H7        1.0  0.02700  0.86870  0.24940  1.0000
  H   H8        1.0  0.86870  0.97300  0.75060  1.0000
  H   H9        1.0  0.52700  0.63130  0.24940  1.0000
  H   H10       1.0  0.63130  0.47300  0.75060  1.0000
  H   H11       1.0  0.47300  0.36870  0.24940  1.0000
  H   H12       1.0  0.36870  0.52700  0.75060  1.0000
  H   H13       1.0  0.47300  0.63130  0.74940  1.0000
  H   H14       1.0  0.63130  0.52700  0.25060  1.0000
  H   H15       1.0  0.52700  0.36870  0.74940  1.0000
  H   H16       1.0  0.36870  0.47300  0.25060  1.0000
  C   C129      1.0  0.84500  0.07550  0.90540  1.0000
  C   C130      1.0  0.07550  0.15500  0.09460  1.0000
  C   C131      1.0  0.15500  0.92450  0.90540  1.0000
  C   C132      1.0  0.92450  0.84500  0.09460  1.0000
  C   C133      1.0  0.15500  0.07550  0.40540  1.0000
  C   C134      1.0  0.07550  0.84500  0.59460  1.0000
  C   C135      1.0  0.84500  0.92450  0.40540  1.0000
  C   C136      1.0  0.92450  0.15500  0.59460  1.0000
  C   C137      1.0  0.34500  0.57550  0.40540  1.0000
  C   C138      1.0  0.57550  0.65500  0.59460  1.0000
  C   C139      1.0  0.65500  0.42450  0.40540  1.0000
  C   C140      1.0  0.42450  0.34500  0.59460  1.0000
  C   C141      1.0  0.65500  0.57550  0.90540  1.0000
  C   C142      1.0  0.57550  0.34500  0.09460  1.0000
  C   C143      1.0  0.34500  0.42450  0.90540  1.0000
  C   C144      1.0  0.42450  0.65500  0.09460  1.0000
  C   C145      1.0  0.05380  0.37890  0.74020  1.0000
  C   C146      1.0  0.37890  0.94620  0.25980  1.0000
  C   C147      1.0  0.94620  0.62110  0.74020  1.0000
  C   C148      1.0  0.62110  0.05380  0.25980  1.0000
  C   C149      1.0  0.94620  0.37890  0.24020  1.0000
  C   C150      1.0  0.37890  0.05380  0.75980  1.0000
  C   C151      1.0  0.05380  0.62110  0.24020  1.0000
  C   C152      1.0  0.62110  0.94620  0.75980  1.0000
  C   C153      1.0  0.55380  0.87890  0.24020  1.0000
  C   C154      1.0  0.87890  0.44620  0.75980  1.0000
  C   C155      1.0  0.44620  0.12110  0.24020  1.0000
  C   C156      1.0  0.12110  0.55380  0.75980  1.0000
  C   C157      1.0  0.44620  0.87890  0.74020  1.0000
  C   C158      1.0  0.87890  0.55380  0.25980  1.0000
  C   C159      1.0  0.55380  0.12110  0.74020  1.0000
  C   C160      1.0  0.12110  0.44620  0.25980  1.0000
  C   C161      1.0  0.08230  0.06760  0.83720  1.0000
  C   C162      1.0  0.06760  0.91770  0.16280  1.0000
  C   C163      1.0  0.91770  0.93240  0.83720  1.0000
  C   C164      1.0  0.93240  0.08230  0.16280  1.0000
  C   C165      1.0  0.91770  0.06760  0.33720  1.0000
  C   C166      1.0  0.06760  0.08230  0.66280  1.0000
  C   C167      1.0  0.08230  0.93240  0.33720  1.0000
  C   C168      1.0  0.93240  0.91770  0.66280  1.0000
  C   C169      1.0  0.58230  0.56760  0.33720  1.0000
  C   C170      1.0  0.56760  0.41770  0.66280  1.0000
  C   C171      1.0  0.41770  0.43240  0.33720  1.0000
  C   C172      1.0  0.43240  0.58230  0.66280  1.0000
  C   C173      1.0  0.41770  0.56760  0.83720  1.0000
  C   C174      1.0  0.56760  0.58230  0.16280  1.0000
  C   C175      1.0  0.58230  0.43240  0.83720  1.0000
  C   C176      1.0  0.43240  0.41770  0.16280  1.0000
  H   H17       1.0  0.05490  0.04540  0.83180  1.0000
  H   H18       1.0  0.04540  0.94510  0.16820  1.0000
  H   H19       1.0  0.94510  0.95460  0.83180  1.0000
  H   H20       1.0  0.95460  0.05490  0.16820  1.0000
  H   H21       1.0  0.94510  0.04540  0.33180  1.0000
  H   H22       1.0  0.04540  0.05490  0.66820  1.0000
  H   H23       1.0  0.05490  0.95460  0.33180  1.0000
  H   H24       1.0  0.95460  0.94510  0.66820  1.0000
  H   H25       1.0  0.55490  0.54540  0.33180  1.0000
  H   H26       1.0  0.54540  0.44510  0.66820  1.0000
  H   H27       1.0  0.44510  0.45460  0.33180  1.0000
  H   H28       1.0  0.45460  0.55490  0.66820  1.0000
  H   H29       1.0  0.44510  0.54540  0.83180  1.0000
  H   H30       1.0  0.54540  0.55490  0.16820  1.0000
  H   H31       1.0  0.55490  0.45460  0.83180  1.0000
  H   H32       1.0  0.45460  0.44510  0.16820  1.0000
  C   C177      1.0  0.76350  0.22150  0.93650  1.0000
  C   C178      1.0  0.22150  0.23650  0.06350  1.0000
  C   C179      1.0  0.23650  0.77850  0.93650  1.0000
  C   C180      1.0  0.77850  0.76350  0.06350  1.0000
  C   C181      1.0  0.23650  0.22150  0.43650  1.0000
  C   C182      1.0  0.22150  0.76350  0.56350  1.0000
  C   C183      1.0  0.76350  0.77850  0.43650  1.0000
  C   C184      1.0  0.77850  0.23650  0.56350  1.0000
  C   C185      1.0  0.26350  0.72150  0.43650  1.0000
  C   C186      1.0  0.72150  0.73650  0.56350  1.0000
  C   C187      1.0  0.73650  0.27850  0.43650  1.0000
  C   C188      1.0  0.27850  0.26350  0.56350  1.0000
  C   C189      1.0  0.73650  0.72150  0.93650  1.0000
  C   C190      1.0  0.72150  0.26350  0.06350  1.0000
  C   C191      1.0  0.26350  0.27850  0.93650  1.0000
  C   C192      1.0  0.27850  0.73650  0.06350  1.0000
  C   C193      1.0  0.04500  0.40830  0.77310  1.0000
  C   C194      1.0  0.40830  0.95500  0.22690  1.0000
  C   C195      1.0  0.95500  0.59170  0.77310  1.0000
  C   C196      1.0  0.59170  0.04500  0.22690  1.0000
  C   C197      1.0  0.95500  0.40830  0.27310  1.0000
  C   C198      1.0  0.40830  0.04500  0.72690  1.0000
  C   C199      1.0  0.04500  0.59170  0.27310  1.0000
  C   C200      1.0  0.59170  0.95500  0.72690  1.0000
  C   C201      1.0  0.54500  0.90830  0.27310  1.0000
  C   C202      1.0  0.90830  0.45500  0.72690  1.0000
  C   C203      1.0  0.45500  0.09170  0.27310  1.0000
  C   C204      1.0  0.09170  0.54500  0.72690  1.0000
  C   C205      1.0  0.45500  0.90830  0.77310  1.0000
  C   C206      1.0  0.90830  0.54500  0.22690  1.0000
  C   C207      1.0  0.54500  0.09170  0.77310  1.0000
  C   C208      1.0  0.09170  0.45500  0.22690  1.0000
  C   C209      1.0  0.91710  0.09680  0.82720  1.0000
  C   C210      1.0  0.09680  0.08290  0.17280  1.0000
  C   C211      1.0  0.08290  0.90320  0.82720  1.0000
  C   C212      1.0  0.90320  0.91710  0.17280  1.0000
  C   C213      1.0  0.08290  0.09680  0.32720  1.0000
  C   C214      1.0  0.09680  0.91710  0.67280  1.0000
  C   C215      1.0  0.91710  0.90320  0.32720  1.0000
  C   C216      1.0  0.90320  0.08290  0.67280  1.0000
  C   C217      1.0  0.41710  0.59680  0.32720  1.0000
  C   C218      1.0  0.59680  0.58290  0.67280  1.0000
  C   C219      1.0  0.58290  0.40320  0.32720  1.0000
  C   C220      1.0  0.40320  0.41710  0.67280  1.0000
  C   C221      1.0  0.58290  0.59680  0.82720  1.0000
  C   C222      1.0  0.59680  0.41710  0.17280  1.0000
  C   C223      1.0  0.41710  0.40320  0.82720  1.0000
  C   C224      1.0  0.40320  0.58290  0.17280  1.0000
  H   H33       1.0  0.91980  0.09490  0.80190  1.0000
  H   H34       1.0  0.09490  0.08020  0.19810  1.0000
  H   H35       1.0  0.08020  0.90510  0.80190  1.0000
  H   H36       1.0  0.90510  0.91980  0.19810  1.0000
  H   H37       1.0  0.08020  0.09490  0.30190  1.0000
  H   H38       1.0  0.09490  0.91980  0.69810  1.0000
  H   H39       1.0  0.91980  0.90510  0.30190  1.0000
  H   H40       1.0  0.90510  0.08020  0.69810  1.0000
  H   H41       1.0  0.41980  0.59490  0.30190  1.0000
  H   H42       1.0  0.59490  0.58020  0.69810  1.0000
  H   H43       1.0  0.58020  0.40510  0.30190  1.0000
  H   H44       1.0  0.40510  0.41980  0.69810  1.0000
  H   H45       1.0  0.58020  0.59490  0.80190  1.0000
  H   H46       1.0  0.59490  0.41980  0.19810  1.0000
  H   H47       1.0  0.41980  0.40510  0.80190  1.0000
  H   H48       1.0  0.40510  0.58020  0.19810  1.0000
  C   C225      1.0  0.93730  0.26040  0.71130  1.0000
  C   C226      1.0  0.26040  0.06270  0.28870  1.0000
  C   C227      1.0  0.06270  0.73960  0.71130  1.0000
  C   C228      1.0  0.73960  0.93730  0.28870  1.0000
  C   C229      1.0  0.06270  0.26040  0.21130  1.0000
  C   C230      1.0  0.26040  0.93730  0.78870  1.0000
  C   C231      1.0  0.93730  0.73960  0.21130  1.0000
  C   C232      1.0  0.73960  0.06270  0.78870  1.0000
  C   C233      1.0  0.43730  0.76040  0.21130  1.0000
  C   C234      1.0  0.76040  0.56270  0.78870  1.0000
  C   C235      1.0  0.56270  0.23960  0.21130  1.0000
  C   C236      1.0  0.23960  0.43730  0.78870  1.0000
  C   C237      1.0  0.56270  0.76040  0.71130  1.0000
  C   C238      1.0  0.76040  0.43730  0.28870  1.0000
  C   C239      1.0  0.43730  0.23960  0.71130  1.0000
  C   C240      1.0  0.23960  0.56270  0.28870  1.0000
  C   C241      1.0  0.93130  0.12460  0.87960  1.0000
  C   C242      1.0  0.12460  0.06870  0.12040  1.0000
  C   C243      1.0  0.06870  0.87540  0.87960  1.0000
  C   C244      1.0  0.87540  0.93130  0.12040  1.0000
  C   C245      1.0  0.06870  0.12460  0.37960  1.0000
  C   C246      1.0  0.12460  0.93130  0.62040  1.0000
  C   C247      1.0  0.93130  0.87540  0.37960  1.0000
  C   C248      1.0  0.87540  0.06870  0.62040  1.0000
  C   C249      1.0  0.43130  0.62460  0.37960  1.0000
  C   C250      1.0  0.62460  0.56870  0.62040  1.0000
  C   C251      1.0  0.56870  0.37540  0.37960  1.0000
  C   C252      1.0  0.37540  0.43130  0.62040  1.0000
  C   C253      1.0  0.56870  0.62460  0.87960  1.0000
  C   C254      1.0  0.62460  0.43130  0.12040  1.0000
  C   C255      1.0  0.43130  0.37540  0.87960  1.0000
  C   C256      1.0  0.37540  0.56870  0.12040  1.0000
  C   C257      1.0  0.85750  0.22240  0.02440  1.0000
  C   C258      1.0  0.22240  0.14250  0.97560  1.0000
  C   C259      1.0  0.14250  0.77760  0.02440  1.0000
  C   C260      1.0  0.77760  0.85750  0.97560  1.0000
  C   C261      1.0  0.14250  0.22240  0.52440  1.0000
  C   C262      1.0  0.22240  0.85750  0.47560  1.0000
  C   C263      1.0  0.85750  0.77760  0.52440  1.0000
  C   C264      1.0  0.77760  0.14250  0.47560  1.0000
  C   C265      1.0  0.35750  0.72240  0.52440  1.0000
  C   C266      1.0  0.72240  0.64250  0.47560  1.0000
  C   C267      1.0  0.64250  0.27760  0.52440  1.0000
  C   C268      1.0  0.27760  0.35750  0.47560  1.0000
  C   C269      1.0  0.64250  0.72240  0.02440  1.0000
  C   C270      1.0  0.72240  0.35750  0.97560  1.0000
  C   C271      1.0  0.35750  0.27760  0.02440  1.0000
  C   C272      1.0  0.27760  0.64250  0.97560  1.0000
  C   C273      1.0  0.13530  0.19090  0.85340  1.0000
  C   C274      1.0  0.19090  0.86470  0.14660  1.0000
  C   C275      1.0  0.86470  0.80910  0.85340  1.0000
  C   C276      1.0  0.80910  0.13530  0.14660  1.0000
  C   C277      1.0  0.86470  0.19090  0.35340  1.0000
  C   C278      1.0  0.19090  0.13530  0.64660  1.0000
  C   C279      1.0  0.13530  0.80910  0.35340  1.0000
  C   C280      1.0  0.80910  0.86470  0.64660  1.0000
  C   C281      1.0  0.63530  0.69090  0.35340  1.0000
  C   C282      1.0  0.69090  0.36470  0.64660  1.0000
  C   C283      1.0  0.36470  0.30910  0.35340  1.0000
  C   C284      1.0  0.30910  0.63530  0.64660  1.0000
  C   C285      1.0  0.36470  0.69090  0.85340  1.0000
  C   C286      1.0  0.69090  0.63530  0.14660  1.0000
  C   C287      1.0  0.63530  0.30910  0.85340  1.0000
  C   C288      1.0  0.30910  0.36470  0.14660  1.0000
  C   C289      1.0  0.95870  0.15480  0.90730  1.0000
  C   C290      1.0  0.15480  0.04130  0.09270  1.0000
  C   C291      1.0  0.04130  0.84520  0.90730  1.0000
  C   C292      1.0  0.84520  0.95870  0.09270  1.0000
  C   C293      1.0  0.04130  0.15480  0.40730  1.0000
  C   C294      1.0  0.15480  0.95870  0.59270  1.0000
  C   C295      1.0  0.95870  0.84520  0.40730  1.0000
  C   C296      1.0  0.84520  0.04130  0.59270  1.0000
  C   C297      1.0  0.45870  0.65480  0.40730  1.0000
  C   C298      1.0  0.65480  0.54130  0.59270  1.0000
  C   C299      1.0  0.54130  0.34520  0.40730  1.0000
  C   C300      1.0  0.34520  0.45870  0.59270  1.0000
  C   C301      1.0  0.54130  0.65480  0.90730  1.0000
  C   C302      1.0  0.65480  0.45870  0.09270  1.0000
  C   C303      1.0  0.45870  0.34520  0.90730  1.0000
  C   C304      1.0  0.34520  0.54130  0.09270  1.0000
  C   C305      1.0  0.84640  0.16660  0.03250  1.0000
  C   C306      1.0  0.16660  0.15360  0.96750  1.0000
  C   C307      1.0  0.15360  0.83340  0.03250  1.0000
  C   C308      1.0  0.83340  0.84640  0.96750  1.0000
  C   C309      1.0  0.15360  0.16660  0.53250  1.0000
  C   C310      1.0  0.16660  0.84640  0.46750  1.0000
  C   C311      1.0  0.84640  0.83340  0.53250  1.0000
  C   C312      1.0  0.83340  0.15360  0.46750  1.0000
  C   C313      1.0  0.34640  0.66660  0.53250  1.0000
  C   C314      1.0  0.66660  0.65360  0.46750  1.0000
  C   C315      1.0  0.65360  0.33340  0.53250  1.0000
  C   C316      1.0  0.33340  0.34640  0.46750  1.0000
  C   C317      1.0  0.65360  0.66660  0.03250  1.0000
  C   C318      1.0  0.66660  0.34640  0.96750  1.0000
  C   C319      1.0  0.34640  0.33340  0.03250  1.0000
  C   C320      1.0  0.33340  0.65360  0.96750  1.0000
  C   C321      1.0  0.80120  0.24290  0.91080  1.0000
  C   C322      1.0  0.24290  0.19880  0.08920  1.0000
  C   C323      1.0  0.19880  0.75710  0.91080  1.0000
  C   C324      1.0  0.75710  0.80120  0.08920  1.0000
  C   C325      1.0  0.19880  0.24290  0.41080  1.0000
  C   C326      1.0  0.24290  0.80120  0.58920  1.0000
  C   C327      1.0  0.80120  0.75710  0.41080  1.0000
  C   C328      1.0  0.75710  0.19880  0.58920  1.0000
  C   C329      1.0  0.30120  0.74290  0.41080  1.0000
  C   C330      1.0  0.74290  0.69880  0.58920  1.0000
  C   C331      1.0  0.69880  0.25710  0.41080  1.0000
  C   C332      1.0  0.25710  0.30120  0.58920  1.0000
  C   C333      1.0  0.69880  0.74290  0.91080  1.0000
  C   C334      1.0  0.74290  0.30120  0.08920  1.0000
  C   C335      1.0  0.30120  0.25710  0.91080  1.0000
  C   C336      1.0  0.25710  0.69880  0.08920  1.0000
