data_image0
_chemical_formula_structural       Na4N8C4H4C8N8C4H4C8
_chemical_formula_sum              "Na4 N16 C24 H8"
_cell_length_a       13.312
_cell_length_b       13.874
_cell_length_c       15.717
_cell_angle_alpha    90
_cell_angle_beta     90
_cell_angle_gamma    90

_space_group_name_H-M_alt    "P 1"
_space_group_IT_number       1

loop_
  _space_group_symop_operation_xyz
  'x, y, z'

loop_
  _atom_site_type_symbol
  _atom_site_label
  _atom_site_symmetry_multiplicity
  _atom_site_fract_x
  _atom_site_fract_y
  _atom_site_fract_z
  _atom_site_occupancy
  Na  Na1       1.0  0.56841  0.61029  0.61224  1.0000
  Na  Na2       1.0  0.06841  0.88971  0.38776  1.0000
  Na  Na3       1.0  0.43159  0.11029  0.88776  1.0000
  Na  Na4       1.0  0.93159  0.38971  0.11224  1.0000
  N   N1        1.0  0.74372  0.64869  0.61902  1.0000
  N   N2        1.0  0.24372  0.85131  0.38098  1.0000
  N   N3        1.0  0.25628  0.14869  0.88098  1.0000
  N   N4        1.0  0.75628  0.35131  0.11902  1.0000
  N   N5        1.0  0.49554  0.67748  0.48709  1.0000
  N   N6        1.0  0.99554  0.82252  0.51291  1.0000
  N   N7        1.0  0.50446  0.17748  0.01291  1.0000
  N   N8        1.0  0.00446  0.32252  0.98709  1.0000
  C   C1        1.0  0.90991  0.73415  0.63555  1.0000
  C   C2        1.0  0.40991  0.76585  0.36445  1.0000
  C   C3        1.0  0.09009  0.23415  0.86445  1.0000
  C   C4        1.0  0.59009  0.26585  0.13555  1.0000
  H   H1        1.0  0.59360  0.21920  0.58390  1.0000
  H   H2        1.0  0.09360  0.28080  0.41610  1.0000
  H   H3        1.0  0.40640  0.71920  0.91610  1.0000
  H   H4        1.0  0.90640  0.78080  0.08390  1.0000
  C   C5        1.0  0.95565  0.78340  0.56711  1.0000
  C   C6        1.0  0.45565  0.71660  0.43289  1.0000
  C   C7        1.0  0.04435  0.28340  0.93289  1.0000
  C   C8        1.0  0.54435  0.21660  0.06711  1.0000
  C   C9        1.0  0.81832  0.69026  0.62529  1.0000
  C   C10       1.0  0.31832  0.80974  0.37471  1.0000
  C   C11       1.0  0.18168  0.19026  0.87471  1.0000
  C   C12       1.0  0.68168  0.30974  0.12529  1.0000
  N   N9        1.0  0.55709  0.44033  0.61274  1.0000
  N   N10       1.0  0.05709  0.05967  0.38726  1.0000
  N   N11       1.0  0.44291  0.94033  0.88726  1.0000
  N   N12       1.0  0.94291  0.55967  0.11274  1.0000
  N   N13       1.0  0.50208  0.67062  0.74216  1.0000
  N   N14       1.0  0.00208  0.82938  0.25784  1.0000
  N   N15       1.0  0.49792  0.17062  0.75784  1.0000
  N   N16       1.0  0.99792  0.32938  0.24216  1.0000
  C   C13       1.0  0.56947  0.25798  0.63030  1.0000
  C   C14       1.0  0.06947  0.24202  0.36970  1.0000
  C   C15       1.0  0.43053  0.75798  0.86970  1.0000
  C   C16       1.0  0.93053  0.74202  0.13030  1.0000
  H   H5        1.0  0.91400  0.77030  0.68380  1.0000
  H   H6        1.0  0.41400  0.72970  0.31620  1.0000
  H   H7        1.0  0.08600  0.27030  0.81620  1.0000
  H   H8        1.0  0.58600  0.22970  0.18380  1.0000
  C   C17       1.0  0.56079  0.35814  0.62161  1.0000
  C   C18       1.0  0.06079  0.14186  0.37839  1.0000
  C   C19       1.0  0.43921  0.85814  0.87839  1.0000
  C   C20       1.0  0.93921  0.64186  0.12161  1.0000
  C   C21       1.0  0.52996  0.21161  0.70117  1.0000
  C   C22       1.0  0.02996  0.28839  0.29883  1.0000
  C   C23       1.0  0.47004  0.71161  0.79883  1.0000
  C   C24       1.0  0.97004  0.78839  0.20117  1.0000
