data_image0
_chemical_formula_structural       C28H4C4H4C8H4C4H4C8H4C4H4C8H4C4H4C8H4C4H4C8H4C4H4C8H4C4H4C8H4C4H4C8H4C4H4C8H4C4H4C8H4C4H4C8H4C4H4C8H4C4H4C8H4C4H4C8H4C4H4C8H4C4H4C12O64Ru4Zn8
_chemical_formula_sum              "C224 H128 O64 Ru4 Zn8"
_cell_length_a       24.572
_cell_length_b       14.514
_cell_length_c       22.314
_cell_angle_alpha    90
_cell_angle_beta     90
_cell_angle_gamma    90

_space_group_name_H-M_alt    "P 1"
_space_group_IT_number       1

loop_
  _space_group_symop_operation_xyz
  'x, y, z'

loop_
  _atom_site_type_symbol
  _atom_site_label
  _atom_site_symmetry_multiplicity
  _atom_site_fract_x
  _atom_site_fract_y
  _atom_site_fract_z
  _atom_site_occupancy
  C   C1        1.0  0.08860  0.58670  0.11200  1.0000
  C   C2        1.0  0.91140  0.41330  0.61200  1.0000
  C   C3        1.0  0.58860  0.91330  0.11200  1.0000
  C   C4        1.0  0.41140  0.08670  0.61200  1.0000
  C   C5        1.0  0.15690  0.68330  0.93180  1.0000
  C   C6        1.0  0.84310  0.31670  0.43180  1.0000
  C   C7        1.0  0.65690  0.81670  0.93180  1.0000
  C   C8        1.0  0.34310  0.18330  0.43180  1.0000
  C   C9        1.0  0.74480  0.96770  0.09820  1.0000
  C   C10       1.0  0.25520  0.03230  0.59820  1.0000
  C   C11       1.0  0.24480  0.53230  0.09820  1.0000
  C   C12       1.0  0.75520  0.46770  0.59820  1.0000
  C   C13       1.0  0.72720  0.07440  0.91100  1.0000
  C   C14       1.0  0.27280  0.92560  0.41100  1.0000
  C   C15       1.0  0.22720  0.42560  0.91100  1.0000
  C   C16       1.0  0.77280  0.57440  0.41100  1.0000
  C   C17       1.0  0.06980  0.45930  0.91670  1.0000
  C   C18       1.0  0.93020  0.54070  0.41670  1.0000
  C   C19       1.0  0.56980  0.04070  0.91670  1.0000
  C   C20       1.0  0.43020  0.95930  0.41670  1.0000
  C   C21       1.0  0.18410  0.54120  0.66870  1.0000
  C   C22       1.0  0.81590  0.45880  0.16870  1.0000
  C   C23       1.0  0.68410  0.95880  0.66870  1.0000
  C   C24       1.0  0.31590  0.04120  0.16870  1.0000
  C   C25       1.0  0.22160  0.57450  0.62750  1.0000
  C   C26       1.0  0.77840  0.42550  0.12750  1.0000
  C   C27       1.0  0.72160  0.92550  0.62750  1.0000
  C   C28       1.0  0.27840  0.07450  0.12750  1.0000
  H   H1        1.0  0.25100  0.61210  0.64050  1.0000
  H   H2        1.0  0.74900  0.38790  0.14050  1.0000
  H   H3        1.0  0.75100  0.88790  0.64050  1.0000
  H   H4        1.0  0.24900  0.11210  0.14050  1.0000
  C   C29       1.0  0.21620  0.55280  0.56710  1.0000
  C   C30       1.0  0.78380  0.44720  0.06710  1.0000
  C   C31       1.0  0.71620  0.94720  0.56710  1.0000
  C   C32       1.0  0.28380  0.05280  0.06710  1.0000
  H   H5        1.0  0.24190  0.57560  0.53890  1.0000
  H   H6        1.0  0.75810  0.42440  0.03890  1.0000
  H   H7        1.0  0.74190  0.92440  0.53890  1.0000
  H   H8        1.0  0.25810  0.07560  0.03890  1.0000
  C   C33       1.0  0.17330  0.49780  0.54790  1.0000
  C   C34       1.0  0.82670  0.50220  0.04790  1.0000
  C   C35       1.0  0.67330  0.00220  0.54790  1.0000
  C   C36       1.0  0.32670  0.99780  0.04790  1.0000
  C   C37       1.0  0.13570  0.46450  0.58920  1.0000
  C   C38       1.0  0.86430  0.53550  0.08920  1.0000
  C   C39       1.0  0.63570  0.03550  0.58920  1.0000
  C   C40       1.0  0.36430  0.96450  0.08920  1.0000
  H   H9        1.0  0.10640  0.42700  0.57610  1.0000
  H   H10       1.0  0.89360  0.57300  0.07610  1.0000
  H   H11       1.0  0.60640  0.07300  0.57610  1.0000
  H   H12       1.0  0.39360  0.92700  0.07610  1.0000
  C   C41       1.0  0.14110  0.48620  0.64960  1.0000
  C   C42       1.0  0.85890  0.51380  0.14960  1.0000
  C   C43       1.0  0.64110  0.01380  0.64960  1.0000
  C   C44       1.0  0.35890  0.98620  0.14960  1.0000
  H   H13       1.0  0.11550  0.46350  0.67780  1.0000
  H   H14       1.0  0.88450  0.53650  0.17780  1.0000
  H   H15       1.0  0.61550  0.03650  0.67780  1.0000
  H   H16       1.0  0.38450  0.96350  0.17780  1.0000
  C   C45       1.0  0.16540  0.47430  0.48100  1.0000
  C   C46       1.0  0.83460  0.52570  0.98100  1.0000
  C   C47       1.0  0.66540  0.02570  0.48100  1.0000
  C   C48       1.0  0.33460  0.97430  0.98100  1.0000
  C   C49       1.0  0.20900  0.47780  0.44150  1.0000
  C   C50       1.0  0.79100  0.52220  0.94150  1.0000
  C   C51       1.0  0.70900  0.02220  0.44150  1.0000
  C   C52       1.0  0.29100  0.97780  0.94150  1.0000
  H   H17       1.0  0.24460  0.49020  0.45600  1.0000
  H   H18       1.0  0.75540  0.50980  0.95600  1.0000
  H   H19       1.0  0.74460  0.00980  0.45600  1.0000
  H   H20       1.0  0.25540  0.99020  0.95600  1.0000
  C   C53       1.0  0.20062  0.46300  0.38060  1.0000
  C   C54       1.0  0.79938  0.53700  0.88060  1.0000
  C   C55       1.0  0.70062  0.03700  0.38060  1.0000
  C   C56       1.0  0.29938  0.96300  0.88060  1.0000
  H   H21       1.0  0.23050  0.46540  0.35360  1.0000
  H   H22       1.0  0.76950  0.53460  0.85360  1.0000
  H   H23       1.0  0.73050  0.03460  0.35360  1.0000
  H   H24       1.0  0.26950  0.96540  0.85360  1.0000
  C   C57       1.0  0.14857  0.44480  0.35930  1.0000
  C   C58       1.0  0.85143  0.55520  0.85930  1.0000
  C   C59       1.0  0.64857  0.05520  0.35930  1.0000
  C   C60       1.0  0.35143  0.94480  0.85930  1.0000
  C   C61       1.0  0.10490  0.44130  0.39880  1.0000
  C   C62       1.0  0.89510  0.55870  0.89880  1.0000
  C   C63       1.0  0.60490  0.05870  0.39880  1.0000
  C   C64       1.0  0.39510  0.94130  0.89880  1.0000
  H   H25       1.0  0.06930  0.42880  0.38430  1.0000
  H   H26       1.0  0.93070  0.57120  0.88430  1.0000
  H   H27       1.0  0.56930  0.07120  0.38430  1.0000
  H   H28       1.0  0.43070  0.92880  0.88430  1.0000
  C   C65       1.0  0.11330  0.45610  0.45970  1.0000
  C   C66       1.0  0.88670  0.54390  0.95970  1.0000
  C   C67       1.0  0.61330  0.04390  0.45970  1.0000
  C   C68       1.0  0.38670  0.95610  0.95970  1.0000
  H   H29       1.0  0.08350  0.45370  0.48670  1.0000
  H   H30       1.0  0.91650  0.54630  0.98670  1.0000
  H   H31       1.0  0.58350  0.04630  0.48670  1.0000
  H   H32       1.0  0.41650  0.95370  0.98670  1.0000
  C   C69       1.0  0.13452  0.23000  0.06840  1.0000
  C   C70       1.0  0.86548  0.77000  0.56840  1.0000
  C   C71       1.0  0.63452  0.27000  0.06840  1.0000
  C   C72       1.0  0.36548  0.73000  0.56840  1.0000
  C   C73       1.0  0.12928  0.15530  0.10690  1.0000
  C   C74       1.0  0.87072  0.84470  0.60690  1.0000
  C   C75       1.0  0.62928  0.34470  0.10690  1.0000
  C   C76       1.0  0.37072  0.65530  0.60690  1.0000
  H   H33       1.0  0.12570  0.16520  0.14880  1.0000
  H   H34       1.0  0.87430  0.83480  0.64880  1.0000
  H   H35       1.0  0.62570  0.33480  0.14880  1.0000
  H   H36       1.0  0.37430  0.66520  0.64880  1.0000
  C   C77       1.0  0.12930  0.06620  0.08420  1.0000
  C   C78       1.0  0.87070  0.93380  0.58420  1.0000
  C   C79       1.0  0.62930  0.43380  0.08420  1.0000
  C   C80       1.0  0.37070  0.56620  0.58420  1.0000
  H   H37       1.0  0.12570  0.01510  0.11060  1.0000
  H   H38       1.0  0.87430  0.98490  0.61060  1.0000
  H   H39       1.0  0.62570  0.48490  0.11060  1.0000
  H   H40       1.0  0.37430  0.51510  0.61060  1.0000
  C   C81       1.0  0.13450  0.05170  0.02290  1.0000
  C   C82       1.0  0.86550  0.94830  0.52290  1.0000
  C   C83       1.0  0.63450  0.44830  0.02290  1.0000
  C   C84       1.0  0.36550  0.55170  0.52290  1.0000
  C   C85       1.0  0.13980  0.12640  0.98430  1.0000
  C   C86       1.0  0.86020  0.87360  0.48430  1.0000
  C   C87       1.0  0.63980  0.37360  0.98430  1.0000
  C   C88       1.0  0.36020  0.62640  0.48430  1.0000
  H   H41       1.0  0.14330  0.11650  0.94240  1.0000
  H   H42       1.0  0.85670  0.88350  0.44240  1.0000
  H   H43       1.0  0.64330  0.38350  0.94240  1.0000
  H   H44       1.0  0.35670  0.61650  0.44240  1.0000
  C   C89       1.0  0.13976  0.21550  0.00710  1.0000
  C   C90       1.0  0.86024  0.78450  0.50710  1.0000
  C   C91       1.0  0.63976  0.28450  0.00710  1.0000
  C   C92       1.0  0.36024  0.71550  0.50710  1.0000
  H   H45       1.0  0.14330  0.26660  0.98070  1.0000
  H   H46       1.0  0.85670  0.73340  0.48070  1.0000
  H   H47       1.0  0.64330  0.23340  0.98070  1.0000
  H   H48       1.0  0.35670  0.76660  0.48070  1.0000
  C   C93       1.0  0.13960  0.95470  0.99940  1.0000
  C   C94       1.0  0.86040  0.04530  0.49940  1.0000
  C   C95       1.0  0.63960  0.54530  0.99940  1.0000
  C   C96       1.0  0.36040  0.45470  0.49940  1.0000
  C   C97       1.0  0.16070  0.88460  0.03490  1.0000
  C   C98       1.0  0.83930  0.11540  0.53490  1.0000
  C   C99       1.0  0.66070  0.61540  0.03490  1.0000
  C   C100      1.0  0.33930  0.38460  0.53490  1.0000
  H   H49       1.0  0.17140  0.89710  0.07500  1.0000
  H   H50       1.0  0.82860  0.10290  0.57500  1.0000
  H   H51       1.0  0.67140  0.60290  0.07500  1.0000
  H   H52       1.0  0.32860  0.39710  0.57500  1.0000
  C   C101      1.0  0.16610  0.79620  0.01180  1.0000
  C   C102      1.0  0.83390  0.20380  0.51180  1.0000
  C   C103      1.0  0.66610  0.70380  0.01180  1.0000
  C   C104      1.0  0.33390  0.29620  0.51180  1.0000
  H   H53       1.0  0.18050  0.74820  0.03610  1.0000
  H   H54       1.0  0.81950  0.25180  0.53610  1.0000
  H   H55       1.0  0.68050  0.75180  0.03610  1.0000
  H   H56       1.0  0.31950  0.24820  0.53610  1.0000
  C   C105      1.0  0.15050  0.77780  0.95310  1.0000
  C   C106      1.0  0.84950  0.22220  0.45310  1.0000
  C   C107      1.0  0.65050  0.72220  0.95310  1.0000
  C   C108      1.0  0.34950  0.27780  0.45310  1.0000
  C   C109      1.0  0.12940  0.84790  0.91760  1.0000
  C   C110      1.0  0.87060  0.15210  0.41760  1.0000
  C   C111      1.0  0.62940  0.65210  0.91760  1.0000
  C   C112      1.0  0.37060  0.34790  0.41760  1.0000
  H   H57       1.0  0.11880  0.83540  0.87750  1.0000
  H   H58       1.0  0.88120  0.16460  0.37750  1.0000
  H   H59       1.0  0.61880  0.66460  0.87750  1.0000
  H   H60       1.0  0.38120  0.33540  0.37750  1.0000
  C   C113      1.0  0.12400  0.93640  0.94070  1.0000
  C   C114      1.0  0.87600  0.06360  0.44070  1.0000
  C   C115      1.0  0.62400  0.56360  0.94070  1.0000
  C   C116      1.0  0.37600  0.43640  0.44070  1.0000
  H   H61       1.0  0.10960  0.98430  0.91640  1.0000
  H   H62       1.0  0.89040  0.01570  0.41640  1.0000
  H   H63       1.0  0.60960  0.51570  0.91640  1.0000
  H   H64       1.0  0.39040  0.48430  0.41640  1.0000
  C   C117      1.0  0.03636  0.63940  0.11180  1.0000
  C   C118      1.0  0.96364  0.36060  0.61180  1.0000
  C   C119      1.0  0.53636  0.86060  0.11180  1.0000
  C   C120      1.0  0.46364  0.13940  0.61180  1.0000
  C   C121      1.0  0.02050  0.67980  0.05810  1.0000
  C   C122      1.0  0.97950  0.32020  0.55810  1.0000
  C   C123      1.0  0.52050  0.82020  0.05810  1.0000
  C   C124      1.0  0.47950  0.17980  0.55810  1.0000
  H   H65       1.0  0.04160  0.67050  0.02290  1.0000
  H   H66       1.0  0.95840  0.32950  0.52290  1.0000
  H   H67       1.0  0.54160  0.82950  0.02290  1.0000
  H   H68       1.0  0.45840  0.17050  0.52290  1.0000
  C   C125      1.0  0.97379  0.73370  0.05580  1.0000
  C   C126      1.0  0.02621  0.26630  0.55580  1.0000
  C   C127      1.0  0.47379  0.76630  0.05580  1.0000
  C   C128      1.0  0.52621  0.23370  0.55580  1.0000
  H   H69       1.0  0.96290  0.76130  0.01910  1.0000
  H   H70       1.0  0.03710  0.23870  0.51910  1.0000
  H   H71       1.0  0.46290  0.73870  0.01910  1.0000
  H   H72       1.0  0.53710  0.26130  0.51910  1.0000
  C   C129      1.0  0.94293  0.74720  0.10730  1.0000
  C   C130      1.0  0.05707  0.25280  0.60730  1.0000
  C   C131      1.0  0.44293  0.75280  0.10730  1.0000
  C   C132      1.0  0.55707  0.24720  0.60730  1.0000
  C   C133      1.0  0.95879  0.70680  0.16100  1.0000
  C   C134      1.0  0.04121  0.29320  0.66100  1.0000
  C   C135      1.0  0.45879  0.79320  0.16100  1.0000
  C   C136      1.0  0.54121  0.20680  0.66100  1.0000
  H   H73       1.0  0.93770  0.71600  0.19620  1.0000
  H   H74       1.0  0.06230  0.28400  0.69620  1.0000
  H   H75       1.0  0.43770  0.78400  0.19620  1.0000
  H   H76       1.0  0.56230  0.21600  0.69620  1.0000
  C   C137      1.0  0.00551  0.65290  0.16330  1.0000
  C   C138      1.0  0.99449  0.34710  0.66330  1.0000
  C   C139      1.0  0.50551  0.84710  0.16330  1.0000
  C   C140      1.0  0.49449  0.15290  0.66330  1.0000
  H   H77       1.0  0.01630  0.62530  0.20000  1.0000
  H   H78       1.0  0.98370  0.37470  0.70000  1.0000
  H   H79       1.0  0.51630  0.87470  0.20000  1.0000
  H   H80       1.0  0.48370  0.12530  0.70000  1.0000
  C   C141      1.0  0.89190  0.80430  0.10300  1.0000
  C   C142      1.0  0.10810  0.19570  0.60300  1.0000
  C   C143      1.0  0.39190  0.69570  0.10300  1.0000
  C   C144      1.0  0.60810  0.30430  0.60300  1.0000
  C   C145      1.0  0.85864  0.80170  0.05260  1.0000
  C   C146      1.0  0.14136  0.19830  0.55260  1.0000
  C   C147      1.0  0.35864  0.69830  0.05260  1.0000
  C   C148      1.0  0.64136  0.30170  0.55260  1.0000
  H   H81       1.0  0.86840  0.76440  0.01930  1.0000
  H   H82       1.0  0.13160  0.23560  0.51930  1.0000
  H   H83       1.0  0.36840  0.73560  0.01930  1.0000
  H   H84       1.0  0.63160  0.26440  0.51930  1.0000
  C   C149      1.0  0.81113  0.85360  0.05100  1.0000
  C   C150      1.0  0.18887  0.14640  0.55100  1.0000
  C   C151      1.0  0.31113  0.64640  0.05100  1.0000
  C   C152      1.0  0.68887  0.35360  0.55100  1.0000
  H   H85       1.0  0.78840  0.85180  0.01660  1.0000
  H   H86       1.0  0.21160  0.14820  0.51660  1.0000
  H   H87       1.0  0.28840  0.64820  0.01660  1.0000
  H   H88       1.0  0.71160  0.35180  0.51660  1.0000
  C   C153      1.0  0.79687  0.90810  0.09970  1.0000
  C   C154      1.0  0.20313  0.09190  0.59970  1.0000
  C   C155      1.0  0.29687  0.59190  0.09970  1.0000
  C   C156      1.0  0.70313  0.40810  0.59970  1.0000
  C   C157      1.0  0.83014  0.91070  0.15010  1.0000
  C   C158      1.0  0.16986  0.08930  0.65010  1.0000
  C   C159      1.0  0.33014  0.58930  0.15010  1.0000
  C   C160      1.0  0.66986  0.41070  0.65010  1.0000
  H   H89       1.0  0.82040  0.94800  0.18340  1.0000
  H   H90       1.0  0.17960  0.05200  0.68340  1.0000
  H   H91       1.0  0.32040  0.55200  0.18340  1.0000
  H   H92       1.0  0.67960  0.44800  0.68340  1.0000
  C   C161      1.0  0.87765  0.85880  0.15170  1.0000
  C   C162      1.0  0.12235  0.14120  0.65170  1.0000
  C   C163      1.0  0.37765  0.64120  0.15170  1.0000
  C   C164      1.0  0.62235  0.35880  0.65170  1.0000
  H   H93       1.0  0.90040  0.86060  0.18610  1.0000
  H   H94       1.0  0.09960  0.13940  0.68610  1.0000
  H   H95       1.0  0.40040  0.63940  0.18610  1.0000
  H   H96       1.0  0.59960  0.36060  0.68610  1.0000
  C   C165      1.0  0.77886  0.13270  0.91470  1.0000
  C   C166      1.0  0.22114  0.86730  0.41470  1.0000
  C   C167      1.0  0.27886  0.36730  0.91470  1.0000
  C   C168      1.0  0.72114  0.63270  0.41470  1.0000
  C   C169      1.0  0.81700  0.12580  0.86890  1.0000
  C   C170      1.0  0.18300  0.87420  0.36890  1.0000
  C   C171      1.0  0.31700  0.37420  0.86890  1.0000
  C   C172      1.0  0.68300  0.62580  0.36890  1.0000
  H   H97       1.0  0.81100  0.08450  0.83650  1.0000
  H   H98       1.0  0.18900  0.91550  0.33650  1.0000
  H   H99       1.0  0.31100  0.41550  0.83650  1.0000
  H   H100      1.0  0.68900  0.58450  0.33650  1.0000
  C   C173      1.0  0.86390  0.17940  0.87040  1.0000
  C   C174      1.0  0.13610  0.82060  0.37040  1.0000
  C   C175      1.0  0.36390  0.32060  0.87040  1.0000
  C   C176      1.0  0.63610  0.67940  0.37040  1.0000
  H   H101      1.0  0.88990  0.17470  0.83910  1.0000
  H   H102      1.0  0.11010  0.82530  0.33910  1.0000
  H   H103      1.0  0.38990  0.32530  0.83910  1.0000
  H   H104      1.0  0.61010  0.67470  0.33910  1.0000
  C   C177      1.0  0.87260  0.23980  0.91780  1.0000
  C   C178      1.0  0.12740  0.76020  0.41780  1.0000
  C   C179      1.0  0.37260  0.26020  0.91780  1.0000
  C   C180      1.0  0.62740  0.73980  0.41780  1.0000
  C   C181      1.0  0.83440  0.24670  0.96360  1.0000
  C   C182      1.0  0.16560  0.75330  0.46360  1.0000
  C   C183      1.0  0.33440  0.25330  0.96360  1.0000
  C   C184      1.0  0.66560  0.74670  0.46360  1.0000
  H   H105      1.0  0.84040  0.28800  0.99590  1.0000
  H   H106      1.0  0.15960  0.71200  0.49590  1.0000
  H   H107      1.0  0.34040  0.21200  0.99590  1.0000
  H   H108      1.0  0.65960  0.78800  0.49590  1.0000
  C   C185      1.0  0.78760  0.19310  0.96200  1.0000
  C   C186      1.0  0.21240  0.80690  0.46200  1.0000
  C   C187      1.0  0.28760  0.30690  0.96200  1.0000
  C   C188      1.0  0.71240  0.69310  0.46200  1.0000
  H   H109      1.0  0.76150  0.19780  0.99330  1.0000
  H   H110      1.0  0.23850  0.80220  0.49330  1.0000
  H   H111      1.0  0.26150  0.30220  0.99330  1.0000
  H   H112      1.0  0.73850  0.69780  0.49330  1.0000
  C   C189      1.0  0.92290  0.29800  0.91940  1.0000
  C   C190      1.0  0.07710  0.70200  0.41940  1.0000
  C   C191      1.0  0.42290  0.20200  0.91940  1.0000
  C   C192      1.0  0.57710  0.79800  0.41940  1.0000
  C   C193      1.0  0.94390  0.33040  0.86550  1.0000
  C   C194      1.0  0.05610  0.66960  0.36550  1.0000
  C   C195      1.0  0.44390  0.16960  0.86550  1.0000
  C   C196      1.0  0.55610  0.83040  0.36550  1.0000
  H   H113      1.0  0.92610  0.31610  0.82880  1.0000
  H   H114      1.0  0.07390  0.68390  0.32880  1.0000
  H   H115      1.0  0.42610  0.18390  0.82880  1.0000
  H   H116      1.0  0.57390  0.81610  0.32880  1.0000
  C   C197      1.0  0.99100  0.38350  0.86520  1.0000
  C   C198      1.0  0.00900  0.61650  0.36520  1.0000
  C   C199      1.0  0.49100  0.11650  0.86520  1.0000
  C   C200      1.0  0.50900  0.88350  0.36520  1.0000
  H   H117      1.0  0.00530  0.40560  0.82830  1.0000
  H   H118      1.0  0.99470  0.59440  0.32830  1.0000
  H   H119      1.0  0.50530  0.09440  0.82830  1.0000
  H   H120      1.0  0.49470  0.90560  0.32830  1.0000
  C   C201      1.0  0.01700  0.40440  0.91880  1.0000
  C   C202      1.0  0.98300  0.59560  0.41880  1.0000
  C   C203      1.0  0.51700  0.09560  0.91880  1.0000
  C   C204      1.0  0.48300  0.90440  0.41880  1.0000
  C   C205      1.0  0.99610  0.37200  0.97260  1.0000
  C   C206      1.0  0.00390  0.62800  0.47260  1.0000
  C   C207      1.0  0.49610  0.12800  0.97260  1.0000
  C   C208      1.0  0.50390  0.87200  0.47260  1.0000
  H   H121      1.0  0.01390  0.38630  0.00930  1.0000
  H   H122      1.0  0.98610  0.61370  0.50930  1.0000
  H   H123      1.0  0.51390  0.11370  0.00930  1.0000
  H   H124      1.0  0.48610  0.88630  0.50930  1.0000
  C   C209      1.0  0.94900  0.31880  0.97290  1.0000
  C   C210      1.0  0.05100  0.68120  0.47290  1.0000
  C   C211      1.0  0.44900  0.18120  0.97290  1.0000
  C   C212      1.0  0.55100  0.81880  0.47290  1.0000
  H   H125      1.0  0.93470  0.29670  0.00980  1.0000
  H   H126      1.0  0.06530  0.70330  0.50980  1.0000
  H   H127      1.0  0.43470  0.20330  0.00980  1.0000
  H   H128      1.0  0.56530  0.79670  0.50980  1.0000
  C   C213      1.0  0.18920  0.56350  0.73050  1.0000
  C   C214      1.0  0.81080  0.43650  0.23050  1.0000
  C   C215      1.0  0.68920  0.93650  0.73050  1.0000
  C   C216      1.0  0.31080  0.06350  0.23050  1.0000
  C   C217      1.0  0.13790  0.32700  0.09570  1.0000
  C   C218      1.0  0.86210  0.67300  0.59570  1.0000
  C   C219      1.0  0.63790  0.17300  0.09570  1.0000
  C   C220      1.0  0.36210  0.82700  0.59570  1.0000
  C   C221      1.0  0.13730  0.43980  0.29430  1.0000
  C   C222      1.0  0.86270  0.56020  0.79430  1.0000
  C   C223      1.0  0.63730  0.06020  0.29430  1.0000
  C   C224      1.0  0.36270  0.93980  0.79430  1.0000
  O   O1        1.0  0.08090  0.49830  0.96620  1.0000
  O   O2        1.0  0.91910  0.50170  0.46620  1.0000
  O   O3        1.0  0.58090  0.00170  0.96620  1.0000
  O   O4        1.0  0.41910  0.99830  0.46620  1.0000
  O   O5        1.0  0.72490  0.98080  0.14970  1.0000
  O   O6        1.0  0.27510  0.01920  0.64970  1.0000
  O   O7        1.0  0.22490  0.51920  0.14970  1.0000
  O   O8        1.0  0.77510  0.48080  0.64970  1.0000
  O   O9        1.0  0.12890  0.38940  0.05900  1.0000
  O   O10       1.0  0.87110  0.61060  0.55900  1.0000
  O   O11       1.0  0.62890  0.11060  0.05900  1.0000
  O   O12       1.0  0.37110  0.88940  0.55900  1.0000
  O   O13       1.0  0.12190  0.59280  0.07320  1.0000
  O   O14       1.0  0.87810  0.40720  0.57320  1.0000
  O   O15       1.0  0.62190  0.90720  0.07320  1.0000
  O   O16       1.0  0.37810  0.09280  0.57320  1.0000
  O   O17       1.0  0.72490  0.01740  0.86950  1.0000
  O   O18       1.0  0.27510  0.98260  0.36950  1.0000
  O   O19       1.0  0.22490  0.48260  0.86950  1.0000
  O   O20       1.0  0.77510  0.51740  0.36950  1.0000
  O   O21       1.0  0.23140  0.60430  0.75110  1.0000
  O   O22       1.0  0.76860  0.39570  0.25110  1.0000
  O   O23       1.0  0.73140  0.89570  0.75110  1.0000
  O   O24       1.0  0.26860  0.10430  0.25110  1.0000
  O   O25       1.0  0.14950  0.53720  0.76640  1.0000
  O   O26       1.0  0.85050  0.46280  0.26640  1.0000
  O   O27       1.0  0.64950  0.96280  0.76640  1.0000
  O   O28       1.0  0.35050  0.03720  0.26640  1.0000
  O   O29       1.0  0.17550  0.45830  0.25910  1.0000
  O   O30       1.0  0.82450  0.54170  0.75910  1.0000
  O   O31       1.0  0.67550  0.04170  0.25910  1.0000
  O   O32       1.0  0.32450  0.95830  0.75910  1.0000
  O   O33       1.0  0.72970  0.99050  0.04940  1.0000
  O   O34       1.0  0.27030  0.00950  0.54940  1.0000
  O   O35       1.0  0.22970  0.50950  0.04940  1.0000
  O   O36       1.0  0.77030  0.49050  0.54940  1.0000
  O   O37       1.0  0.17880  0.62380  0.96340  1.0000
  O   O38       1.0  0.82120  0.37620  0.46340  1.0000
  O   O39       1.0  0.67880  0.87620  0.96340  1.0000
  O   O40       1.0  0.32120  0.12380  0.46340  1.0000
  O   O41       1.0  0.14370  0.66960  0.87630  1.0000
  O   O42       1.0  0.85630  0.33040  0.37630  1.0000
  O   O43       1.0  0.64370  0.83040  0.87630  1.0000
  O   O44       1.0  0.35630  0.16960  0.37630  1.0000
  O   O45       1.0  0.14830  0.33430  0.14720  1.0000
  O   O46       1.0  0.85170  0.66570  0.64720  1.0000
  O   O47       1.0  0.64830  0.16570  0.14720  1.0000
  O   O48       1.0  0.35170  0.83430  0.64720  1.0000
  O   O49       1.0  0.09450  0.53830  0.16260  1.0000
  O   O50       1.0  0.90550  0.46170  0.66260  1.0000
  O   O51       1.0  0.59450  0.96170  0.16260  1.0000
  O   O52       1.0  0.40550  0.03830  0.66260  1.0000
  O   O53       1.0  0.09100  0.47120  0.86900  1.0000
  O   O54       1.0  0.90900  0.52880  0.36900  1.0000
  O   O55       1.0  0.59100  0.02880  0.86900  1.0000
  O   O56       1.0  0.40900  0.97120  0.36900  1.0000
  O   O57       1.0  0.69100  0.08730  0.94960  1.0000
  O   O58       1.0  0.30900  0.91270  0.44960  1.0000
  O   O59       1.0  0.19100  0.41270  0.94960  1.0000
  O   O60       1.0  0.80900  0.58730  0.44960  1.0000
  O   O61       1.0  0.09260  0.40690  0.27820  1.0000
  O   O62       1.0  0.90740  0.59310  0.77820  1.0000
  O   O63       1.0  0.59260  0.09310  0.27820  1.0000
  O   O64       1.0  0.40740  0.90690  0.77820  1.0000
  Ru  Ru1       1.0  0.65484  0.99634  0.00960  1.0000
  Ru  Ru2       1.0  0.34516  0.00366  0.50960  1.0000
  Ru  Ru3       1.0  0.15484  0.50366  0.00960  1.0000
  Ru  Ru4       1.0  0.84516  0.49634  0.50960  1.0000
  Zn  Zn1       1.0  0.65568  0.95773  0.85209  1.0000
  Zn  Zn2       1.0  0.34432  0.04227  0.35209  1.0000
  Zn  Zn3       1.0  0.15568  0.54227  0.85209  1.0000
  Zn  Zn4       1.0  0.84432  0.45773  0.35209  1.0000
  Zn  Zn5       1.0  0.15813  0.46243  0.17378  1.0000
  Zn  Zn6       1.0  0.84187  0.53757  0.67378  1.0000
  Zn  Zn7       1.0  0.65813  0.03757  0.17378  1.0000
  Zn  Zn8       1.0  0.34187  0.96243  0.67378  1.0000
