data_image0
_chemical_formula_structural       Cu2O16N4C16H4C4H4C4H4C4
_chemical_formula_sum              "Cu2 O16 N4 C28 H12"
_cell_length_a       23.527
_cell_length_b       7.9089
_cell_length_c       13.6772
_cell_angle_alpha    90
_cell_angle_beta     94.627
_cell_angle_gamma    90

_space_group_name_H-M_alt    "P 1"
_space_group_IT_number       1

loop_
  _space_group_symop_operation_xyz
  'x, y, z'

loop_
  _atom_site_type_symbol
  _atom_site_label
  _atom_site_symmetry_multiplicity
  _atom_site_fract_x
  _atom_site_fract_y
  _atom_site_fract_z
  _atom_site_occupancy
  Cu  Cu1       1.0  0.50000  0.00000  0.00000  1.0000
  Cu  Cu2       1.0  0.50000  0.50000  0.50000  1.0000
  O   O1        1.0  0.43067  0.99990  0.06710  1.0000
  O   O2        1.0  0.56933  0.49990  0.43290  1.0000
  O   O3        1.0  0.56933  0.00010  0.93290  1.0000
  O   O4        1.0  0.43067  0.50010  0.56710  1.0000
  O   O5        1.0  0.38843  0.14280  0.18060  1.0000
  O   O6        1.0  0.61157  0.64280  0.31940  1.0000
  O   O7        1.0  0.61157  0.85720  0.81940  1.0000
  O   O8        1.0  0.38843  0.35720  0.68060  1.0000
  O   O9        1.0  0.43513  0.42480  0.32590  1.0000
  O   O10       1.0  0.56487  0.92480  0.17410  1.0000
  O   O11       1.0  0.56487  0.57520  0.67410  1.0000
  O   O12       1.0  0.43513  0.07520  0.82590  1.0000
  O   O13       1.0  0.38155  0.53190  0.19820  1.0000
  O   O14       1.0  0.61845  0.03190  0.30180  1.0000
  O   O15       1.0  0.61845  0.46810  0.80180  1.0000
  O   O16       1.0  0.38155  0.96810  0.69820  1.0000
  N   N1        1.0  0.51143  0.22450  0.05840  1.0000
  N   N2        1.0  0.48857  0.72450  0.44160  1.0000
  N   N3        1.0  0.48857  0.77550  0.94160  1.0000
  N   N4        1.0  0.51143  0.27550  0.55840  1.0000
  C   C1        1.0  0.42594  0.12630  0.12370  1.0000
  C   C2        1.0  0.57406  0.62630  0.37630  1.0000
  C   C3        1.0  0.57406  0.87370  0.87630  1.0000
  C   C4        1.0  0.42594  0.37370  0.62370  1.0000
  C   C5        1.0  0.47046  0.26210  0.11810  1.0000
  C   C6        1.0  0.52954  0.76210  0.38190  1.0000
  C   C7        1.0  0.52954  0.73790  0.88190  1.0000
  C   C8        1.0  0.47046  0.23790  0.61810  1.0000
  C   C9        1.0  0.47064  0.41280  0.16930  1.0000
  C   C10       1.0  0.52936  0.91280  0.33070  1.0000
  C   C11       1.0  0.52936  0.58720  0.83070  1.0000
  C   C12       1.0  0.47064  0.08720  0.66930  1.0000
  C   C13       1.0  0.51400  0.52680  0.15510  1.0000
  C   C14       1.0  0.48600  0.02680  0.34490  1.0000
  C   C15       1.0  0.48600  0.47320  0.84490  1.0000
  C   C16       1.0  0.51400  0.97320  0.65510  1.0000
  H   H1        1.0  0.51430  0.63210  0.18530  1.0000
  H   H2        1.0  0.48570  0.13210  0.31470  1.0000
  H   H3        1.0  0.48570  0.36790  0.81470  1.0000
  H   H4        1.0  0.51430  0.86790  0.68530  1.0000
  C   C17       1.0  0.55690  0.48370  0.09570  1.0000
  C   C18       1.0  0.44310  0.98370  0.40430  1.0000
  C   C19       1.0  0.44310  0.51630  0.90430  1.0000
  C   C20       1.0  0.55690  0.01630  0.59570  1.0000
  H   H5        1.0  0.58680  0.55790  0.08770  1.0000
  H   H6        1.0  0.41320  0.05790  0.41230  1.0000
  H   H7        1.0  0.41320  0.44210  0.91230  1.0000
  H   H8        1.0  0.58680  0.94210  0.58770  1.0000
  C   C21       1.0  0.55450  0.33100  0.04920  1.0000
  C   C22       1.0  0.44550  0.83100  0.45080  1.0000
  C   C23       1.0  0.44550  0.66900  0.95080  1.0000
  C   C24       1.0  0.55450  0.16900  0.54920  1.0000
  H   H9        1.0  0.58360  0.30070  0.01030  1.0000
  H   H10       1.0  0.41640  0.80070  0.48970  1.0000
  H   H11       1.0  0.41640  0.69930  0.98970  1.0000
  H   H12       1.0  0.58360  0.19930  0.51030  1.0000
  C   C25       1.0  0.42470  0.45940  0.23610  1.0000
  C   C26       1.0  0.57530  0.95940  0.26390  1.0000
  C   C27       1.0  0.57530  0.54060  0.76390  1.0000
  C   C28       1.0  0.42470  0.04060  0.73610  1.0000
