data_image0
_chemical_formula_structural       Eu4O40C24H8C16H8C16H8C8H8
_chemical_formula_sum              "Eu4 O40 C64 H32"
_cell_length_a       9.2104
_cell_length_b       13.203
_cell_length_c       14.465
_cell_angle_alpha    90
_cell_angle_beta     90
_cell_angle_gamma    90

_space_group_name_H-M_alt    "P 1"
_space_group_IT_number       1

loop_
  _space_group_symop_operation_xyz
  'x, y, z'

loop_
  _atom_site_type_symbol
  _atom_site_label
  _atom_site_symmetry_multiplicity
  _atom_site_fract_x
  _atom_site_fract_y
  _atom_site_fract_z
  _atom_site_occupancy
  Eu  Eu1       1.0  0.25000  0.00000  0.59606  1.0000
  Eu  Eu2       1.0  0.25000  0.50000  0.90394  1.0000
  Eu  Eu3       1.0  0.75000  0.00000  0.40394  1.0000
  Eu  Eu4       1.0  0.75000  0.50000  0.09606  1.0000
  O   O1        1.0  0.69872  0.39047  0.23164  1.0000
  O   O2        1.0  0.80128  0.60953  0.23164  1.0000
  O   O3        1.0  0.80128  0.89047  0.26836  1.0000
  O   O4        1.0  0.69872  0.10953  0.26836  1.0000
  O   O5        1.0  0.30128  0.60953  0.76836  1.0000
  O   O6        1.0  0.19872  0.39047  0.76836  1.0000
  O   O7        1.0  0.19872  0.10953  0.73164  1.0000
  O   O8        1.0  0.30128  0.89047  0.73164  1.0000
  O   O9        1.0  0.53000  0.50632  0.20790  1.0000
  O   O10       1.0  0.97000  0.49368  0.20790  1.0000
  O   O11       1.0  0.97000  0.00632  0.29210  1.0000
  O   O12       1.0  0.53000  0.99368  0.29210  1.0000
  O   O13       1.0  0.47000  0.49368  0.79210  1.0000
  O   O14       1.0  0.03000  0.50632  0.79210  1.0000
  O   O15       1.0  0.03000  0.99368  0.70790  1.0000
  O   O16       1.0  0.47000  0.00632  0.70790  1.0000
  O   O17       1.0  0.39529  0.14226  0.56002  1.0000
  O   O18       1.0  0.10471  0.85774  0.56002  1.0000
  O   O19       1.0  0.10471  0.64226  0.93998  1.0000
  O   O20       1.0  0.39529  0.35774  0.93998  1.0000
  O   O21       1.0  0.60471  0.85774  0.43998  1.0000
  O   O22       1.0  0.89529  0.14226  0.43998  1.0000
  O   O23       1.0  0.89529  0.35774  0.06002  1.0000
  O   O24       1.0  0.60471  0.64226  0.06002  1.0000
  O   O25       1.0  0.56840  0.11220  0.45732  1.0000
  O   O26       1.0  0.93160  0.88780  0.45732  1.0000
  O   O27       1.0  0.93160  0.61220  0.04268  1.0000
  O   O28       1.0  0.56840  0.38780  0.04268  1.0000
  O   O29       1.0  0.43160  0.88780  0.54268  1.0000
  O   O30       1.0  0.06840  0.11220  0.54268  1.0000
  O   O31       1.0  0.06840  0.38780  0.95732  1.0000
  O   O32       1.0  0.43160  0.61220  0.95732  1.0000
  O   O33       1.0  0.25000  0.50000  0.51351  1.0000
  O   O34       1.0  0.25000  0.00000  0.98649  1.0000
  O   O35       1.0  0.75000  0.50000  0.48649  1.0000
  O   O36       1.0  0.75000  0.00000  0.01351  1.0000
  O   O37       1.0  0.25000  0.00000  0.41600  1.0000
  O   O38       1.0  0.25000  0.50000  0.08400  1.0000
  O   O39       1.0  0.75000  0.00000  0.58400  1.0000
  O   O40       1.0  0.75000  0.50000  0.91600  1.0000
  C   C1        1.0  0.58210  0.43447  0.25491  1.0000
  C   C2        1.0  0.91790  0.56553  0.25491  1.0000
  C   C3        1.0  0.91790  0.93447  0.24509  1.0000
  C   C4        1.0  0.58210  0.06553  0.24509  1.0000
  C   C5        1.0  0.41790  0.56553  0.74509  1.0000
  C   C6        1.0  0.08210  0.43447  0.74509  1.0000
  C   C7        1.0  0.08210  0.06553  0.75491  1.0000
  C   C8        1.0  0.41790  0.93447  0.75491  1.0000
  C   C9        1.0  0.50520  0.40033  0.34086  1.0000
  C   C10       1.0  0.99480  0.59967  0.34086  1.0000
  C   C11       1.0  0.99480  0.90033  0.15914  1.0000
  C   C12       1.0  0.50520  0.09967  0.15914  1.0000
  C   C13       1.0  0.49480  0.59967  0.65914  1.0000
  C   C14       1.0  0.00520  0.40033  0.65914  1.0000
  C   C15       1.0  0.00520  0.09967  0.84086  1.0000
  C   C16       1.0  0.49480  0.90033  0.84086  1.0000
  C   C17       1.0  0.53020  0.30411  0.37685  1.0000
  C   C18       1.0  0.96980  0.69589  0.37685  1.0000
  C   C19       1.0  0.96980  0.80411  0.12315  1.0000
  C   C20       1.0  0.53020  0.19589  0.12315  1.0000
  C   C21       1.0  0.46980  0.69589  0.62315  1.0000
  C   C22       1.0  0.03020  0.30411  0.62315  1.0000
  C   C23       1.0  0.03020  0.19589  0.87685  1.0000
  C   C24       1.0  0.46980  0.80411  0.87685  1.0000
  H   H1        1.0  0.59518  0.26047  0.34792  1.0000
  H   H2        1.0  0.90482  0.73953  0.34792  1.0000
  H   H3        1.0  0.90482  0.76047  0.15208  1.0000
  H   H4        1.0  0.59518  0.23953  0.15208  1.0000
  H   H5        1.0  0.40482  0.73953  0.65208  1.0000
  H   H6        1.0  0.09518  0.26047  0.65208  1.0000
  H   H7        1.0  0.09518  0.23953  0.84792  1.0000
  H   H8        1.0  0.40482  0.76047  0.84792  1.0000
  C   C25       1.0  0.45720  0.27365  0.45659  1.0000
  C   C26       1.0  0.04280  0.72635  0.45659  1.0000
  C   C27       1.0  0.04280  0.77365  0.04341  1.0000
  C   C28       1.0  0.45720  0.22635  0.04341  1.0000
  C   C29       1.0  0.54280  0.72635  0.54341  1.0000
  C   C30       1.0  0.95720  0.27365  0.54341  1.0000
  C   C31       1.0  0.95720  0.22635  0.95659  1.0000
  C   C32       1.0  0.54280  0.77365  0.95659  1.0000
  C   C33       1.0  0.36130  0.33975  0.50025  1.0000
  C   C34       1.0  0.13870  0.66025  0.50025  1.0000
  C   C35       1.0  0.13870  0.83975  0.99975  1.0000
  C   C36       1.0  0.36130  0.16025  0.99975  1.0000
  C   C37       1.0  0.63870  0.66025  0.49975  1.0000
  C   C38       1.0  0.86130  0.33975  0.49975  1.0000
  C   C39       1.0  0.86130  0.16025  0.00025  1.0000
  C   C40       1.0  0.63870  0.83975  0.00025  1.0000
  H   H9        1.0  0.31230  0.31958  0.55335  1.0000
  H   H10       1.0  0.18770  0.68042  0.55335  1.0000
  H   H11       1.0  0.18770  0.81958  0.94665  1.0000
  H   H12       1.0  0.31230  0.18042  0.94665  1.0000
  H   H13       1.0  0.68770  0.68042  0.44665  1.0000
  H   H14       1.0  0.81230  0.31958  0.44665  1.0000
  H   H15       1.0  0.81230  0.18042  0.05335  1.0000
  H   H16       1.0  0.68770  0.81958  0.05335  1.0000
  C   C41       1.0  0.33940  0.43592  0.46400  1.0000
  C   C42       1.0  0.16060  0.56408  0.46400  1.0000
  C   C43       1.0  0.16060  0.93592  0.03600  1.0000
  C   C44       1.0  0.33940  0.06408  0.03600  1.0000
  C   C45       1.0  0.66060  0.56408  0.53600  1.0000
  C   C46       1.0  0.83940  0.43592  0.53600  1.0000
  C   C47       1.0  0.83940  0.06408  0.96400  1.0000
  C   C48       1.0  0.66060  0.93592  0.96400  1.0000
  C   C49       1.0  0.40960  0.46646  0.38409  1.0000
  C   C50       1.0  0.09040  0.53354  0.38409  1.0000
  C   C51       1.0  0.09040  0.96646  0.11591  1.0000
  C   C52       1.0  0.40960  0.03354  0.11591  1.0000
  C   C53       1.0  0.59040  0.53354  0.61591  1.0000
  C   C54       1.0  0.90960  0.46646  0.61591  1.0000
  C   C55       1.0  0.90960  0.03354  0.88409  1.0000
  C   C56       1.0  0.59040  0.96646  0.88409  1.0000
  H   H17       1.0  0.39293  0.53055  0.35962  1.0000
  H   H18       1.0  0.10707  0.46945  0.35962  1.0000
  H   H19       1.0  0.10707  0.03055  0.14038  1.0000
  H   H20       1.0  0.39293  0.96945  0.14038  1.0000
  H   H21       1.0  0.60707  0.46945  0.64038  1.0000
  H   H22       1.0  0.89293  0.53055  0.64038  1.0000
  H   H23       1.0  0.89293  0.96945  0.85962  1.0000
  H   H24       1.0  0.60707  0.03055  0.85962  1.0000
  C   C57       1.0  0.47630  0.16799  0.49389  1.0000
  C   C58       1.0  0.02370  0.83201  0.49389  1.0000
  C   C59       1.0  0.02370  0.66799  0.00611  1.0000
  C   C60       1.0  0.47630  0.33201  0.00611  1.0000
  C   C61       1.0  0.52370  0.83201  0.50611  1.0000
  C   C62       1.0  0.97630  0.16799  0.50611  1.0000
  C   C63       1.0  0.97630  0.33201  0.99389  1.0000
  C   C64       1.0  0.52370  0.66799  0.99389  1.0000
  H   H25       1.0  0.32430  0.99100  0.38220  1.0000
  H   H26       1.0  0.17570  0.00900  0.38220  1.0000
  H   H27       1.0  0.17570  0.49100  0.11780  1.0000
  H   H28       1.0  0.32430  0.50900  0.11780  1.0000
  H   H29       1.0  0.67570  0.00900  0.61780  1.0000
  H   H30       1.0  0.82430  0.99100  0.61780  1.0000
  H   H31       1.0  0.82430  0.50900  0.88220  1.0000
  H   H32       1.0  0.67570  0.49100  0.88220  1.0000
