data_image0
_chemical_formula_structural       Zn2O12N4C4H2C2H2C4H2C2H2C4H2C2H2C4H2C2H2C4H2C2H2C4H2C2H2C8H2C2H2C4H2C2H2
_chemical_formula_sum              "Zn2 O12 N4 C52 H32"
_cell_length_a       9.3189
_cell_length_b       13.4985
_cell_length_c       14.3207
_cell_angle_alpha    116.117
_cell_angle_beta     92.393
_cell_angle_gamma    109.754

_space_group_name_H-M_alt    "P 1"
_space_group_IT_number       1

loop_
  _space_group_symop_operation_xyz
  'x, y, z'

loop_
  _atom_site_type_symbol
  _atom_site_label
  _atom_site_symmetry_multiplicity
  _atom_site_fract_x
  _atom_site_fract_y
  _atom_site_fract_z
  _atom_site_occupancy
  Zn  Zn1       1.0  0.60253  0.72509  0.96545  1.0000
  Zn  Zn2       1.0  0.39747  0.27491  0.03455  1.0000
  O   O1        1.0  0.42340  0.57370  0.86760  1.0000
  O   O2        1.0  0.57660  0.42630  0.13240  1.0000
  O   O3        1.0  0.25260  0.65580  0.87250  1.0000
  O   O4        1.0  0.74740  0.34420  0.12750  1.0000
  O   O5        1.0  0.75080  0.88860  0.12070  1.0000
  O   O6        1.0  0.24920  0.11140  0.87930  1.0000
  O   O7        1.0  0.53650  0.75460  0.11450  1.0000
  O   O8        1.0  0.46350  0.24540  0.88550  1.0000
  O   O9        1.0  0.56770  0.90420  0.94840  1.0000
  O   O10       1.0  0.43230  0.09580  0.05160  1.0000
  O   O11       1.0  0.69240  0.78900  0.86810  1.0000
  O   O12       1.0  0.30760  0.21100  0.13190  1.0000
  N   N1        1.0  0.79290  0.09870  0.62210  1.0000
  N   N2        1.0  0.20710  0.90130  0.37790  1.0000
  N   N3        1.0  0.75010  0.63880  0.97230  1.0000
  N   N4        1.0  0.24990  0.36120  0.02770  1.0000
  C   C1        1.0  0.75900  0.03540  0.51010  1.0000
  C   C2        1.0  0.24100  0.96460  0.48990  1.0000
  C   C3        1.0  0.85410  0.08080  0.45370  1.0000
  C   C4        1.0  0.14590  0.91920  0.54630  1.0000
  H   H1        1.0  0.94170  0.15280  0.49040  1.0000
  H   H2        1.0  0.05830  0.84720  0.50960  1.0000
  C   C5        1.0  0.81870  0.01920  0.34320  1.0000
  C   C6        1.0  0.18130  0.98080  0.65680  1.0000
  H   H3        1.0  0.88380  0.05000  0.30650  1.0000
  H   H4        1.0  0.11620  0.95000  0.69350  1.0000
  C   C7        1.0  0.68810  0.91240  0.28620  1.0000
  C   C8        1.0  0.31190  0.08760  0.71380  1.0000
  C   C9        1.0  0.59370  0.86780  0.34260  1.0000
  C   C10       1.0  0.40630  0.13220  0.65740  1.0000
  H   H5        1.0  0.50590  0.79610  0.30560  1.0000
  H   H6        1.0  0.49410  0.20390  0.69440  1.0000
  C   C11       1.0  0.62770  0.92800  0.45280  1.0000
  C   C12       1.0  0.37230  0.07200  0.54720  1.0000
  H   H7        1.0  0.56240  0.89660  0.48910  1.0000
  H   H8        1.0  0.43760  0.10340  0.51090  1.0000
  C   C13       1.0  0.75440  0.03770  0.68350  1.0000
  C   C14       1.0  0.24560  0.96230  0.31650  1.0000
  C   C15       1.0  0.69310  0.08540  0.77180  1.0000
  C   C16       1.0  0.30690  0.91460  0.22820  1.0000
  H   H9        1.0  0.67490  0.15430  0.78820  1.0000
  H   H10       1.0  0.32510  0.84570  0.21180  1.0000
  C   C17       1.0  0.65900  0.03160  0.83520  1.0000
  C   C18       1.0  0.34100  0.96840  0.16480  1.0000
  H   H11       1.0  0.61690  0.06390  0.89360  1.0000
  H   H12       1.0  0.38310  0.93610  0.10640  1.0000
  C   C19       1.0  0.68720  0.92930  0.81250  1.0000
  C   C20       1.0  0.31280  0.07070  0.18750  1.0000
  C   C21       1.0  0.74790  0.88130  0.72410  1.0000
  C   C22       1.0  0.25210  0.11870  0.27590  1.0000
  H   H13       1.0  0.76750  0.81310  0.70820  1.0000
  H   H14       1.0  0.23250  0.18690  0.29180  1.0000
  C   C23       1.0  0.77980  0.93460  0.65930  1.0000
  C   C24       1.0  0.22020  0.06540  0.34070  1.0000
  H   H15       1.0  0.81830  0.90080  0.59930  1.0000
  H   H16       1.0  0.18170  0.09920  0.40070  1.0000
  C   C25       1.0  0.91680  0.21710  0.67630  1.0000
  C   C26       1.0  0.08320  0.78290  0.32370  1.0000
  C   C27       1.0  0.89170  0.31520  0.68600  1.0000
  C   C28       1.0  0.10830  0.68480  0.31400  1.0000
  H   H17       1.0  0.79350  0.30580  0.65760  1.0000
  H   H18       1.0  0.20650  0.69420  0.34240  1.0000
  C   C29       1.0  0.01270  0.42850  0.73810  1.0000
  C   C30       1.0  0.98730  0.57150  0.26190  1.0000
  H   H19       1.0  0.99430  0.49470  0.74480  1.0000
  H   H20       1.0  0.00570  0.50530  0.25520  1.0000
  C   C31       1.0  0.16040  0.44440  0.78020  1.0000
  C   C32       1.0  0.83960  0.55560  0.21980  1.0000
  C   C33       1.0  0.18490  0.34460  0.76820  1.0000
  C   C34       1.0  0.81510  0.65540  0.23180  1.0000
  H   H21       1.0  0.28390  0.35330  0.79440  1.0000
  H   H22       1.0  0.71610  0.64670  0.20560  1.0000
  C   C35       1.0  0.06390  0.23140  0.71760  1.0000
  C   C36       1.0  0.93610  0.76860  0.28240  1.0000
  H   H23       1.0  0.08160  0.16510  0.71130  1.0000
  H   H24       1.0  0.91840  0.83490  0.28870  1.0000
  C   C37       1.0  0.64660  0.87080  0.88190  1.0000
  C   C38       1.0  0.35340  0.12920  0.11810  1.0000
  C   C39       1.0  0.65420  0.84660  0.16540  1.0000
  C   C40       1.0  0.34580  0.15340  0.83460  1.0000
  C   C41       1.0  0.28840  0.56820  0.84310  1.0000
  C   C42       1.0  0.71160  0.43180  0.15690  1.0000
  C   C43       1.0  0.69510  0.52070  0.94010  1.0000
  C   C44       1.0  0.30490  0.47930  0.05990  1.0000
  H   H25       1.0  0.58860  0.47520  0.91050  1.0000
  H   H26       1.0  0.41140  0.52480  0.08950  1.0000
  C   C45       1.0  0.78820  0.46360  0.94860  1.0000
  C   C46       1.0  0.21180  0.53640  0.05140  1.0000
  H   H27       1.0  0.74430  0.38130  0.92470  1.0000
  H   H28       1.0  0.25570  0.61870  0.07530  1.0000
  C   C47       1.0  0.94810  0.52850  0.99300  1.0000
  C   C48       1.0  0.05190  0.47150  0.00700  1.0000
  C   C49       1.0  0.00450  0.64990  0.02440  1.0000
  C   C50       1.0  0.99550  0.35010  0.97560  1.0000
  H   H29       1.0  0.11100  0.69710  0.05210  1.0000
  H   H30       1.0  0.88900  0.30290  0.94790  1.0000
  C   C51       1.0  0.90340  0.70110  0.01460  1.0000
  C   C52       1.0  0.09660  0.29890  0.98540  1.0000
  H   H31       1.0  0.94410  0.78350  0.03870  1.0000
  H   H32       1.0  0.05590  0.21650  0.96130  1.0000
