data_image0
_chemical_formula_structural       Zn8N16C16H8C8H8C16H8C8H8C16H8C8H8C16H8C8H8C16H8C8H8C16H8C8H8C32H8C8H8C8H8C8H8C8H8O48
_chemical_formula_sum              "Zn8 N16 C208 H136 O48"
_cell_length_a       26.0328
_cell_length_b       9.1655
_cell_length_c       27.4382
_cell_angle_alpha    90
_cell_angle_beta     117.814
_cell_angle_gamma    90

_space_group_name_H-M_alt    "P 1"
_space_group_IT_number       1

loop_
  _space_group_symop_operation_xyz
  'x, y, z'

loop_
  _atom_site_type_symbol
  _atom_site_label
  _atom_site_symmetry_multiplicity
  _atom_site_fract_x
  _atom_site_fract_y
  _atom_site_fract_z
  _atom_site_occupancy
  Zn  Zn1       1.0  0.11317  0.13603  0.16457  1.0000
  Zn  Zn2       1.0  0.88683  0.13603  0.33543  1.0000
  Zn  Zn3       1.0  0.61317  0.63603  0.16457  1.0000
  Zn  Zn4       1.0  0.38683  0.63603  0.33543  1.0000
  Zn  Zn5       1.0  0.88683  0.86397  0.83543  1.0000
  Zn  Zn6       1.0  0.11317  0.86397  0.66457  1.0000
  Zn  Zn7       1.0  0.38683  0.36397  0.83543  1.0000
  Zn  Zn8       1.0  0.61317  0.36397  0.66457  1.0000
  N   N1        1.0  0.25625  0.47110  0.48284  1.0000
  N   N2        1.0  0.74375  0.47110  0.01716  1.0000
  N   N3        1.0  0.75625  0.97110  0.48284  1.0000
  N   N4        1.0  0.24375  0.97110  0.01716  1.0000
  N   N5        1.0  0.74375  0.52890  0.51716  1.0000
  N   N6        1.0  0.25625  0.52890  0.98284  1.0000
  N   N7        1.0  0.24375  0.02890  0.51716  1.0000
  N   N8        1.0  0.75625  0.02890  0.98284  1.0000
  N   N9        1.0  0.15023  0.92770  0.18693  1.0000
  N   N10       1.0  0.84977  0.92770  0.31307  1.0000
  N   N11       1.0  0.65023  0.42770  0.18693  1.0000
  N   N12       1.0  0.34977  0.42770  0.31307  1.0000
  N   N13       1.0  0.84977  0.07230  0.81307  1.0000
  N   N14       1.0  0.15023  0.07230  0.68693  1.0000
  N   N15       1.0  0.34977  0.57230  0.81307  1.0000
  N   N16       1.0  0.65023  0.57230  0.68693  1.0000
  C   C1        1.0  0.16437  0.36930  0.31366  1.0000
  C   C2        1.0  0.83563  0.36930  0.18634  1.0000
  C   C3        1.0  0.66437  0.86930  0.31366  1.0000
  C   C4        1.0  0.33563  0.86930  0.18634  1.0000
  C   C5        1.0  0.83563  0.63070  0.68634  1.0000
  C   C6        1.0  0.16437  0.63070  0.81366  1.0000
  C   C7        1.0  0.33563  0.13070  0.68634  1.0000
  C   C8        1.0  0.66437  0.13070  0.81366  1.0000
  C   C9        1.0  0.14670  0.48400  0.33493  1.0000
  C   C10       1.0  0.85330  0.48400  0.16507  1.0000
  C   C11       1.0  0.64670  0.98400  0.33493  1.0000
  C   C12       1.0  0.35330  0.98400  0.16507  1.0000
  C   C13       1.0  0.85330  0.51600  0.66507  1.0000
  C   C14       1.0  0.14670  0.51600  0.83493  1.0000
  C   C15       1.0  0.35330  0.01600  0.66507  1.0000
  C   C16       1.0  0.64670  0.01600  0.83493  1.0000
  H   H1        1.0  0.11470  0.53960  0.31160  1.0000
  H   H2        1.0  0.88530  0.53960  0.18840  1.0000
  H   H3        1.0  0.61470  0.03960  0.31160  1.0000
  H   H4        1.0  0.38530  0.03960  0.18840  1.0000
  H   H5        1.0  0.88530  0.46040  0.68840  1.0000
  H   H6        1.0  0.11470  0.46040  0.81160  1.0000
  H   H7        1.0  0.38530  0.96040  0.68840  1.0000
  H   H8        1.0  0.61470  0.96040  0.81160  1.0000
  C   C17       1.0  0.17629  0.51730  0.39087  1.0000
  C   C18       1.0  0.82371  0.51730  0.10913  1.0000
  C   C19       1.0  0.67629  0.01730  0.39087  1.0000
  C   C20       1.0  0.32371  0.01730  0.10913  1.0000
  C   C21       1.0  0.82371  0.48270  0.60913  1.0000
  C   C22       1.0  0.17629  0.48270  0.89087  1.0000
  C   C23       1.0  0.32371  0.98270  0.60913  1.0000
  C   C24       1.0  0.67629  0.98270  0.89087  1.0000
  H   H9        1.0  0.16330  0.59320  0.40480  1.0000
  H   H10       1.0  0.83670  0.59320  0.09520  1.0000
  H   H11       1.0  0.66330  0.09320  0.40480  1.0000
  H   H12       1.0  0.33670  0.09320  0.09520  1.0000
  H   H13       1.0  0.83670  0.40680  0.59520  1.0000
  H   H14       1.0  0.16330  0.40680  0.90480  1.0000
  H   H15       1.0  0.33670  0.90680  0.59520  1.0000
  H   H16       1.0  0.66330  0.90680  0.90480  1.0000
  C   C25       1.0  0.22498  0.43790  0.42591  1.0000
  C   C26       1.0  0.77502  0.43790  0.07409  1.0000
  C   C27       1.0  0.72498  0.93790  0.42591  1.0000
  C   C28       1.0  0.27502  0.93790  0.07409  1.0000
  C   C29       1.0  0.77502  0.56210  0.57409  1.0000
  C   C30       1.0  0.22498  0.56210  0.92591  1.0000
  C   C31       1.0  0.27502  0.06210  0.57409  1.0000
  C   C32       1.0  0.72498  0.06210  0.92591  1.0000
  C   C33       1.0  0.24286  0.32340  0.40395  1.0000
  C   C34       1.0  0.75714  0.32340  0.09605  1.0000
  C   C35       1.0  0.74286  0.82340  0.40395  1.0000
  C   C36       1.0  0.25714  0.82340  0.09605  1.0000
  C   C37       1.0  0.75714  0.67660  0.59605  1.0000
  C   C38       1.0  0.24286  0.67660  0.90395  1.0000
  C   C39       1.0  0.25714  0.17660  0.59605  1.0000
  C   C40       1.0  0.74286  0.17660  0.90395  1.0000
  H   H17       1.0  0.27560  0.26930  0.42670  1.0000
  H   H18       1.0  0.72440  0.26930  0.07330  1.0000
  H   H19       1.0  0.77560  0.76930  0.42670  1.0000
  H   H20       1.0  0.22440  0.76930  0.07330  1.0000
  H   H21       1.0  0.72440  0.73070  0.57330  1.0000
  H   H22       1.0  0.27560  0.73070  0.92670  1.0000
  H   H23       1.0  0.22440  0.23070  0.57330  1.0000
  H   H24       1.0  0.77560  0.23070  0.92670  1.0000
  C   C41       1.0  0.21254  0.28980  0.34903  1.0000
  C   C42       1.0  0.78746  0.28980  0.15097  1.0000
  C   C43       1.0  0.71254  0.78980  0.34903  1.0000
  C   C44       1.0  0.28746  0.78980  0.15097  1.0000
  C   C45       1.0  0.78746  0.71020  0.65097  1.0000
  C   C46       1.0  0.21254  0.71020  0.84903  1.0000
  C   C47       1.0  0.28746  0.21020  0.65097  1.0000
  C   C48       1.0  0.71254  0.21020  0.84903  1.0000
  H   H25       1.0  0.22470  0.21180  0.33530  1.0000
  H   H26       1.0  0.77530  0.21180  0.16470  1.0000
  H   H27       1.0  0.72470  0.71180  0.33530  1.0000
  H   H28       1.0  0.27530  0.71180  0.16470  1.0000
  H   H29       1.0  0.77530  0.78820  0.66470  1.0000
  H   H30       1.0  0.22470  0.78820  0.83530  1.0000
  H   H31       1.0  0.27530  0.28820  0.66470  1.0000
  H   H32       1.0  0.72470  0.28820  0.83530  1.0000
  C   C49       1.0  0.31806  0.46350  0.51029  1.0000
  C   C50       1.0  0.68194  0.46350  0.98971  1.0000
  C   C51       1.0  0.81806  0.96350  0.51029  1.0000
  C   C52       1.0  0.18194  0.96350  0.98971  1.0000
  C   C53       1.0  0.68194  0.53650  0.48971  1.0000
  C   C54       1.0  0.31806  0.53650  0.01029  1.0000
  C   C55       1.0  0.18194  0.03650  0.48971  1.0000
  C   C56       1.0  0.81806  0.03650  0.01029  1.0000
  C   C57       1.0  0.34809  0.41490  0.56471  1.0000
  C   C58       1.0  0.65191  0.41490  0.93529  1.0000
  C   C59       1.0  0.84809  0.91490  0.56471  1.0000
  C   C60       1.0  0.15191  0.91490  0.93529  1.0000
  C   C61       1.0  0.65191  0.58510  0.43529  1.0000
  C   C62       1.0  0.34809  0.58510  0.06471  1.0000
  C   C63       1.0  0.15191  0.08510  0.43529  1.0000
  C   C64       1.0  0.84809  0.08510  0.06471  1.0000
  H   H33       1.0  0.32770  0.38690  0.58340  1.0000
  H   H34       1.0  0.67230  0.38690  0.91660  1.0000
  H   H35       1.0  0.82770  0.88690  0.58340  1.0000
  H   H36       1.0  0.17230  0.88690  0.91660  1.0000
  H   H37       1.0  0.67230  0.61310  0.41660  1.0000
  H   H38       1.0  0.32770  0.61310  0.08340  1.0000
  H   H39       1.0  0.17230  0.11310  0.41660  1.0000
  H   H40       1.0  0.82770  0.11310  0.08340  1.0000
  C   C65       1.0  0.40797  0.40820  0.59087  1.0000
  C   C66       1.0  0.59203  0.40820  0.90913  1.0000
  C   C67       1.0  0.90797  0.90820  0.59087  1.0000
  C   C68       1.0  0.09203  0.90820  0.90913  1.0000
  C   C69       1.0  0.59203  0.59180  0.40913  1.0000
  C   C70       1.0  0.40797  0.59180  0.09087  1.0000
  C   C71       1.0  0.09203  0.09180  0.40913  1.0000
  C   C72       1.0  0.90797  0.09180  0.09087  1.0000
  H   H41       1.0  0.42750  0.37530  0.62710  1.0000
  H   H42       1.0  0.57250  0.37530  0.87290  1.0000
  H   H43       1.0  0.92750  0.87530  0.62710  1.0000
  H   H44       1.0  0.07250  0.87530  0.87290  1.0000
  H   H45       1.0  0.57250  0.62470  0.37290  1.0000
  H   H46       1.0  0.42750  0.62470  0.12710  1.0000
  H   H47       1.0  0.07250  0.12470  0.37290  1.0000
  H   H48       1.0  0.92750  0.12470  0.12710  1.0000
  C   C73       1.0  0.43937  0.44950  0.56418  1.0000
  C   C74       1.0  0.56063  0.44950  0.93582  1.0000
  C   C75       1.0  0.93937  0.94950  0.56418  1.0000
  C   C76       1.0  0.06063  0.94950  0.93582  1.0000
  C   C77       1.0  0.56063  0.55050  0.43582  1.0000
  C   C78       1.0  0.43937  0.55050  0.06418  1.0000
  C   C79       1.0  0.06063  0.05050  0.43582  1.0000
  C   C80       1.0  0.93937  0.05050  0.06418  1.0000
  C   C81       1.0  0.40953  0.49680  0.50997  1.0000
  C   C82       1.0  0.59047  0.49680  0.99003  1.0000
  C   C83       1.0  0.90953  0.99680  0.50997  1.0000
  C   C84       1.0  0.09047  0.99680  0.99003  1.0000
  C   C85       1.0  0.59047  0.50320  0.49003  1.0000
  C   C86       1.0  0.40953  0.50320  0.00997  1.0000
  C   C87       1.0  0.09047  0.00320  0.49003  1.0000
  C   C88       1.0  0.90953  0.00320  0.00997  1.0000
  H   H49       1.0  0.43020  0.52420  0.49140  1.0000
  H   H50       1.0  0.56980  0.52420  0.00860  1.0000
  H   H51       1.0  0.93020  0.02420  0.49140  1.0000
  H   H52       1.0  0.06980  0.02420  0.00860  1.0000
  H   H53       1.0  0.56980  0.47580  0.50860  1.0000
  H   H54       1.0  0.43020  0.47580  0.99140  1.0000
  H   H55       1.0  0.06980  0.97580  0.50860  1.0000
  H   H56       1.0  0.93020  0.97580  0.99140  1.0000
  C   C89       1.0  0.34984  0.50390  0.48325  1.0000
  C   C90       1.0  0.65016  0.50390  0.01675  1.0000
  C   C91       1.0  0.84984  0.00390  0.48325  1.0000
  C   C92       1.0  0.15016  0.00390  0.01675  1.0000
  C   C93       1.0  0.65016  0.49610  0.51675  1.0000
  C   C94       1.0  0.34984  0.49610  0.98325  1.0000
  C   C95       1.0  0.15016  0.99610  0.51675  1.0000
  C   C96       1.0  0.84984  0.99610  0.98325  1.0000
  H   H57       1.0  0.33060  0.53580  0.44690  1.0000
  H   H58       1.0  0.66940  0.53580  0.05310  1.0000
  H   H59       1.0  0.83060  0.03580  0.44690  1.0000
  H   H60       1.0  0.16940  0.03580  0.05310  1.0000
  H   H61       1.0  0.66940  0.46420  0.55310  1.0000
  H   H62       1.0  0.33060  0.46420  0.94690  1.0000
  H   H63       1.0  0.16940  0.96420  0.55310  1.0000
  H   H64       1.0  0.83060  0.96420  0.94690  1.0000
  C   C97       1.0  0.22662  0.52060  0.51187  1.0000
  C   C98       1.0  0.77338  0.52060  0.98813  1.0000
  C   C99       1.0  0.72662  0.02060  0.51187  1.0000
  C   C100      1.0  0.27338  0.02060  0.98813  1.0000
  C   C101      1.0  0.77338  0.47940  0.48813  1.0000
  C   C102      1.0  0.22662  0.47940  0.01187  1.0000
  C   C103      1.0  0.27338  0.97940  0.48813  1.0000
  C   C104      1.0  0.72662  0.97940  0.01187  1.0000
  C   C105      1.0  0.17390  0.45970  0.50230  1.0000
  C   C106      1.0  0.82610  0.45970  0.99770  1.0000
  C   C107      1.0  0.67390  0.95970  0.50230  1.0000
  C   C108      1.0  0.32610  0.95970  0.99770  1.0000
  C   C109      1.0  0.82610  0.54030  0.49770  1.0000
  C   C110      1.0  0.17390  0.54030  0.00230  1.0000
  C   C111      1.0  0.32610  0.04030  0.49770  1.0000
  C   C112      1.0  0.67390  0.04030  0.00230  1.0000
  H   H65       1.0  0.15830  0.38350  0.47720  1.0000
  H   H66       1.0  0.84170  0.38350  0.02280  1.0000
  H   H67       1.0  0.65830  0.88350  0.47720  1.0000
  H   H68       1.0  0.34170  0.88350  0.02280  1.0000
  H   H69       1.0  0.84170  0.61650  0.52280  1.0000
  H   H70       1.0  0.15830  0.61650  0.97720  1.0000
  H   H71       1.0  0.34170  0.11650  0.52280  1.0000
  H   H72       1.0  0.65830  0.11650  0.97720  1.0000
  C   C113      1.0  0.14447  0.51090  0.52957  1.0000
  C   C114      1.0  0.85553  0.51090  0.97043  1.0000
  C   C115      1.0  0.64447  0.01090  0.52957  1.0000
  C   C116      1.0  0.35553  0.01090  0.97043  1.0000
  C   C117      1.0  0.85553  0.48910  0.47043  1.0000
  C   C118      1.0  0.14447  0.48910  0.02957  1.0000
  C   C119      1.0  0.35553  0.98910  0.47043  1.0000
  C   C120      1.0  0.64447  0.98910  0.02957  1.0000
  H   H73       1.0  0.10890  0.46980  0.52230  1.0000
  H   H74       1.0  0.89110  0.46980  0.97770  1.0000
  H   H75       1.0  0.60890  0.96980  0.52230  1.0000
  H   H76       1.0  0.39110  0.96980  0.97770  1.0000
  H   H77       1.0  0.89110  0.53020  0.47770  1.0000
  H   H78       1.0  0.10890  0.53020  0.02230  1.0000
  H   H79       1.0  0.39110  0.03020  0.47770  1.0000
  H   H80       1.0  0.60890  0.03020  0.02230  1.0000
  C   C121      1.0  0.16746  0.62400  0.56800  1.0000
  C   C122      1.0  0.83254  0.62400  0.93200  1.0000
  C   C123      1.0  0.66746  0.12400  0.56800  1.0000
  C   C124      1.0  0.33254  0.12400  0.93200  1.0000
  C   C125      1.0  0.83254  0.37600  0.43200  1.0000
  C   C126      1.0  0.16746  0.37600  0.06800  1.0000
  C   C127      1.0  0.33254  0.87600  0.43200  1.0000
  C   C128      1.0  0.66746  0.87600  0.06800  1.0000
  C   C129      1.0  0.22107  0.68070  0.57852  1.0000
  C   C130      1.0  0.77893  0.68070  0.92148  1.0000
  C   C131      1.0  0.72107  0.18070  0.57852  1.0000
  C   C132      1.0  0.27893  0.18070  0.92148  1.0000
  C   C133      1.0  0.77893  0.31930  0.42148  1.0000
  C   C134      1.0  0.22107  0.31930  0.07852  1.0000
  C   C135      1.0  0.27893  0.81930  0.42148  1.0000
  C   C136      1.0  0.72107  0.81930  0.07852  1.0000
  H   H81       1.0  0.23760  0.75410  0.60470  1.0000
  H   H82       1.0  0.76240  0.75410  0.89530  1.0000
  H   H83       1.0  0.73760  0.25410  0.60470  1.0000
  H   H84       1.0  0.26240  0.25410  0.89530  1.0000
  H   H85       1.0  0.76240  0.24590  0.39530  1.0000
  H   H86       1.0  0.23760  0.24590  0.10470  1.0000
  H   H87       1.0  0.26240  0.74590  0.39530  1.0000
  H   H88       1.0  0.73760  0.74590  0.10470  1.0000
  C   C137      1.0  0.25022  0.63070  0.55097  1.0000
  C   C138      1.0  0.74978  0.63070  0.94903  1.0000
  C   C139      1.0  0.75022  0.13070  0.55097  1.0000
  C   C140      1.0  0.24978  0.13070  0.94903  1.0000
  C   C141      1.0  0.74978  0.36930  0.44903  1.0000
  C   C142      1.0  0.25022  0.36930  0.05097  1.0000
  C   C143      1.0  0.24978  0.86930  0.44903  1.0000
  C   C144      1.0  0.75022  0.86930  0.05097  1.0000
  H   H89       1.0  0.28600  0.67090  0.55860  1.0000
  H   H90       1.0  0.71400  0.67090  0.94140  1.0000
  H   H91       1.0  0.78600  0.17090  0.55860  1.0000
  H   H92       1.0  0.21400  0.17090  0.94140  1.0000
  H   H93       1.0  0.71400  0.32910  0.44140  1.0000
  H   H94       1.0  0.28600  0.32910  0.05860  1.0000
  H   H95       1.0  0.21400  0.82910  0.44140  1.0000
  H   H96       1.0  0.78600  0.82910  0.05860  1.0000
  C   C145      1.0  0.13261  0.33250  0.25244  1.0000
  C   C146      1.0  0.86739  0.33250  0.24756  1.0000
  C   C147      1.0  0.63261  0.83250  0.25244  1.0000
  C   C148      1.0  0.36739  0.83250  0.24756  1.0000
  C   C149      1.0  0.86739  0.66750  0.74756  1.0000
  C   C150      1.0  0.13261  0.66750  0.75244  1.0000
  C   C151      1.0  0.36739  0.16750  0.74756  1.0000
  C   C152      1.0  0.63261  0.16750  0.75244  1.0000
  C   C153      1.0  0.50518  0.44410  0.59277  1.0000
  C   C154      1.0  0.49482  0.44410  0.90723  1.0000
  C   C155      1.0  0.00518  0.94410  0.59277  1.0000
  C   C156      1.0  0.99482  0.94410  0.90723  1.0000
  C   C157      1.0  0.49482  0.55590  0.40723  1.0000
  C   C158      1.0  0.50518  0.55590  0.09277  1.0000
  C   C159      1.0  0.99482  0.05590  0.40723  1.0000
  C   C160      1.0  0.00518  0.05590  0.09277  1.0000
  C   C161      1.0  0.13346  0.68400  0.59564  1.0000
  C   C162      1.0  0.86654  0.68400  0.90436  1.0000
  C   C163      1.0  0.63346  0.18400  0.59564  1.0000
  C   C164      1.0  0.36654  0.18400  0.90436  1.0000
  C   C165      1.0  0.86654  0.31600  0.40436  1.0000
  C   C166      1.0  0.13346  0.31600  0.09564  1.0000
  C   C167      1.0  0.36654  0.81600  0.40436  1.0000
  C   C168      1.0  0.63346  0.81600  0.09564  1.0000
  C   C169      1.0  0.17943  0.88530  0.23944  1.0000
  C   C170      1.0  0.82057  0.88530  0.26056  1.0000
  C   C171      1.0  0.67943  0.38530  0.23944  1.0000
  C   C172      1.0  0.32057  0.38530  0.26056  1.0000
  C   C173      1.0  0.82057  0.11470  0.76056  1.0000
  C   C174      1.0  0.17943  0.11470  0.73944  1.0000
  C   C175      1.0  0.32057  0.61470  0.76056  1.0000
  C   C176      1.0  0.67943  0.61470  0.73944  1.0000
  H   H97       1.0  0.18520  0.95220  0.26700  1.0000
  H   H98       1.0  0.81480  0.95220  0.23300  1.0000
  H   H99       1.0  0.68520  0.45220  0.26700  1.0000
  H   H100      1.0  0.31480  0.45220  0.23300  1.0000
  H   H101      1.0  0.81480  0.04780  0.73300  1.0000
  H   H102      1.0  0.18520  0.04780  0.76700  1.0000
  H   H103      1.0  0.31480  0.54780  0.73300  1.0000
  H   H104      1.0  0.68520  0.54780  0.76700  1.0000
  C   C177      1.0  0.20127  0.74650  0.25428  1.0000
  C   C178      1.0  0.79873  0.74650  0.24572  1.0000
  C   C179      1.0  0.70127  0.24650  0.25428  1.0000
  C   C180      1.0  0.29873  0.24650  0.24572  1.0000
  C   C181      1.0  0.79873  0.25350  0.74572  1.0000
  C   C182      1.0  0.20127  0.25350  0.75428  1.0000
  C   C183      1.0  0.29873  0.75350  0.74572  1.0000
  C   C184      1.0  0.70127  0.75350  0.75428  1.0000
  H   H105      1.0  0.22200  0.72130  0.29130  1.0000
  H   H106      1.0  0.77800  0.72130  0.20870  1.0000
  H   H107      1.0  0.72200  0.22130  0.29130  1.0000
  H   H108      1.0  0.27800  0.22130  0.20870  1.0000
  H   H109      1.0  0.77800  0.27870  0.70870  1.0000
  H   H110      1.0  0.22200  0.27870  0.79130  1.0000
  H   H111      1.0  0.27800  0.77870  0.70870  1.0000
  H   H112      1.0  0.72200  0.77870  0.79130  1.0000
  C   C185      1.0  0.19252  0.64620  0.21460  1.0000
  C   C186      1.0  0.80748  0.64620  0.28540  1.0000
  C   C187      1.0  0.69252  0.14620  0.21460  1.0000
  C   C188      1.0  0.30748  0.14620  0.28540  1.0000
  C   C189      1.0  0.80748  0.35380  0.78540  1.0000
  C   C190      1.0  0.19252  0.35380  0.71460  1.0000
  C   C191      1.0  0.30748  0.85380  0.78540  1.0000
  C   C192      1.0  0.69252  0.85380  0.71460  1.0000
  H   H113      1.0  0.20590  0.55090  0.22390  1.0000
  H   H114      1.0  0.79410  0.55090  0.27610  1.0000
  H   H115      1.0  0.70590  0.05090  0.22390  1.0000
  H   H116      1.0  0.29410  0.05090  0.27610  1.0000
  H   H117      1.0  0.79410  0.44910  0.77610  1.0000
  H   H118      1.0  0.20590  0.44910  0.72390  1.0000
  H   H119      1.0  0.29410  0.94910  0.77610  1.0000
  H   H120      1.0  0.70590  0.94910  0.72390  1.0000
  C   C193      1.0  0.16394  0.68820  0.16112  1.0000
  C   C194      1.0  0.83606  0.68820  0.33888  1.0000
  C   C195      1.0  0.66394  0.18820  0.16112  1.0000
  C   C196      1.0  0.33606  0.18820  0.33888  1.0000
  C   C197      1.0  0.83606  0.31180  0.83888  1.0000
  C   C198      1.0  0.16394  0.31180  0.66112  1.0000
  C   C199      1.0  0.33606  0.81180  0.83888  1.0000
  C   C200      1.0  0.66394  0.81180  0.66112  1.0000
  H   H121      1.0  0.15830  0.62260  0.13320  1.0000
  H   H122      1.0  0.84170  0.62260  0.36680  1.0000
  H   H123      1.0  0.65830  0.12260  0.13320  1.0000
  H   H124      1.0  0.34170  0.12260  0.36680  1.0000
  H   H125      1.0  0.84170  0.37740  0.86680  1.0000
  H   H126      1.0  0.15830  0.37740  0.63320  1.0000
  H   H127      1.0  0.34170  0.87740  0.86680  1.0000
  H   H128      1.0  0.65830  0.87740  0.63320  1.0000
  C   C201      1.0  0.14335  0.82850  0.14844  1.0000
  C   C202      1.0  0.85665  0.82850  0.35156  1.0000
  C   C203      1.0  0.64335  0.32850  0.14844  1.0000
  C   C204      1.0  0.35665  0.32850  0.35156  1.0000
  C   C205      1.0  0.85665  0.17150  0.85156  1.0000
  C   C206      1.0  0.14335  0.17150  0.64844  1.0000
  C   C207      1.0  0.35665  0.67150  0.85156  1.0000
  C   C208      1.0  0.64335  0.67150  0.64844  1.0000
  H   H129      1.0  0.12380  0.85580  0.11160  1.0000
  H   H130      1.0  0.87620  0.85580  0.38840  1.0000
  H   H131      1.0  0.62380  0.35580  0.11160  1.0000
  H   H132      1.0  0.37620  0.35580  0.38840  1.0000
  H   H133      1.0  0.87620  0.14420  0.88840  1.0000
  H   H134      1.0  0.12380  0.14420  0.61160  1.0000
  H   H135      1.0  0.37620  0.64420  0.88840  1.0000
  H   H136      1.0  0.62380  0.64420  0.61160  1.0000
  O   O1        1.0  0.09562  0.41570  0.22118  1.0000
  O   O2        1.0  0.90438  0.41570  0.27882  1.0000
  O   O3        1.0  0.59562  0.91570  0.22118  1.0000
  O   O4        1.0  0.40438  0.91570  0.27882  1.0000
  O   O5        1.0  0.90438  0.58430  0.77882  1.0000
  O   O6        1.0  0.09562  0.58430  0.72118  1.0000
  O   O7        1.0  0.40438  0.08430  0.77882  1.0000
  O   O8        1.0  0.59562  0.08430  0.72118  1.0000
  O   O9        1.0  0.14827  0.21470  0.23944  1.0000
  O   O10       1.0  0.85173  0.21470  0.26056  1.0000
  O   O11       1.0  0.64827  0.71470  0.23944  1.0000
  O   O12       1.0  0.35173  0.71470  0.26056  1.0000
  O   O13       1.0  0.85173  0.78530  0.76056  1.0000
  O   O14       1.0  0.14827  0.78530  0.73944  1.0000
  O   O15       1.0  0.35173  0.28530  0.76056  1.0000
  O   O16       1.0  0.64827  0.28530  0.73944  1.0000
  O   O17       1.0  0.53176  0.50490  0.57113  1.0000
  O   O18       1.0  0.46824  0.50490  0.92887  1.0000
  O   O19       1.0  0.03176  0.00490  0.57113  1.0000
  O   O20       1.0  0.96824  0.00490  0.92887  1.0000
  O   O21       1.0  0.46824  0.49510  0.42887  1.0000
  O   O22       1.0  0.53176  0.49510  0.07113  1.0000
  O   O23       1.0  0.96824  0.99510  0.42887  1.0000
  O   O24       1.0  0.03176  0.99510  0.07113  1.0000
  O   O25       1.0  0.52930  0.37800  0.63824  1.0000
  O   O26       1.0  0.47070  0.37800  0.86176  1.0000
  O   O27       1.0  0.02930  0.87800  0.63824  1.0000
  O   O28       1.0  0.97070  0.87800  0.86176  1.0000
  O   O29       1.0  0.47070  0.62200  0.36176  1.0000
  O   O30       1.0  0.52930  0.62200  0.13824  1.0000
  O   O31       1.0  0.97070  0.12200  0.36176  1.0000
  O   O32       1.0  0.02930  0.12200  0.13824  1.0000
  O   O33       1.0  0.15705  0.78870  0.62848  1.0000
  O   O34       1.0  0.84295  0.78870  0.87152  1.0000
  O   O35       1.0  0.65705  0.28870  0.62848  1.0000
  O   O36       1.0  0.34295  0.28870  0.87152  1.0000
  O   O37       1.0  0.84295  0.21130  0.37152  1.0000
  O   O38       1.0  0.15705  0.21130  0.12848  1.0000
  O   O39       1.0  0.34295  0.71130  0.37152  1.0000
  O   O40       1.0  0.65705  0.71130  0.12848  1.0000
  O   O41       1.0  0.08533  0.63290  0.58398  1.0000
  O   O42       1.0  0.91467  0.63290  0.91602  1.0000
  O   O43       1.0  0.58533  0.13290  0.58398  1.0000
  O   O44       1.0  0.41467  0.13290  0.91602  1.0000
  O   O45       1.0  0.91467  0.36710  0.41602  1.0000
  O   O46       1.0  0.08533  0.36710  0.08398  1.0000
  O   O47       1.0  0.41467  0.86710  0.41602  1.0000
  O   O48       1.0  0.58533  0.86710  0.08398  1.0000
