data_image0
_chemical_formula_structural       W4Cu12S16N20C12H4C4H4C8H4C4H4C4
_chemical_formula_sum              "W4 Cu12 S16 N20 C32 H16"
_cell_length_a       9.2823
_cell_length_b       14.575
_cell_length_c       19.371
_cell_angle_alpha    90
_cell_angle_beta     98.05
_cell_angle_gamma    90

_space_group_name_H-M_alt    "P 1"
_space_group_IT_number       1

loop_
  _space_group_symop_operation_xyz
  'x, y, z'

loop_
  _atom_site_type_symbol
  _atom_site_label
  _atom_site_symmetry_multiplicity
  _atom_site_fract_x
  _atom_site_fract_y
  _atom_site_fract_z
  _atom_site_occupancy
  W   W1        1.0  0.22714  0.31095  0.34990  1.0000
  W   W2        1.0  0.77286  0.81095  0.15010  1.0000
  W   W3        1.0  0.77286  0.68905  0.65010  1.0000
  W   W4        1.0  0.22714  0.18905  0.84990  1.0000
  Cu  Cu1       1.0  0.11694  0.14224  0.31144  1.0000
  Cu  Cu2       1.0  0.88306  0.64224  0.18856  1.0000
  Cu  Cu3       1.0  0.88306  0.85776  0.68856  1.0000
  Cu  Cu4       1.0  0.11694  0.35776  0.81144  1.0000
  Cu  Cu5       1.0  0.20178  0.36407  0.21391  1.0000
  Cu  Cu6       1.0  0.79822  0.86407  0.28609  1.0000
  Cu  Cu7       1.0  0.79822  0.63593  0.78609  1.0000
  Cu  Cu8       1.0  0.20178  0.13593  0.71391  1.0000
  Cu  Cu9       1.0  0.24557  0.26692  0.48306  1.0000
  Cu  Cu10      1.0  0.75443  0.76692  0.01694  1.0000
  Cu  Cu11      1.0  0.75443  0.73308  0.51694  1.0000
  Cu  Cu12      1.0  0.24557  0.23308  0.98306  1.0000
  S   S1        1.0  0.03373  0.28398  0.27103  1.0000
  S   S2        1.0  0.96627  0.78398  0.22897  1.0000
  S   S3        1.0  0.96627  0.71602  0.72897  1.0000
  S   S4        1.0  0.03373  0.21602  0.77103  1.0000
  S   S5        1.0  0.30570  0.17558  0.39802  1.0000
  S   S6        1.0  0.69430  0.67558  0.10198  1.0000
  S   S7        1.0  0.69430  0.82442  0.60198  1.0000
  S   S8        1.0  0.30570  0.32442  0.89802  1.0000
  S   S9        1.0  0.39869  0.37476  0.30001  1.0000
  S   S10       1.0  0.60131  0.87476  0.19999  1.0000
  S   S11       1.0  0.60131  0.62524  0.69999  1.0000
  S   S12       1.0  0.39869  0.12524  0.80001  1.0000
  S   S13       1.0  0.16465  0.39880  0.43416  1.0000
  S   S14       1.0  0.83535  0.89880  0.06584  1.0000
  S   S15       1.0  0.83535  0.60120  0.56584  1.0000
  S   S16       1.0  0.16465  0.10120  0.93416  1.0000
  N   N1        1.0  0.24120  0.08810  0.23260  1.0000
  N   N2        1.0  0.75880  0.58810  0.26740  1.0000
  N   N3        1.0  0.75880  0.91190  0.76740  1.0000
  N   N4        1.0  0.24120  0.41190  0.73260  1.0000
  N   N5        1.0  0.25000  0.30390  0.12980  1.0000
  N   N6        1.0  0.75000  0.80390  0.37020  1.0000
  N   N7        1.0  0.75000  0.69610  0.87020  1.0000
  N   N8        1.0  0.25000  0.19610  0.62980  1.0000
  N   N9        1.0  0.90340  0.98320  0.31290  1.0000
  N   N10       1.0  0.09660  0.48320  0.18710  1.0000
  N   N11       1.0  0.09660  0.01680  0.68710  1.0000
  N   N12       1.0  0.90340  0.51680  0.81290  1.0000
  N   N13       1.0  0.39780  0.94220  0.01950  1.0000
  N   N14       1.0  0.60220  0.44220  0.48050  1.0000
  N   N15       1.0  0.60220  0.05780  0.98050  1.0000
  N   N16       1.0  0.39780  0.55780  0.51950  1.0000
  N   N17       1.0  0.54130  0.07760  0.03720  1.0000
  N   N18       1.0  0.45870  0.57760  0.46280  1.0000
  N   N19       1.0  0.45870  0.92240  0.96280  1.0000
  N   N20       1.0  0.54130  0.42240  0.53720  1.0000
  C   C1        1.0  0.97860  0.04530  0.31810  1.0000
  C   C2        1.0  0.02140  0.54530  0.18190  1.0000
  C   C3        1.0  0.02140  0.95470  0.68190  1.0000
  C   C4        1.0  0.97860  0.45470  0.81810  1.0000
  C   C5        1.0  0.25610  0.27320  0.07580  1.0000
  C   C6        1.0  0.74390  0.77320  0.42420  1.0000
  C   C7        1.0  0.74390  0.72680  0.92420  1.0000
  C   C8        1.0  0.25610  0.22680  0.57580  1.0000
  C   C9        1.0  0.17600  0.03340  0.18260  1.0000
  C   C10       1.0  0.82400  0.53340  0.31740  1.0000
  C   C11       1.0  0.82400  0.96660  0.81740  1.0000
  C   C12       1.0  0.17600  0.46660  0.68260  1.0000
  H   H1        1.0  0.08450  0.01060  0.18760  1.0000
  H   H2        1.0  0.91550  0.51060  0.31240  1.0000
  H   H3        1.0  0.91550  0.98940  0.81240  1.0000
  H   H4        1.0  0.08450  0.48940  0.68760  1.0000
  C   C13       1.0  0.23520  0.00830  0.12410  1.0000
  C   C14       1.0  0.76480  0.50830  0.37590  1.0000
  C   C15       1.0  0.76480  0.99170  0.87590  1.0000
  C   C16       1.0  0.23520  0.49170  0.62410  1.0000
  H   H5        1.0  0.18480  0.97070  0.09020  1.0000
  H   H6        1.0  0.81520  0.47070  0.40980  1.0000
  H   H7        1.0  0.81520  0.02930  0.90980  1.0000
  H   H8        1.0  0.18480  0.52930  0.59020  1.0000
  C   C17       1.0  0.37230  0.04100  0.11770  1.0000
  C   C18       1.0  0.62770  0.54100  0.38230  1.0000
  C   C19       1.0  0.62770  0.95900  0.88230  1.0000
  C   C20       1.0  0.37230  0.45900  0.61770  1.0000
  C   C21       1.0  0.44260  0.09620  0.16920  1.0000
  C   C22       1.0  0.55740  0.59620  0.33080  1.0000
  C   C23       1.0  0.55740  0.90380  0.83080  1.0000
  C   C24       1.0  0.44260  0.40380  0.66920  1.0000
  H   H9        1.0  0.53580  0.11800  0.16650  1.0000
  H   H10       1.0  0.46420  0.61800  0.33350  1.0000
  H   H11       1.0  0.46420  0.88200  0.83350  1.0000
  H   H12       1.0  0.53580  0.38200  0.66650  1.0000
  C   C25       1.0  0.37260  0.11830  0.22460  1.0000
  C   C26       1.0  0.62740  0.61830  0.27540  1.0000
  C   C27       1.0  0.62740  0.88170  0.77540  1.0000
  C   C28       1.0  0.37260  0.38170  0.72460  1.0000
  H   H13       1.0  0.42000  0.15680  0.25880  1.0000
  H   H14       1.0  0.58000  0.65680  0.24120  1.0000
  H   H15       1.0  0.58000  0.84320  0.74120  1.0000
  H   H16       1.0  0.42000  0.34320  0.75880  1.0000
  C   C29       1.0  0.44220  0.01950  0.05450  1.0000
  C   C30       1.0  0.55780  0.51950  0.44550  1.0000
  C   C31       1.0  0.55780  0.98050  0.94550  1.0000
  C   C32       1.0  0.44220  0.48050  0.55450  1.0000
