data_image0
_chemical_formula_structural       Zn4O16C4H2C2O2C4H2C6H2C2H2C2H2C6H2C4O4H2O6C6O2H12
_chemical_formula_sum              "Zn4 O30 C36 H26"
_cell_length_a       7.8334
_cell_length_b       17.2763
_cell_length_c       9.445
_cell_angle_alpha    90
_cell_angle_beta     100.475
_cell_angle_gamma    90

_space_group_name_H-M_alt    "P 1"
_space_group_IT_number       1

loop_
  _space_group_symop_operation_xyz
  'x, y, z'

loop_
  _atom_site_type_symbol
  _atom_site_label
  _atom_site_symmetry_multiplicity
  _atom_site_fract_x
  _atom_site_fract_y
  _atom_site_fract_z
  _atom_site_occupancy
  Zn  Zn1       1.0  0.38862  0.32616  0.26230  1.0000
  Zn  Zn2       1.0  0.61138  0.82616  0.73770  1.0000
  Zn  Zn3       1.0  0.76805  0.25055  0.48981  1.0000
  Zn  Zn4       1.0  0.23195  0.75055  0.51019  1.0000
  O   O1        1.0  0.94440  0.32906  0.57680  1.0000
  O   O2        1.0  0.05560  0.82906  0.42320  1.0000
  O   O3        1.0  0.67360  0.32046  0.28660  1.0000
  O   O4        1.0  0.32640  0.82046  0.71340  1.0000
  O   O5        1.0  0.12380  0.32494  0.28200  1.0000
  O   O6        1.0  0.87620  0.82494  0.71800  1.0000
  O   O7        1.0  0.58710  0.16761  0.42430  1.0000
  O   O8        1.0  0.41290  0.66761  0.57570  1.0000
  O   O9        1.0  0.82010  0.18384  0.67800  1.0000
  O   O10       1.0  0.17990  0.68384  0.32200  1.0000
  O   O11       1.0  0.56930  0.89620  0.56620  1.0000
  O   O12       1.0  0.43070  0.39620  0.43380  1.0000
  O   O13       1.0  0.19790  0.70454  0.85390  1.0000
  O   O14       1.0  0.80210  0.20454  0.14610  1.0000
  O   O15       1.0  0.41700  0.81118  0.41520  1.0000
  O   O16       1.0  0.58300  0.31118  0.58480  1.0000
  C   C1        1.0  0.42710  0.94101  0.33680  1.0000
  C   C2        1.0  0.57290  0.44101  0.66320  1.0000
  C   C3        1.0  0.32170  0.92468  0.20520  1.0000
  C   C4        1.0  0.67830  0.42468  0.79480  1.0000
  H   H1        1.0  0.29110  0.87270  0.17970  1.0000
  H   H2        1.0  0.70890  0.37270  0.82030  1.0000
  C   C5        1.0  0.13020  0.66422  0.74640  1.0000
  C   C6        1.0  0.86980  0.16422  0.25360  1.0000
  O   O17       1.0  0.38370  0.21211  0.24450  1.0000
  O   O18       1.0  0.61630  0.71211  0.75550  1.0000
  C   C7        1.0  0.41480  0.07704  0.27860  1.0000
  C   C8        1.0  0.58520  0.57704  0.72140  1.0000
  C   C9        1.0  0.30440  0.06156  0.14870  1.0000
  C   C10       1.0  0.69560  0.56156  0.85130  1.0000
  H   H3        1.0  0.25880  0.10270  0.08630  1.0000
  H   H4        1.0  0.74120  0.60270  0.91370  1.0000
  C   C11       1.0  0.05110  0.45076  0.66430  1.0000
  C   C12       1.0  0.94890  0.95076  0.33570  1.0000
  C   C13       1.0  0.22610  0.46294  0.90170  1.0000
  C   C14       1.0  0.77390  0.96294  0.09830  1.0000
  C   C15       1.0  0.04620  0.53127  0.65110  1.0000
  C   C16       1.0  0.95380  0.03127  0.34890  1.0000
  H   H5        1.0  0.98420  0.55450  0.56590  1.0000
  H   H6        1.0  0.01580  0.05450  0.43410  1.0000
  C   C17       1.0  0.14210  0.41697  0.79010  1.0000
  C   C18       1.0  0.85790  0.91697  0.20990  1.0000
  H   H7        1.0  0.14650  0.36220  0.79920  1.0000
  H   H8        1.0  0.85350  0.86220  0.20080  1.0000
  C   C19       1.0  0.21980  0.54327  0.88710  1.0000
  C   C20       1.0  0.78020  0.04327  0.11290  1.0000
  H   H9        1.0  0.27670  0.57480  0.96370  1.0000
  H   H10       1.0  0.72330  0.07480  0.03630  1.0000
  C   C21       1.0  0.31050  0.42710  0.04190  1.0000
  C   C22       1.0  0.68950  0.92710  0.95810  1.0000
  C   C23       1.0  0.26130  0.98453  0.11100  1.0000
  C   C24       1.0  0.73870  0.48453  0.88900  1.0000
  C   C25       1.0  0.47680  0.01729  0.37170  1.0000
  C   C26       1.0  0.52320  0.51729  0.62830  1.0000
  H   H11       1.0  0.55330  0.02820  0.45950  1.0000
  H   H12       1.0  0.44670  0.52820  0.54050  1.0000
  C   C27       1.0  0.13180  0.57778  0.76230  1.0000
  C   C28       1.0  0.86820  0.07778  0.23770  1.0000
  C   C29       1.0  0.46610  0.15894  0.31900  1.0000
  C   C30       1.0  0.53390  0.65894  0.68100  1.0000
  O   O19       1.0  0.87900  0.43129  0.43190  1.0000
  O   O20       1.0  0.12100  0.93129  0.56810  1.0000
  O   O21       1.0  0.07590  0.03015  0.90710  1.0000
  O   O22       1.0  0.92410  0.53015  0.09290  1.0000
  H   H13       1.0  0.01000  0.01790  0.82990  1.0000
  H   H14       1.0  0.99000  0.51790  0.17010  1.0000
  O   O23       1.0  0.10870  0.90208  0.92870  1.0000
  O   O24       1.0  0.89130  0.40208  0.07130  1.0000
  O   O25       1.0  0.31790  0.35455  0.05220  1.0000
  O   O26       1.0  0.68210  0.85455  0.94780  1.0000
  O   O27       1.0  0.36480  0.47037  0.14560  1.0000
  O   O28       1.0  0.63520  0.97037  0.85440  1.0000
  C   C31       1.0  0.95030  0.40054  0.54870  1.0000
  C   C32       1.0  0.04970  0.90054  0.45130  1.0000
  C   C33       1.0  0.14280  0.96757  0.97280  1.0000
  C   C34       1.0  0.85720  0.46757  0.02720  1.0000
  C   C35       1.0  0.47560  0.87785  0.44690  1.0000
  C   C36       1.0  0.52440  0.37785  0.55310  1.0000
  O   O29       1.0  0.06290  0.69352  0.62490  1.0000
  O   O30       1.0  0.93710  0.19352  0.37510  1.0000
  H   H15       1.0  0.07300  0.28690  0.32400  1.0000
  H   H16       1.0  0.92700  0.78690  0.67600  1.0000
  H   H17       1.0  0.03900  0.35150  0.22600  1.0000
  H   H18       1.0  0.96100  0.85150  0.77400  1.0000
  H   H19       1.0  0.83500  0.13280  0.66800  1.0000
  H   H20       1.0  0.16500  0.63280  0.33200  1.0000
  H   H21       1.0  0.87700  0.19900  0.76500  1.0000
  H   H22       1.0  0.12300  0.69900  0.23500  1.0000
  H   H23       1.0  0.74650  0.36600  0.32620  1.0000
  H   H24       1.0  0.25350  0.86600  0.67380  1.0000
  H   H25       1.0  0.73100  0.29820  0.22510  1.0000
  H   H26       1.0  0.26900  0.79820  0.77490  1.0000
