data_image0
_chemical_formula_structural       Zn12S16N16C16H8C16H8C8H8C8H8C8H8C8H8C8H8C8H8O64N8C8H8C8H8C8H8C8H8C8
_chemical_formula_sum              "Zn12 S16 N24 C120 H96 O64"
_cell_length_a       11.3703
_cell_length_b       24.2898
_cell_length_c       20.7266
_cell_angle_alpha    90
_cell_angle_beta     98.9261
_cell_angle_gamma    90

_space_group_name_H-M_alt    "P 1"
_space_group_IT_number       1

loop_
  _space_group_symop_operation_xyz
  'x, y, z'

loop_
  _atom_site_type_symbol
  _atom_site_label
  _atom_site_symmetry_multiplicity
  _atom_site_fract_x
  _atom_site_fract_y
  _atom_site_fract_z
  _atom_site_occupancy
  Zn  Zn1       1.0  0.75000  0.25000  0.00000  1.0000
  Zn  Zn2       1.0  0.25000  0.25000  0.50000  1.0000
  Zn  Zn3       1.0  0.25000  0.75000  0.00000  1.0000
  Zn  Zn4       1.0  0.75000  0.75000  0.50000  1.0000
  Zn  Zn5       1.0  0.61436  0.03573  0.06146  1.0000
  Zn  Zn6       1.0  0.38564  0.03573  0.43854  1.0000
  Zn  Zn7       1.0  0.11436  0.53573  0.06146  1.0000
  Zn  Zn8       1.0  0.88564  0.53573  0.43854  1.0000
  Zn  Zn9       1.0  0.38564  0.96427  0.93854  1.0000
  Zn  Zn10      1.0  0.61436  0.96427  0.56146  1.0000
  Zn  Zn11      1.0  0.88564  0.46427  0.93854  1.0000
  Zn  Zn12      1.0  0.11436  0.46427  0.56146  1.0000
  S   S1        1.0  0.33982  0.03921  0.04547  1.0000
  S   S2        1.0  0.66018  0.03921  0.45453  1.0000
  S   S3        1.0  0.83982  0.53921  0.04547  1.0000
  S   S4        1.0  0.16018  0.53921  0.45453  1.0000
  S   S5        1.0  0.66018  0.96079  0.95453  1.0000
  S   S6        1.0  0.33982  0.96079  0.54547  1.0000
  S   S7        1.0  0.16018  0.46079  0.95453  1.0000
  S   S8        1.0  0.83982  0.46079  0.54547  1.0000
  S   S9        1.0  0.79015  0.13209  0.10375  1.0000
  S   S10       1.0  0.20985  0.13209  0.39625  1.0000
  S   S11       1.0  0.29015  0.63209  0.10375  1.0000
  S   S12       1.0  0.70985  0.63209  0.39625  1.0000
  S   S13       1.0  0.20985  0.86791  0.89625  1.0000
  S   S14       1.0  0.79015  0.86791  0.60375  1.0000
  S   S15       1.0  0.70985  0.36791  0.89625  1.0000
  S   S16       1.0  0.29015  0.36791  0.60375  1.0000
  N   N1        1.0  0.71940  0.80653  0.41385  1.0000
  N   N2        1.0  0.28060  0.80653  0.08615  1.0000
  N   N3        1.0  0.21940  0.30653  0.41385  1.0000
  N   N4        1.0  0.78060  0.30653  0.08615  1.0000
  N   N5        1.0  0.28060  0.19347  0.58615  1.0000
  N   N6        1.0  0.71940  0.19347  0.91385  1.0000
  N   N7        1.0  0.78060  0.69347  0.58615  1.0000
  N   N8        1.0  0.21940  0.69347  0.91385  1.0000
  N   N9        1.0  0.63560  0.98138  0.13645  1.0000
  N   N10       1.0  0.36440  0.98138  0.36355  1.0000
  N   N11       1.0  0.13560  0.48138  0.13645  1.0000
  N   N12       1.0  0.86440  0.48138  0.36355  1.0000
  N   N13       1.0  0.36440  0.01862  0.86355  1.0000
  N   N14       1.0  0.63560  0.01862  0.63645  1.0000
  N   N15       1.0  0.86440  0.51862  0.86355  1.0000
  N   N16       1.0  0.13560  0.51862  0.63645  1.0000
  C   C1        1.0  0.66520  0.91196  0.24530  1.0000
  C   C2        1.0  0.33480  0.91196  0.25470  1.0000
  C   C3        1.0  0.16520  0.41196  0.24530  1.0000
  C   C4        1.0  0.83480  0.41196  0.25470  1.0000
  C   C5        1.0  0.33480  0.08804  0.75470  1.0000
  C   C6        1.0  0.66520  0.08804  0.74530  1.0000
  C   C7        1.0  0.83480  0.58804  0.75470  1.0000
  C   C8        1.0  0.16520  0.58804  0.74530  1.0000
  C   C9        1.0  0.69550  0.89640  0.36570  1.0000
  C   C10       1.0  0.30450  0.89640  0.13430  1.0000
  C   C11       1.0  0.19550  0.39640  0.36570  1.0000
  C   C12       1.0  0.80450  0.39640  0.13430  1.0000
  C   C13       1.0  0.30450  0.10360  0.63430  1.0000
  C   C14       1.0  0.69550  0.10360  0.86570  1.0000
  C   C15       1.0  0.80450  0.60360  0.63430  1.0000
  C   C16       1.0  0.19550  0.60360  0.86570  1.0000
  H   H1        1.0  0.69200  0.93420  0.37220  1.0000
  H   H2        1.0  0.30800  0.93420  0.12780  1.0000
  H   H3        1.0  0.19200  0.43420  0.37220  1.0000
  H   H4        1.0  0.80800  0.43420  0.12780  1.0000
  H   H5        1.0  0.30800  0.06580  0.62780  1.0000
  H   H6        1.0  0.69200  0.06580  0.87220  1.0000
  H   H7        1.0  0.80800  0.56580  0.62780  1.0000
  H   H8        1.0  0.19200  0.56580  0.87220  1.0000
  C   C17       1.0  0.68320  0.87540  0.30370  1.0000
  C   C18       1.0  0.31680  0.87540  0.19630  1.0000
  C   C19       1.0  0.18320  0.37540  0.30370  1.0000
  C   C20       1.0  0.81680  0.37540  0.19630  1.0000
  C   C21       1.0  0.31680  0.12460  0.69630  1.0000
  C   C22       1.0  0.68320  0.12460  0.80370  1.0000
  C   C23       1.0  0.81680  0.62460  0.69630  1.0000
  C   C24       1.0  0.18320  0.62460  0.80370  1.0000
  C   C25       1.0  0.64250  0.89190  0.18290  1.0000
  C   C26       1.0  0.35750  0.89190  0.31710  1.0000
  C   C27       1.0  0.14250  0.39190  0.18290  1.0000
  C   C28       1.0  0.85750  0.39190  0.31710  1.0000
  C   C29       1.0  0.35750  0.10810  0.81710  1.0000
  C   C30       1.0  0.64250  0.10810  0.68290  1.0000
  C   C31       1.0  0.85750  0.60810  0.81710  1.0000
  C   C32       1.0  0.14250  0.60810  0.68290  1.0000
  H   H9        1.0  0.63590  0.85410  0.17600  1.0000
  H   H10       1.0  0.36410  0.85410  0.32400  1.0000
  H   H11       1.0  0.13590  0.35410  0.17600  1.0000
  H   H12       1.0  0.86410  0.35410  0.32400  1.0000
  H   H13       1.0  0.36410  0.14590  0.82400  1.0000
  H   H14       1.0  0.63590  0.14590  0.67600  1.0000
  H   H15       1.0  0.86410  0.64590  0.82400  1.0000
  H   H16       1.0  0.13590  0.64590  0.67600  1.0000
  C   C33       1.0  0.66980  0.96850  0.25110  1.0000
  C   C34       1.0  0.33020  0.96850  0.24890  1.0000
  C   C35       1.0  0.16980  0.46850  0.25110  1.0000
  C   C36       1.0  0.83020  0.46850  0.24890  1.0000
  C   C37       1.0  0.33020  0.03150  0.74890  1.0000
  C   C38       1.0  0.66980  0.03150  0.75110  1.0000
  C   C39       1.0  0.83020  0.53150  0.74890  1.0000
  C   C40       1.0  0.16980  0.53150  0.75110  1.0000
  H   H17       1.0  0.68410  0.98470  0.29220  1.0000
  H   H18       1.0  0.31590  0.98470  0.20780  1.0000
  H   H19       1.0  0.18410  0.48470  0.29220  1.0000
  H   H20       1.0  0.81590  0.48470  0.20780  1.0000
  H   H21       1.0  0.31590  0.01530  0.70780  1.0000
  H   H22       1.0  0.68410  0.01530  0.79220  1.0000
  H   H23       1.0  0.81590  0.51530  0.70780  1.0000
  H   H24       1.0  0.18410  0.51530  0.79220  1.0000
  C   C41       1.0  0.62940  0.92730  0.13010  1.0000
  C   C42       1.0  0.37060  0.92730  0.36990  1.0000
  C   C43       1.0  0.12940  0.42730  0.13010  1.0000
  C   C44       1.0  0.87060  0.42730  0.36990  1.0000
  C   C45       1.0  0.37060  0.07270  0.86990  1.0000
  C   C46       1.0  0.62940  0.07270  0.63010  1.0000
  C   C47       1.0  0.87060  0.57270  0.86990  1.0000
  C   C48       1.0  0.12940  0.57270  0.63010  1.0000
  H   H25       1.0  0.61550  0.91250  0.08820  1.0000
  H   H26       1.0  0.38450  0.91250  0.41180  1.0000
  H   H27       1.0  0.11550  0.41250  0.08820  1.0000
  H   H28       1.0  0.88450  0.41250  0.41180  1.0000
  H   H29       1.0  0.38450  0.08750  0.91180  1.0000
  H   H30       1.0  0.61550  0.08750  0.58820  1.0000
  H   H31       1.0  0.88450  0.58750  0.91180  1.0000
  H   H32       1.0  0.11550  0.58750  0.58820  1.0000
  C   C49       1.0  0.70860  0.78660  0.35360  1.0000
  C   C50       1.0  0.29140  0.78660  0.14640  1.0000
  C   C51       1.0  0.20860  0.28660  0.35360  1.0000
  C   C52       1.0  0.79140  0.28660  0.14640  1.0000
  C   C53       1.0  0.29140  0.21340  0.64640  1.0000
  C   C54       1.0  0.70860  0.21340  0.85360  1.0000
  C   C55       1.0  0.79140  0.71340  0.64640  1.0000
  C   C56       1.0  0.20860  0.71340  0.85360  1.0000
  H   H33       1.0  0.71270  0.74860  0.34830  1.0000
  H   H34       1.0  0.28730  0.74860  0.15170  1.0000
  H   H35       1.0  0.21270  0.24860  0.34830  1.0000
  H   H36       1.0  0.78730  0.24860  0.15170  1.0000
  H   H37       1.0  0.28730  0.25140  0.65170  1.0000
  H   H38       1.0  0.71270  0.25140  0.84830  1.0000
  H   H39       1.0  0.78730  0.75140  0.65170  1.0000
  H   H40       1.0  0.21270  0.75140  0.84830  1.0000
  C   C57       1.0  0.65310  0.00080  0.19590  1.0000
  C   C58       1.0  0.34690  0.00080  0.30410  1.0000
  C   C59       1.0  0.15310  0.50080  0.19590  1.0000
  C   C60       1.0  0.84690  0.50080  0.30410  1.0000
  C   C61       1.0  0.34690  0.99920  0.80410  1.0000
  C   C62       1.0  0.65310  0.99920  0.69590  1.0000
  C   C63       1.0  0.84690  0.49920  0.80410  1.0000
  C   C64       1.0  0.15310  0.49920  0.69590  1.0000
  H   H41       1.0  0.65450  0.03880  0.20130  1.0000
  H   H42       1.0  0.34550  0.03880  0.29870  1.0000
  H   H43       1.0  0.15450  0.53880  0.20130  1.0000
  H   H44       1.0  0.84550  0.53880  0.29870  1.0000
  H   H45       1.0  0.34550  0.96120  0.79870  1.0000
  H   H46       1.0  0.65450  0.96120  0.70130  1.0000
  H   H47       1.0  0.84550  0.46120  0.79870  1.0000
  H   H48       1.0  0.15450  0.46120  0.70130  1.0000
  C   C65       1.0  0.71310  0.86090  0.41860  1.0000
  C   C66       1.0  0.28690  0.86090  0.08140  1.0000
  C   C67       1.0  0.21310  0.36090  0.41860  1.0000
  C   C68       1.0  0.78690  0.36090  0.08140  1.0000
  C   C69       1.0  0.28690  0.13910  0.58140  1.0000
  C   C70       1.0  0.71310  0.13910  0.91860  1.0000
  C   C71       1.0  0.78690  0.63910  0.58140  1.0000
  C   C72       1.0  0.21310  0.63910  0.91860  1.0000
  H   H49       1.0  0.72100  0.87620  0.46020  1.0000
  H   H50       1.0  0.27900  0.87620  0.03980  1.0000
  H   H51       1.0  0.22100  0.37620  0.46020  1.0000
  H   H52       1.0  0.77900  0.37620  0.03980  1.0000
  H   H53       1.0  0.27900  0.12380  0.53980  1.0000
  H   H54       1.0  0.72100  0.12380  0.96020  1.0000
  H   H55       1.0  0.77900  0.62380  0.53980  1.0000
  H   H56       1.0  0.22100  0.62380  0.96020  1.0000
  C   C73       1.0  0.69170  0.81920  0.29840  1.0000
  C   C74       1.0  0.30830  0.81920  0.20160  1.0000
  C   C75       1.0  0.19170  0.31920  0.29840  1.0000
  C   C76       1.0  0.80830  0.31920  0.20160  1.0000
  C   C77       1.0  0.30830  0.18080  0.70160  1.0000
  C   C78       1.0  0.69170  0.18080  0.79840  1.0000
  C   C79       1.0  0.80830  0.68080  0.70160  1.0000
  C   C80       1.0  0.19170  0.68080  0.79840  1.0000
  H   H57       1.0  0.68600  0.80300  0.25740  1.0000
  H   H58       1.0  0.31400  0.80300  0.24260  1.0000
  H   H59       1.0  0.18600  0.30300  0.25740  1.0000
  H   H60       1.0  0.81400  0.30300  0.24260  1.0000
  H   H61       1.0  0.31400  0.19700  0.74260  1.0000
  H   H62       1.0  0.68600  0.19700  0.75740  1.0000
  H   H63       1.0  0.81400  0.69700  0.74260  1.0000
  H   H64       1.0  0.18600  0.69700  0.75740  1.0000
  O   O1        1.0  0.45340  0.05796  0.02408  1.0000
  O   O2        1.0  0.54660  0.05796  0.47592  1.0000
  O   O3        1.0  0.95340  0.55796  0.02408  1.0000
  O   O4        1.0  0.04660  0.55796  0.47592  1.0000
  O   O5        1.0  0.54660  0.94204  0.97592  1.0000
  O   O6        1.0  0.45340  0.94204  0.52408  1.0000
  O   O7        1.0  0.04660  0.44204  0.97592  1.0000
  O   O8        1.0  0.95340  0.44204  0.52408  1.0000
  O   O9        1.0  0.24750  0.07850  0.02200  1.0000
  O   O10       1.0  0.75250  0.07850  0.47800  1.0000
  O   O11       1.0  0.74750  0.57850  0.02200  1.0000
  O   O12       1.0  0.25250  0.57850  0.47800  1.0000
  O   O13       1.0  0.75250  0.92150  0.97800  1.0000
  O   O14       1.0  0.24750  0.92150  0.52200  1.0000
  O   O15       1.0  0.25250  0.42150  0.97800  1.0000
  O   O16       1.0  0.74750  0.42150  0.52200  1.0000
  O   O17       1.0  0.30900  0.98501  0.01250  1.0000
  O   O18       1.0  0.69100  0.98501  0.48750  1.0000
  O   O19       1.0  0.80900  0.48501  0.01250  1.0000
  O   O20       1.0  0.19100  0.48501  0.48750  1.0000
  O   O21       1.0  0.69100  0.01499  0.98750  1.0000
  O   O22       1.0  0.30900  0.01499  0.51250  1.0000
  O   O23       1.0  0.19100  0.51499  0.98750  1.0000
  O   O24       1.0  0.80900  0.51499  0.51250  1.0000
  O   O25       1.0  0.35700  0.03114  0.11500  1.0000
  O   O26       1.0  0.64300  0.03114  0.38500  1.0000
  O   O27       1.0  0.85700  0.53114  0.11500  1.0000
  O   O28       1.0  0.14300  0.53114  0.38500  1.0000
  O   O29       1.0  0.64300  0.96886  0.88500  1.0000
  O   O30       1.0  0.35700  0.96886  0.61500  1.0000
  O   O31       1.0  0.14300  0.46886  0.88500  1.0000
  O   O32       1.0  0.85700  0.46886  0.61500  1.0000
  O   O33       1.0  0.77240  0.18114  0.06293  1.0000
  O   O34       1.0  0.22760  0.18114  0.43707  1.0000
  O   O35       1.0  0.27240  0.68114  0.06293  1.0000
  O   O36       1.0  0.72760  0.68114  0.43707  1.0000
  O   O37       1.0  0.22760  0.81886  0.93707  1.0000
  O   O38       1.0  0.77240  0.81886  0.56293  1.0000
  O   O39       1.0  0.72760  0.31886  0.93707  1.0000
  O   O40       1.0  0.27240  0.31886  0.56293  1.0000
  O   O41       1.0  0.67220  0.10475  0.09950  1.0000
  O   O42       1.0  0.32780  0.10475  0.40050  1.0000
  O   O43       1.0  0.17220  0.60475  0.09950  1.0000
  O   O44       1.0  0.82780  0.60475  0.40050  1.0000
  O   O45       1.0  0.32780  0.89525  0.90050  1.0000
  O   O46       1.0  0.67220  0.89525  0.59950  1.0000
  O   O47       1.0  0.82780  0.39525  0.90050  1.0000
  O   O48       1.0  0.17220  0.39525  0.59950  1.0000
  O   O49       1.0  0.87490  0.09545  0.08010  1.0000
  O   O50       1.0  0.12510  0.09545  0.41990  1.0000
  O   O51       1.0  0.37490  0.59545  0.08010  1.0000
  O   O52       1.0  0.62510  0.59545  0.41990  1.0000
  O   O53       1.0  0.12510  0.90455  0.91990  1.0000
  O   O54       1.0  0.87490  0.90455  0.58010  1.0000
  O   O55       1.0  0.62510  0.40455  0.91990  1.0000
  O   O56       1.0  0.37490  0.40455  0.58010  1.0000
  O   O57       1.0  0.82830  0.14850  0.17106  1.0000
  O   O58       1.0  0.17170  0.14850  0.32894  1.0000
  O   O59       1.0  0.32830  0.64850  0.17106  1.0000
  O   O60       1.0  0.67170  0.64850  0.32894  1.0000
  O   O61       1.0  0.17170  0.85150  0.82894  1.0000
  O   O62       1.0  0.82830  0.85150  0.67106  1.0000
  O   O63       1.0  0.67170  0.35150  0.82894  1.0000
  O   O64       1.0  0.32830  0.35150  0.67106  1.0000
  N   N17       1.0  0.56300  0.25014  0.00373  1.0000
  N   N18       1.0  0.43700  0.25014  0.49627  1.0000
  N   N19       1.0  0.06300  0.75014  0.00373  1.0000
  N   N20       1.0  0.93700  0.75014  0.49627  1.0000
  N   N21       1.0  0.43700  0.74986  0.99627  1.0000
  N   N22       1.0  0.56300  0.74986  0.50373  1.0000
  N   N23       1.0  0.93700  0.24986  0.99627  1.0000
  N   N24       1.0  0.06300  0.24986  0.50373  1.0000
  C   C81       1.0  0.50040  0.29672  0.99870  1.0000
  C   C82       1.0  0.49960  0.29672  0.50130  1.0000
  C   C83       1.0  0.00040  0.79672  0.99870  1.0000
  C   C84       1.0  0.99960  0.79672  0.50130  1.0000
  C   C85       1.0  0.49960  0.70328  0.00130  1.0000
  C   C86       1.0  0.50040  0.70328  0.49870  1.0000
  C   C87       1.0  0.99960  0.20328  0.00130  1.0000
  C   C88       1.0  0.00040  0.20328  0.49870  1.0000
  H   H65       1.0  0.54080  0.32980  0.99620  1.0000
  H   H66       1.0  0.45920  0.32980  0.50380  1.0000
  H   H67       1.0  0.04080  0.82980  0.99620  1.0000
  H   H68       1.0  0.95920  0.82980  0.50380  1.0000
  H   H69       1.0  0.45920  0.67020  0.00380  1.0000
  H   H70       1.0  0.54080  0.67020  0.49620  1.0000
  H   H71       1.0  0.95920  0.17020  0.00380  1.0000
  H   H72       1.0  0.04080  0.17020  0.49620  1.0000
  C   C89       1.0  0.37840  0.29848  0.99690  1.0000
  C   C90       1.0  0.62160  0.29848  0.50310  1.0000
  C   C91       1.0  0.87840  0.79848  0.99690  1.0000
  C   C92       1.0  0.12160  0.79848  0.50310  1.0000
  C   C93       1.0  0.62160  0.70152  0.00310  1.0000
  C   C94       1.0  0.37840  0.70152  0.49690  1.0000
  C   C95       1.0  0.12160  0.20152  0.00310  1.0000
  C   C96       1.0  0.87840  0.20152  0.49690  1.0000
  H   H73       1.0  0.33870  0.33210  0.99320  1.0000
  H   H74       1.0  0.66130  0.33210  0.50680  1.0000
  H   H75       1.0  0.83870  0.83210  0.99320  1.0000
  H   H76       1.0  0.16130  0.83210  0.50680  1.0000
  H   H77       1.0  0.66130  0.66790  0.00680  1.0000
  H   H78       1.0  0.33870  0.66790  0.49320  1.0000
  H   H79       1.0  0.16130  0.16790  0.00680  1.0000
  H   H80       1.0  0.83870  0.16790  0.49320  1.0000
  C   C97       1.0  0.38100  0.20170  0.00600  1.0000
  C   C98       1.0  0.61900  0.20170  0.49400  1.0000
  C   C99       1.0  0.88100  0.70170  0.00600  1.0000
  C   C100      1.0  0.11900  0.70170  0.49400  1.0000
  C   C101      1.0  0.61900  0.79830  0.99400  1.0000
  C   C102      1.0  0.38100  0.79830  0.50600  1.0000
  C   C103      1.0  0.11900  0.29830  0.99400  1.0000
  C   C104      1.0  0.88100  0.29830  0.50600  1.0000
  H   H81       1.0  0.34290  0.16800  0.00800  1.0000
  H   H82       1.0  0.65710  0.16800  0.49200  1.0000
  H   H83       1.0  0.84290  0.66800  0.00800  1.0000
  H   H84       1.0  0.15710  0.66800  0.49200  1.0000
  H   H85       1.0  0.65710  0.83200  0.99200  1.0000
  H   H86       1.0  0.34290  0.83200  0.50800  1.0000
  H   H87       1.0  0.15710  0.33200  0.99200  1.0000
  H   H88       1.0  0.84290  0.33200  0.50800  1.0000
  C   C105      1.0  0.50270  0.20364  0.00810  1.0000
  C   C106      1.0  0.49730  0.20364  0.49190  1.0000
  C   C107      1.0  0.00270  0.70364  0.00810  1.0000
  C   C108      1.0  0.99730  0.70364  0.49190  1.0000
  C   C109      1.0  0.49730  0.79636  0.99190  1.0000
  C   C110      1.0  0.50270  0.79636  0.50810  1.0000
  C   C111      1.0  0.99730  0.29636  0.99190  1.0000
  C   C112      1.0  0.00270  0.29636  0.50810  1.0000
  H   H89       1.0  0.54500  0.17070  0.01280  1.0000
  H   H90       1.0  0.45500  0.17070  0.48720  1.0000
  H   H91       1.0  0.04500  0.67070  0.01280  1.0000
  H   H92       1.0  0.95500  0.67070  0.48720  1.0000
  H   H93       1.0  0.45500  0.82930  0.98720  1.0000
  H   H94       1.0  0.54500  0.82930  0.51280  1.0000
  H   H95       1.0  0.95500  0.32930  0.98720  1.0000
  H   H96       1.0  0.04500  0.32930  0.51280  1.0000
  C   C113      1.0  0.31550  0.25012  0.00080  1.0000
  C   C114      1.0  0.68450  0.25012  0.49920  1.0000
  C   C115      1.0  0.81550  0.75012  0.00080  1.0000
  C   C116      1.0  0.18450  0.75012  0.49920  1.0000
  C   C117      1.0  0.68450  0.74988  0.99920  1.0000
  C   C118      1.0  0.31550  0.74988  0.50080  1.0000
  C   C119      1.0  0.18450  0.24988  0.99920  1.0000
  C   C120      1.0  0.81550  0.24988  0.50080  1.0000
