data_image0
_chemical_formula_structural       C8H8C8H8C8H8C8H8C32H8C8H8C16H8C8H8C16H8C8H8C8H8C8H8C32H8C8H8C16H8C8H8C16H8C8H8C8H8C8H8C32H8C8H8C16H8C8H8C8Co8N48O72Zn8
_chemical_formula_sum              "C312 H192 Co8 N48 O72 Zn8"
_cell_length_a       17.317
_cell_length_b       25.397
_cell_length_c       21.54
_cell_angle_alpha    90
_cell_angle_beta     94.431
_cell_angle_gamma    90

_space_group_name_H-M_alt    "P 1"
_space_group_IT_number       1

loop_
  _space_group_symop_operation_xyz
  'x, y, z'

loop_
  _atom_site_type_symbol
  _atom_site_label
  _atom_site_symmetry_multiplicity
  _atom_site_fract_x
  _atom_site_fract_y
  _atom_site_fract_z
  _atom_site_occupancy
  C   C1        1.0  0.87300  0.81030  0.56560  1.0000
  C   C2        1.0  0.12700  0.81030  0.93440  1.0000
  C   C3        1.0  0.37300  0.31030  0.56560  1.0000
  C   C4        1.0  0.62700  0.31030  0.93440  1.0000
  C   C5        1.0  0.12700  0.18970  0.43440  1.0000
  C   C6        1.0  0.87300  0.18970  0.06560  1.0000
  C   C7        1.0  0.62700  0.68970  0.43440  1.0000
  C   C8        1.0  0.37300  0.68970  0.06560  1.0000
  H   H1        1.0  0.82820  0.79280  0.54770  1.0000
  H   H2        1.0  0.17180  0.79280  0.95230  1.0000
  H   H3        1.0  0.32820  0.29280  0.54770  1.0000
  H   H4        1.0  0.67180  0.29280  0.95230  1.0000
  H   H5        1.0  0.17180  0.20720  0.45230  1.0000
  H   H6        1.0  0.82820  0.20720  0.04770  1.0000
  H   H7        1.0  0.67180  0.70720  0.45230  1.0000
  H   H8        1.0  0.32820  0.70720  0.04770  1.0000
  C   C9        1.0  0.93150  0.78120  0.59600  1.0000
  C   C10       1.0  0.06850  0.78120  0.90400  1.0000
  C   C11       1.0  0.43150  0.28120  0.59600  1.0000
  C   C12       1.0  0.56850  0.28120  0.90400  1.0000
  C   C13       1.0  0.06850  0.21880  0.40400  1.0000
  C   C14       1.0  0.93150  0.21880  0.09600  1.0000
  C   C15       1.0  0.56850  0.71880  0.40400  1.0000
  C   C16       1.0  0.43150  0.71880  0.09600  1.0000
  H   H9        1.0  0.92700  0.74400  0.59860  1.0000
  H   H10       1.0  0.07300  0.74400  0.90140  1.0000
  H   H11       1.0  0.42700  0.24400  0.59860  1.0000
  H   H12       1.0  0.57300  0.24400  0.90140  1.0000
  H   H13       1.0  0.07300  0.25600  0.40140  1.0000
  H   H14       1.0  0.92700  0.25600  0.09860  1.0000
  H   H15       1.0  0.57300  0.75600  0.40140  1.0000
  H   H16       1.0  0.42700  0.75600  0.09860  1.0000
  C   C17       1.0  0.99460  0.80560  0.62180  1.0000
  C   C18       1.0  0.00540  0.80560  0.87820  1.0000
  C   C19       1.0  0.49460  0.30560  0.62180  1.0000
  C   C20       1.0  0.50540  0.30560  0.87820  1.0000
  C   C21       1.0  0.00540  0.19440  0.37820  1.0000
  C   C22       1.0  0.99460  0.19440  0.12180  1.0000
  C   C23       1.0  0.50540  0.69440  0.37820  1.0000
  C   C24       1.0  0.49460  0.69440  0.12180  1.0000
  H   H17       1.0  0.03480  0.78570  0.64320  1.0000
  H   H18       1.0  0.96520  0.78570  0.85680  1.0000
  H   H19       1.0  0.53480  0.28570  0.64320  1.0000
  H   H20       1.0  0.46520  0.28570  0.85680  1.0000
  H   H21       1.0  0.96520  0.21430  0.35680  1.0000
  H   H22       1.0  0.03480  0.21430  0.14320  1.0000
  H   H23       1.0  0.46520  0.71430  0.35680  1.0000
  H   H24       1.0  0.53480  0.71430  0.14320  1.0000
  C   C25       1.0  0.00090  0.85920  0.61730  1.0000
  C   C26       1.0  0.99910  0.85920  0.88270  1.0000
  C   C27       1.0  0.50090  0.35920  0.61730  1.0000
  C   C28       1.0  0.49910  0.35920  0.88270  1.0000
  C   C29       1.0  0.99910  0.14080  0.38270  1.0000
  C   C30       1.0  0.00090  0.14080  0.11730  1.0000
  C   C31       1.0  0.49910  0.64080  0.38270  1.0000
  C   C32       1.0  0.50090  0.64080  0.11730  1.0000
  H   H25       1.0  0.04590  0.87670  0.63480  1.0000
  H   H26       1.0  0.95410  0.87670  0.86520  1.0000
  H   H27       1.0  0.54590  0.37670  0.63480  1.0000
  H   H28       1.0  0.45410  0.37670  0.86520  1.0000
  H   H29       1.0  0.95410  0.12330  0.36520  1.0000
  H   H30       1.0  0.04590  0.12330  0.13480  1.0000
  H   H31       1.0  0.45410  0.62330  0.36520  1.0000
  H   H32       1.0  0.54590  0.62330  0.13480  1.0000
  C   C33       1.0  0.94130  0.88720  0.58730  1.0000
  C   C34       1.0  0.05870  0.88720  0.91270  1.0000
  C   C35       1.0  0.44130  0.38720  0.58730  1.0000
  C   C36       1.0  0.55870  0.38720  0.91270  1.0000
  C   C37       1.0  0.05870  0.11280  0.41270  1.0000
  C   C38       1.0  0.94130  0.11280  0.08730  1.0000
  C   C39       1.0  0.55870  0.61280  0.41270  1.0000
  C   C40       1.0  0.44130  0.61280  0.08730  1.0000
  C   C41       1.0  0.94050  0.94560  0.58220  1.0000
  C   C42       1.0  0.05950  0.94560  0.91780  1.0000
  C   C43       1.0  0.44050  0.44560  0.58220  1.0000
  C   C44       1.0  0.55950  0.44560  0.91780  1.0000
  C   C45       1.0  0.05950  0.05440  0.41780  1.0000
  C   C46       1.0  0.94050  0.05440  0.08220  1.0000
  C   C47       1.0  0.55950  0.55440  0.41780  1.0000
  C   C48       1.0  0.44050  0.55440  0.08220  1.0000
  C   C49       1.0  0.86570  0.01796  0.54610  1.0000
  C   C50       1.0  0.13430  0.01796  0.95390  1.0000
  C   C51       1.0  0.36570  0.51796  0.54610  1.0000
  C   C52       1.0  0.63430  0.51796  0.95390  1.0000
  C   C53       1.0  0.13430  0.98204  0.45390  1.0000
  C   C54       1.0  0.86570  0.98204  0.04610  1.0000
  C   C55       1.0  0.63430  0.48204  0.45390  1.0000
  C   C56       1.0  0.36570  0.48204  0.04610  1.0000
  C   C57       1.0  0.87220  0.04640  0.49130  1.0000
  C   C58       1.0  0.12780  0.04640  0.00870  1.0000
  C   C59       1.0  0.37220  0.54640  0.49130  1.0000
  C   C60       1.0  0.62780  0.54640  0.00870  1.0000
  C   C61       1.0  0.12780  0.95360  0.50870  1.0000
  C   C62       1.0  0.87220  0.95360  0.99130  1.0000
  C   C63       1.0  0.62780  0.45360  0.50870  1.0000
  C   C64       1.0  0.37220  0.45360  0.99130  1.0000
  H   H33       1.0  0.89000  0.02960  0.45570  1.0000
  H   H34       1.0  0.11000  0.02960  0.04430  1.0000
  H   H35       1.0  0.39000  0.52960  0.45570  1.0000
  H   H36       1.0  0.61000  0.52960  0.04430  1.0000
  H   H37       1.0  0.11000  0.97040  0.54430  1.0000
  H   H38       1.0  0.89000  0.97040  0.95570  1.0000
  H   H39       1.0  0.61000  0.47040  0.54430  1.0000
  H   H40       1.0  0.39000  0.47040  0.95570  1.0000
  C   C65       1.0  0.85240  0.09940  0.48920  1.0000
  C   C66       1.0  0.14760  0.09940  0.01080  1.0000
  C   C67       1.0  0.35240  0.59940  0.48920  1.0000
  C   C68       1.0  0.64760  0.59940  0.01080  1.0000
  C   C69       1.0  0.14760  0.90060  0.51080  1.0000
  C   C70       1.0  0.85240  0.90060  0.98920  1.0000
  C   C71       1.0  0.64760  0.40060  0.51080  1.0000
  C   C72       1.0  0.35240  0.40060  0.98920  1.0000
  H   H41       1.0  0.85790  0.11890  0.45220  1.0000
  H   H42       1.0  0.14210  0.11890  0.04780  1.0000
  H   H43       1.0  0.35790  0.61890  0.45220  1.0000
  H   H44       1.0  0.64210  0.61890  0.04780  1.0000
  H   H45       1.0  0.14210  0.88110  0.54780  1.0000
  H   H46       1.0  0.85790  0.88110  0.95220  1.0000
  H   H47       1.0  0.64210  0.38110  0.54780  1.0000
  H   H48       1.0  0.35790  0.38110  0.95220  1.0000
  C   C73       1.0  0.82500  0.12379  0.53950  1.0000
  C   C74       1.0  0.17500  0.12379  0.96050  1.0000
  C   C75       1.0  0.32500  0.62379  0.53950  1.0000
  C   C76       1.0  0.67500  0.62379  0.96050  1.0000
  C   C77       1.0  0.17500  0.87621  0.46050  1.0000
  C   C78       1.0  0.82500  0.87621  0.03950  1.0000
  C   C79       1.0  0.67500  0.37621  0.46050  1.0000
  C   C80       1.0  0.32500  0.37621  0.03950  1.0000
  C   C81       1.0  0.81940  0.09570  0.59420  1.0000
  C   C82       1.0  0.18060  0.09570  0.90580  1.0000
  C   C83       1.0  0.31940  0.59570  0.59420  1.0000
  C   C84       1.0  0.68060  0.59570  0.90580  1.0000
  C   C85       1.0  0.18060  0.90430  0.40580  1.0000
  C   C86       1.0  0.81940  0.90430  0.09420  1.0000
  C   C87       1.0  0.68060  0.40430  0.40580  1.0000
  C   C88       1.0  0.31940  0.40430  0.09420  1.0000
  H   H49       1.0  0.80180  0.11280  0.62970  1.0000
  H   H50       1.0  0.19820  0.11280  0.87030  1.0000
  H   H51       1.0  0.30180  0.61280  0.62970  1.0000
  H   H52       1.0  0.69820  0.61280  0.87030  1.0000
  H   H53       1.0  0.19820  0.88720  0.37030  1.0000
  H   H54       1.0  0.80180  0.88720  0.12970  1.0000
  H   H55       1.0  0.69820  0.38720  0.37030  1.0000
  H   H56       1.0  0.30180  0.38720  0.12970  1.0000
  C   C89       1.0  0.83910  0.04300  0.59750  1.0000
  C   C90       1.0  0.16090  0.04300  0.90250  1.0000
  C   C91       1.0  0.33910  0.54300  0.59750  1.0000
  C   C92       1.0  0.66090  0.54300  0.90250  1.0000
  C   C93       1.0  0.16090  0.95700  0.40250  1.0000
  C   C94       1.0  0.83910  0.95700  0.09750  1.0000
  C   C95       1.0  0.66090  0.45700  0.40250  1.0000
  C   C96       1.0  0.33910  0.45700  0.09750  1.0000
  H   H57       1.0  0.83450  0.02390  0.63500  1.0000
  H   H58       1.0  0.16550  0.02390  0.86500  1.0000
  H   H59       1.0  0.33450  0.52390  0.63500  1.0000
  H   H60       1.0  0.66550  0.52390  0.86500  1.0000
  H   H61       1.0  0.16550  0.97610  0.36500  1.0000
  H   H62       1.0  0.83450  0.97610  0.13500  1.0000
  H   H63       1.0  0.66550  0.47610  0.36500  1.0000
  H   H64       1.0  0.33450  0.47610  0.13500  1.0000
  C   C97       1.0  0.80410  0.18100  0.53560  1.0000
  C   C98       1.0  0.19590  0.18100  0.96440  1.0000
  C   C99       1.0  0.30410  0.68100  0.53560  1.0000
  C   C100      1.0  0.69590  0.68100  0.96440  1.0000
  C   C101      1.0  0.19590  0.81900  0.46440  1.0000
  C   C102      1.0  0.80410  0.81900  0.03560  1.0000
  C   C103      1.0  0.69590  0.31900  0.46440  1.0000
  C   C104      1.0  0.30410  0.31900  0.03560  1.0000
  C   C105      1.0  0.07000  0.08620  0.57220  1.0000
  C   C106      1.0  0.93000  0.08620  0.92780  1.0000
  C   C107      1.0  0.57000  0.58620  0.57220  1.0000
  C   C108      1.0  0.43000  0.58620  0.92780  1.0000
  C   C109      1.0  0.93000  0.91380  0.42780  1.0000
  C   C110      1.0  0.07000  0.91380  0.07220  1.0000
  C   C111      1.0  0.43000  0.41380  0.42780  1.0000
  C   C112      1.0  0.57000  0.41380  0.07220  1.0000
  H   H65       1.0  0.04970  0.05660  0.54960  1.0000
  H   H66       1.0  0.95030  0.05660  0.95040  1.0000
  H   H67       1.0  0.54970  0.55660  0.54960  1.0000
  H   H68       1.0  0.45030  0.55660  0.95040  1.0000
  H   H69       1.0  0.95030  0.94340  0.45040  1.0000
  H   H70       1.0  0.04970  0.94340  0.04960  1.0000
  H   H71       1.0  0.45030  0.44340  0.45040  1.0000
  H   H72       1.0  0.54970  0.44340  0.04960  1.0000
  C   C113      1.0  0.02990  0.10590  0.62040  1.0000
  C   C114      1.0  0.97010  0.10590  0.87960  1.0000
  C   C115      1.0  0.52990  0.60590  0.62040  1.0000
  C   C116      1.0  0.47010  0.60590  0.87960  1.0000
  C   C117      1.0  0.97010  0.89410  0.37960  1.0000
  C   C118      1.0  0.02990  0.89410  0.12040  1.0000
  C   C119      1.0  0.47010  0.39410  0.37960  1.0000
  C   C120      1.0  0.52990  0.39410  0.12040  1.0000
  H   H73       1.0  0.98220  0.09050  0.62980  1.0000
  H   H74       1.0  0.01780  0.09050  0.87020  1.0000
  H   H75       1.0  0.48220  0.59050  0.62980  1.0000
  H   H76       1.0  0.51780  0.59050  0.87020  1.0000
  H   H77       1.0  0.01780  0.90950  0.37020  1.0000
  H   H78       1.0  0.98220  0.90950  0.12980  1.0000
  H   H79       1.0  0.51780  0.40950  0.37020  1.0000
  H   H80       1.0  0.48220  0.40950  0.12980  1.0000
  C   C121      1.0  0.05990  0.14770  0.65410  1.0000
  C   C122      1.0  0.94010  0.14770  0.84590  1.0000
  C   C123      1.0  0.55990  0.64770  0.65410  1.0000
  C   C124      1.0  0.44010  0.64770  0.84590  1.0000
  C   C125      1.0  0.94010  0.85230  0.34590  1.0000
  C   C126      1.0  0.05990  0.85230  0.15410  1.0000
  C   C127      1.0  0.44010  0.35230  0.34590  1.0000
  C   C128      1.0  0.55990  0.35230  0.15410  1.0000
  H   H81       1.0  0.03320  0.16220  0.68700  1.0000
  H   H82       1.0  0.96680  0.16220  0.81300  1.0000
  H   H83       1.0  0.53320  0.66220  0.68700  1.0000
  H   H84       1.0  0.46680  0.66220  0.81300  1.0000
  H   H85       1.0  0.96680  0.83780  0.31300  1.0000
  H   H86       1.0  0.03320  0.83780  0.18700  1.0000
  H   H87       1.0  0.46680  0.33780  0.31300  1.0000
  H   H88       1.0  0.53320  0.33780  0.18700  1.0000
  C   C129      1.0  0.13040  0.16850  0.63930  1.0000
  C   C130      1.0  0.86960  0.16850  0.86070  1.0000
  C   C131      1.0  0.63040  0.66850  0.63930  1.0000
  C   C132      1.0  0.36960  0.66850  0.86070  1.0000
  C   C133      1.0  0.86960  0.83150  0.36070  1.0000
  C   C134      1.0  0.13040  0.83150  0.13930  1.0000
  C   C135      1.0  0.36960  0.33150  0.36070  1.0000
  C   C136      1.0  0.63040  0.33150  0.13930  1.0000
  H   H89       1.0  0.15310  0.19680  0.66300  1.0000
  H   H90       1.0  0.84690  0.19680  0.83700  1.0000
  H   H91       1.0  0.65310  0.69680  0.66300  1.0000
  H   H92       1.0  0.34690  0.69680  0.83700  1.0000
  H   H93       1.0  0.84690  0.80320  0.33700  1.0000
  H   H94       1.0  0.15310  0.80320  0.16300  1.0000
  H   H95       1.0  0.34690  0.30320  0.33700  1.0000
  H   H96       1.0  0.65310  0.30320  0.16300  1.0000
  C   C137      1.0  0.16690  0.14810  0.59060  1.0000
  C   C138      1.0  0.83310  0.14810  0.90940  1.0000
  C   C139      1.0  0.66690  0.64810  0.59060  1.0000
  C   C140      1.0  0.33310  0.64810  0.90940  1.0000
  C   C141      1.0  0.83310  0.85190  0.40940  1.0000
  C   C142      1.0  0.16690  0.85190  0.09060  1.0000
  C   C143      1.0  0.33310  0.35190  0.40940  1.0000
  C   C144      1.0  0.66690  0.35190  0.09060  1.0000
  C   C145      1.0  0.24130  0.16830  0.57140  1.0000
  C   C146      1.0  0.75870  0.16830  0.92860  1.0000
  C   C147      1.0  0.74130  0.66830  0.57140  1.0000
  C   C148      1.0  0.25870  0.66830  0.92860  1.0000
  C   C149      1.0  0.75870  0.83170  0.42860  1.0000
  C   C150      1.0  0.24130  0.83170  0.07140  1.0000
  C   C151      1.0  0.25870  0.33170  0.42860  1.0000
  C   C152      1.0  0.74130  0.33170  0.07140  1.0000
  C   C153      1.0  0.33920  0.15760  0.50260  1.0000
  C   C154      1.0  0.66080  0.15760  0.99740  1.0000
  C   C155      1.0  0.83920  0.65760  0.50260  1.0000
  C   C156      1.0  0.16080  0.65760  0.99740  1.0000
  C   C157      1.0  0.66080  0.84240  0.49740  1.0000
  C   C158      1.0  0.33920  0.84240  0.00260  1.0000
  C   C159      1.0  0.16080  0.34240  0.49740  1.0000
  C   C160      1.0  0.83920  0.34240  0.00260  1.0000
  C   C161      1.0  0.40180  0.12890  0.52470  1.0000
  C   C162      1.0  0.59820  0.12890  0.97530  1.0000
  C   C163      1.0  0.90180  0.62890  0.52470  1.0000
  C   C164      1.0  0.09820  0.62890  0.97530  1.0000
  C   C165      1.0  0.59820  0.87110  0.47530  1.0000
  C   C166      1.0  0.40180  0.87110  0.02470  1.0000
  C   C167      1.0  0.09820  0.37110  0.47530  1.0000
  C   C168      1.0  0.90180  0.37110  0.02470  1.0000
  H   H97       1.0  0.39620  0.09970  0.55140  1.0000
  H   H98       1.0  0.60380  0.09970  0.94860  1.0000
  H   H99       1.0  0.89620  0.59970  0.55140  1.0000
  H   H100      1.0  0.10380  0.59970  0.94860  1.0000
  H   H101      1.0  0.60380  0.90030  0.44860  1.0000
  H   H102      1.0  0.39620  0.90030  0.05140  1.0000
  H   H103      1.0  0.10380  0.40030  0.44860  1.0000
  H   H104      1.0  0.89620  0.40030  0.05140  1.0000
  C   C169      1.0  0.47680  0.14420  0.50640  1.0000
  C   C170      1.0  0.52320  0.14420  0.99360  1.0000
  C   C171      1.0  0.97680  0.64420  0.50640  1.0000
  C   C172      1.0  0.02320  0.64420  0.99360  1.0000
  C   C173      1.0  0.52320  0.85580  0.49360  1.0000
  C   C174      1.0  0.47680  0.85580  0.00640  1.0000
  C   C175      1.0  0.02320  0.35580  0.49360  1.0000
  C   C176      1.0  0.97680  0.35580  0.00640  1.0000
  H   H105      1.0  0.52120  0.12520  0.52240  1.0000
  H   H106      1.0  0.47880  0.12520  0.97760  1.0000
  H   H107      1.0  0.02120  0.62520  0.52240  1.0000
  H   H108      1.0  0.97880  0.62520  0.97760  1.0000
  H   H109      1.0  0.47880  0.87480  0.47760  1.0000
  H   H110      1.0  0.52120  0.87480  0.02240  1.0000
  H   H111      1.0  0.97880  0.37480  0.47760  1.0000
  H   H112      1.0  0.02120  0.37480  0.02240  1.0000
  C   C177      1.0  0.48570  0.18490  0.46680  1.0000
  C   C178      1.0  0.51430  0.18490  0.03320  1.0000
  C   C179      1.0  0.98570  0.68490  0.46680  1.0000
  C   C180      1.0  0.01430  0.68490  0.03320  1.0000
  C   C181      1.0  0.51430  0.81510  0.53320  1.0000
  C   C182      1.0  0.48570  0.81510  0.96680  1.0000
  C   C183      1.0  0.01430  0.31510  0.53320  1.0000
  C   C184      1.0  0.98570  0.31510  0.96680  1.0000
  C   C185      1.0  0.42300  0.21230  0.44570  1.0000
  C   C186      1.0  0.57700  0.21230  0.05430  1.0000
  C   C187      1.0  0.92300  0.71230  0.44570  1.0000
  C   C188      1.0  0.07700  0.71230  0.05430  1.0000
  C   C189      1.0  0.57700  0.78770  0.55430  1.0000
  C   C190      1.0  0.42300  0.78770  0.94570  1.0000
  C   C191      1.0  0.07700  0.28770  0.55430  1.0000
  C   C192      1.0  0.92300  0.28770  0.94570  1.0000
  H   H113      1.0  0.42840  0.24080  0.41790  1.0000
  H   H114      1.0  0.57160  0.24080  0.08210  1.0000
  H   H115      1.0  0.92840  0.74080  0.41790  1.0000
  H   H116      1.0  0.07160  0.74080  0.08210  1.0000
  H   H117      1.0  0.57160  0.75920  0.58210  1.0000
  H   H118      1.0  0.42840  0.75920  0.91790  1.0000
  H   H119      1.0  0.07160  0.25920  0.58210  1.0000
  H   H120      1.0  0.92840  0.25920  0.91790  1.0000
  C   C193      1.0  0.35050  0.19930  0.46410  1.0000
  C   C194      1.0  0.64950  0.19930  0.03590  1.0000
  C   C195      1.0  0.85050  0.69930  0.46410  1.0000
  C   C196      1.0  0.14950  0.69930  0.03590  1.0000
  C   C197      1.0  0.64950  0.80070  0.53590  1.0000
  C   C198      1.0  0.35050  0.80070  0.96410  1.0000
  C   C199      1.0  0.14950  0.30070  0.53590  1.0000
  C   C200      1.0  0.85050  0.30070  0.96410  1.0000
  H   H121      1.0  0.30710  0.22000  0.44940  1.0000
  H   H122      1.0  0.69290  0.22000  0.05060  1.0000
  H   H123      1.0  0.80710  0.72000  0.44940  1.0000
  H   H124      1.0  0.19290  0.72000  0.05060  1.0000
  H   H125      1.0  0.69290  0.78000  0.55060  1.0000
  H   H126      1.0  0.30710  0.78000  0.94940  1.0000
  H   H127      1.0  0.19290  0.28000  0.55060  1.0000
  H   H128      1.0  0.80710  0.28000  0.94940  1.0000
  C   C201      1.0  0.56610  0.19990  0.44420  1.0000
  C   C202      1.0  0.43390  0.19990  0.05580  1.0000
  C   C203      1.0  0.06610  0.69990  0.44420  1.0000
  C   C204      1.0  0.93390  0.69990  0.05580  1.0000
  C   C205      1.0  0.43390  0.80010  0.55580  1.0000
  C   C206      1.0  0.56610  0.80010  0.94420  1.0000
  C   C207      1.0  0.93390  0.30010  0.55580  1.0000
  C   C208      1.0  0.06610  0.30010  0.94420  1.0000
  C   C209      1.0  0.74120  0.02260  0.91360  1.0000
  C   C210      1.0  0.25880  0.02260  0.58640  1.0000
  C   C211      1.0  0.24120  0.52260  0.91360  1.0000
  C   C212      1.0  0.75880  0.52260  0.58640  1.0000
  C   C213      1.0  0.25880  0.97740  0.08640  1.0000
  C   C214      1.0  0.74120  0.97740  0.41360  1.0000
  C   C215      1.0  0.75880  0.47740  0.08640  1.0000
  C   C216      1.0  0.24120  0.47740  0.41360  1.0000
  H   H129      1.0  0.77180  0.04130  0.88630  1.0000
  H   H130      1.0  0.22820  0.04130  0.61370  1.0000
  H   H131      1.0  0.27180  0.54130  0.88630  1.0000
  H   H132      1.0  0.72820  0.54130  0.61370  1.0000
  H   H133      1.0  0.22820  0.95870  0.11370  1.0000
  H   H134      1.0  0.77180  0.95870  0.38630  1.0000
  H   H135      1.0  0.72820  0.45870  0.11370  1.0000
  H   H136      1.0  0.27180  0.45870  0.38630  1.0000
  C   C217      1.0  0.69780  0.97990  0.89160  1.0000
  C   C218      1.0  0.30220  0.97990  0.60840  1.0000
  C   C219      1.0  0.19780  0.47990  0.89160  1.0000
  C   C220      1.0  0.80220  0.47990  0.60840  1.0000
  C   C221      1.0  0.30220  0.02010  0.10840  1.0000
  C   C222      1.0  0.69780  0.02010  0.39160  1.0000
  C   C223      1.0  0.80220  0.52010  0.10840  1.0000
  C   C224      1.0  0.19780  0.52010  0.39160  1.0000
  H   H137      1.0  0.69900  0.96940  0.84940  1.0000
  H   H138      1.0  0.30100  0.96940  0.65060  1.0000
  H   H139      1.0  0.19900  0.46940  0.84940  1.0000
  H   H140      1.0  0.80100  0.46940  0.65060  1.0000
  H   H141      1.0  0.30100  0.03060  0.15060  1.0000
  H   H142      1.0  0.69900  0.03060  0.34940  1.0000
  H   H143      1.0  0.80100  0.53060  0.15060  1.0000
  H   H144      1.0  0.19900  0.53060  0.34940  1.0000
  C   C225      1.0  0.65370  0.95320  0.92990  1.0000
  C   C226      1.0  0.34630  0.95320  0.57010  1.0000
  C   C227      1.0  0.15370  0.45320  0.92990  1.0000
  C   C228      1.0  0.84630  0.45320  0.57010  1.0000
  C   C229      1.0  0.34630  0.04680  0.07010  1.0000
  C   C230      1.0  0.65370  0.04680  0.42990  1.0000
  C   C231      1.0  0.84630  0.54680  0.07010  1.0000
  C   C232      1.0  0.15370  0.54680  0.42990  1.0000
  H   H145      1.0  0.62520  0.92310  0.91540  1.0000
  H   H146      1.0  0.37480  0.92310  0.58460  1.0000
  H   H147      1.0  0.12520  0.42310  0.91540  1.0000
  H   H148      1.0  0.87480  0.42310  0.58460  1.0000
  H   H149      1.0  0.37480  0.07690  0.08460  1.0000
  H   H150      1.0  0.62520  0.07690  0.41540  1.0000
  H   H151      1.0  0.87480  0.57690  0.08460  1.0000
  H   H152      1.0  0.12520  0.57690  0.41540  1.0000
  C   C233      1.0  0.65090  0.97060  0.99070  1.0000
  C   C234      1.0  0.34910  0.97060  0.50930  1.0000
  C   C235      1.0  0.15090  0.47060  0.99070  1.0000
  C   C236      1.0  0.84910  0.47060  0.50930  1.0000
  C   C237      1.0  0.34910  0.02940  0.00930  1.0000
  C   C238      1.0  0.65090  0.02940  0.49070  1.0000
  C   C239      1.0  0.84910  0.52940  0.00930  1.0000
  C   C240      1.0  0.15090  0.52940  0.49070  1.0000
  H   H153      1.0  0.61930  0.95290  0.01840  1.0000
  H   H154      1.0  0.38070  0.95290  0.48160  1.0000
  H   H155      1.0  0.11930  0.45290  0.01840  1.0000
  H   H156      1.0  0.88070  0.45290  0.48160  1.0000
  H   H157      1.0  0.38070  0.04710  0.98160  1.0000
  H   H158      1.0  0.61930  0.04710  0.51840  1.0000
  H   H159      1.0  0.88070  0.54710  0.98160  1.0000
  H   H160      1.0  0.11930  0.54710  0.51840  1.0000
  C   C241      1.0  0.69410  0.01340  0.01040  1.0000
  C   C242      1.0  0.30590  0.01340  0.48960  1.0000
  C   C243      1.0  0.19410  0.51340  0.01040  1.0000
  C   C244      1.0  0.80590  0.51340  0.48960  1.0000
  C   C245      1.0  0.30590  0.98660  0.98960  1.0000
  C   C246      1.0  0.69410  0.98660  0.51040  1.0000
  C   C247      1.0  0.80590  0.48660  0.98960  1.0000
  C   C248      1.0  0.19410  0.48660  0.51040  1.0000
  C   C249      1.0  0.69430  0.03460  0.07370  1.0000
  C   C250      1.0  0.30570  0.03460  0.42630  1.0000
  C   C251      1.0  0.19430  0.53460  0.07370  1.0000
  C   C252      1.0  0.80570  0.53460  0.42630  1.0000
  C   C253      1.0  0.30570  0.96540  0.92630  1.0000
  C   C254      1.0  0.69430  0.96540  0.57370  1.0000
  C   C255      1.0  0.80570  0.46540  0.92630  1.0000
  C   C256      1.0  0.19430  0.46540  0.57370  1.0000
  C   C257      1.0  0.74790  0.09990  0.14310  1.0000
  C   C258      1.0  0.25210  0.09990  0.35690  1.0000
  C   C259      1.0  0.24790  0.59990  0.14310  1.0000
  C   C260      1.0  0.75210  0.59990  0.35690  1.0000
  C   C261      1.0  0.25210  0.90010  0.85690  1.0000
  C   C262      1.0  0.74790  0.90010  0.64310  1.0000
  C   C263      1.0  0.75210  0.40010  0.85690  1.0000
  C   C264      1.0  0.24790  0.40010  0.64310  1.0000
  C   C265      1.0  0.68420  0.12760  0.16000  1.0000
  C   C266      1.0  0.31580  0.12760  0.34000  1.0000
  C   C267      1.0  0.18420  0.62760  0.16000  1.0000
  C   C268      1.0  0.81580  0.62760  0.34000  1.0000
  C   C269      1.0  0.31580  0.87240  0.84000  1.0000
  C   C270      1.0  0.68420  0.87240  0.66000  1.0000
  C   C271      1.0  0.81580  0.37240  0.84000  1.0000
  C   C272      1.0  0.18420  0.37240  0.66000  1.0000
  H   H161      1.0  0.63800  0.12860  0.13310  1.0000
  H   H162      1.0  0.36200  0.12860  0.36690  1.0000
  H   H163      1.0  0.13800  0.62860  0.13310  1.0000
  H   H164      1.0  0.86200  0.62860  0.36690  1.0000
  H   H165      1.0  0.36200  0.87140  0.86690  1.0000
  H   H166      1.0  0.63800  0.87140  0.63310  1.0000
  H   H167      1.0  0.86200  0.37140  0.86690  1.0000
  H   H168      1.0  0.13800  0.37140  0.63310  1.0000
  C   C273      1.0  0.68800  0.15380  0.21640  1.0000
  C   C274      1.0  0.31200  0.15380  0.28360  1.0000
  C   C275      1.0  0.18800  0.65380  0.21640  1.0000
  C   C276      1.0  0.81200  0.65380  0.28360  1.0000
  C   C277      1.0  0.31200  0.84620  0.78360  1.0000
  C   C278      1.0  0.68800  0.84620  0.71640  1.0000
  C   C279      1.0  0.81200  0.34620  0.78360  1.0000
  C   C280      1.0  0.18800  0.34620  0.71640  1.0000
  H   H169      1.0  0.64430  0.17290  0.22820  1.0000
  H   H170      1.0  0.35570  0.17290  0.27180  1.0000
  H   H171      1.0  0.14430  0.67290  0.22820  1.0000
  H   H172      1.0  0.85570  0.67290  0.27180  1.0000
  H   H173      1.0  0.35570  0.82710  0.77180  1.0000
  H   H174      1.0  0.64430  0.82710  0.72820  1.0000
  H   H175      1.0  0.85570  0.32710  0.77180  1.0000
  H   H176      1.0  0.14430  0.32710  0.72820  1.0000
  C   C281      1.0  0.75700  0.15260  0.25680  1.0000
  C   C282      1.0  0.24300  0.15260  0.24320  1.0000
  C   C283      1.0  0.25700  0.65260  0.25680  1.0000
  C   C284      1.0  0.74300  0.65260  0.24320  1.0000
  C   C285      1.0  0.24300  0.84740  0.74320  1.0000
  C   C286      1.0  0.75700  0.84740  0.75680  1.0000
  C   C287      1.0  0.74300  0.34740  0.74320  1.0000
  C   C288      1.0  0.25700  0.34740  0.75680  1.0000
  C   C289      1.0  0.81520  0.12270  0.23910  1.0000
  C   C290      1.0  0.18480  0.12270  0.26090  1.0000
  C   C291      1.0  0.31520  0.62270  0.23910  1.0000
  C   C292      1.0  0.68480  0.62270  0.26090  1.0000
  C   C293      1.0  0.18480  0.87730  0.76090  1.0000
  C   C294      1.0  0.81520  0.87730  0.73910  1.0000
  C   C295      1.0  0.68480  0.37730  0.76090  1.0000
  C   C296      1.0  0.31520  0.37730  0.73910  1.0000
  H   H177      1.0  0.86150  0.12050  0.26570  1.0000
  H   H178      1.0  0.13850  0.12050  0.23430  1.0000
  H   H179      1.0  0.36150  0.62050  0.26570  1.0000
  H   H180      1.0  0.63850  0.62050  0.23430  1.0000
  H   H181      1.0  0.13850  0.87950  0.73430  1.0000
  H   H182      1.0  0.86150  0.87950  0.76570  1.0000
  H   H183      1.0  0.63850  0.37950  0.73430  1.0000
  H   H184      1.0  0.36150  0.37950  0.76570  1.0000
  C   C297      1.0  0.81070  0.09500  0.18430  1.0000
  C   C298      1.0  0.18930  0.09500  0.31570  1.0000
  C   C299      1.0  0.31070  0.59500  0.18430  1.0000
  C   C300      1.0  0.68930  0.59500  0.31570  1.0000
  C   C301      1.0  0.18930  0.90500  0.81570  1.0000
  C   C302      1.0  0.81070  0.90500  0.68430  1.0000
  C   C303      1.0  0.68930  0.40500  0.81570  1.0000
  C   C304      1.0  0.31070  0.40500  0.68430  1.0000
  H   H185      1.0  0.85180  0.07220  0.17510  1.0000
  H   H186      1.0  0.14820  0.07220  0.32490  1.0000
  H   H187      1.0  0.35180  0.57220  0.17510  1.0000
  H   H188      1.0  0.64820  0.57220  0.32490  1.0000
  H   H189      1.0  0.14820  0.92780  0.82490  1.0000
  H   H190      1.0  0.85180  0.92780  0.67510  1.0000
  H   H191      1.0  0.64820  0.42780  0.82490  1.0000
  H   H192      1.0  0.35180  0.42780  0.67510  1.0000
  C   C305      1.0  0.76130  0.18190  0.31680  1.0000
  C   C306      1.0  0.23870  0.18190  0.18320  1.0000
  C   C307      1.0  0.26130  0.68190  0.31680  1.0000
  C   C308      1.0  0.73870  0.68190  0.18320  1.0000
  C   C309      1.0  0.23870  0.81810  0.68320  1.0000
  C   C310      1.0  0.76130  0.81810  0.81680  1.0000
  C   C311      1.0  0.73870  0.31810  0.68320  1.0000
  C   C312      1.0  0.26130  0.31810  0.81680  1.0000
  Co  Co1       1.0  0.80604  0.90982  0.51526  1.0000
  Co  Co2       1.0  0.19396  0.90982  0.98474  1.0000
  Co  Co3       1.0  0.30604  0.40982  0.51526  1.0000
  Co  Co4       1.0  0.69396  0.40982  0.98474  1.0000
  Co  Co5       1.0  0.19396  0.09018  0.48474  1.0000
  Co  Co6       1.0  0.80604  0.09018  0.01526  1.0000
  Co  Co7       1.0  0.69396  0.59018  0.48474  1.0000
  Co  Co8       1.0  0.30604  0.59018  0.01526  1.0000
  N   N1        1.0  0.87780  0.86285  0.56070  1.0000
  N   N2        1.0  0.12220  0.86285  0.93930  1.0000
  N   N3        1.0  0.37780  0.36285  0.56070  1.0000
  N   N4        1.0  0.62220  0.36285  0.93930  1.0000
  N   N5        1.0  0.12220  0.13715  0.43930  1.0000
  N   N6        1.0  0.87780  0.13715  0.06070  1.0000
  N   N7        1.0  0.62220  0.63715  0.43930  1.0000
  N   N8        1.0  0.37780  0.63715  0.06070  1.0000
  N   N9        1.0  0.88100  0.96279  0.54730  1.0000
  N   N10       1.0  0.11900  0.96279  0.95270  1.0000
  N   N11       1.0  0.38100  0.46279  0.54730  1.0000
  N   N12       1.0  0.61900  0.46279  0.95270  1.0000
  N   N13       1.0  0.11900  0.03721  0.45270  1.0000
  N   N14       1.0  0.88100  0.03721  0.04730  1.0000
  N   N15       1.0  0.61900  0.53721  0.45270  1.0000
  N   N16       1.0  0.38100  0.53721  0.04730  1.0000
  N   N17       1.0  0.13640  0.10754  0.55650  1.0000
  N   N18       1.0  0.86360  0.10754  0.94350  1.0000
  N   N19       1.0  0.63640  0.60754  0.55650  1.0000
  N   N20       1.0  0.36360  0.60754  0.94350  1.0000
  N   N21       1.0  0.86360  0.89246  0.44350  1.0000
  N   N22       1.0  0.13640  0.89246  0.05650  1.0000
  N   N23       1.0  0.36360  0.39246  0.44350  1.0000
  N   N24       1.0  0.63640  0.39246  0.05650  1.0000
  N   N25       1.0  0.26290  0.14523  0.52050  1.0000
  N   N26       1.0  0.73710  0.14523  0.97950  1.0000
  N   N27       1.0  0.76290  0.64523  0.52050  1.0000
  N   N28       1.0  0.23710  0.64523  0.97950  1.0000
  N   N29       1.0  0.73710  0.85477  0.47950  1.0000
  N   N30       1.0  0.26290  0.85477  0.02050  1.0000
  N   N31       1.0  0.23710  0.35477  0.47950  1.0000
  N   N32       1.0  0.76290  0.35477  0.02050  1.0000
  N   N33       1.0  0.74050  0.03795  0.97360  1.0000
  N   N34       1.0  0.25950  0.03795  0.52640  1.0000
  N   N35       1.0  0.24050  0.53795  0.97360  1.0000
  N   N36       1.0  0.75950  0.53795  0.52640  1.0000
  N   N37       1.0  0.25950  0.96205  0.02640  1.0000
  N   N38       1.0  0.74050  0.96205  0.47360  1.0000
  N   N39       1.0  0.75950  0.46205  0.02640  1.0000
  N   N40       1.0  0.24050  0.46205  0.47360  1.0000
  N   N41       1.0  0.74410  0.07455  0.08370  1.0000
  N   N42       1.0  0.25590  0.07455  0.41630  1.0000
  N   N43       1.0  0.24410  0.57455  0.08370  1.0000
  N   N44       1.0  0.75590  0.57455  0.41630  1.0000
  N   N45       1.0  0.25590  0.92545  0.91630  1.0000
  N   N46       1.0  0.74410  0.92545  0.58370  1.0000
  N   N47       1.0  0.75590  0.42545  0.91630  1.0000
  N   N48       1.0  0.24410  0.42545  0.58370  1.0000
  O   O1        1.0  0.99240  0.97257  0.60890  1.0000
  O   O2        1.0  0.00760  0.97257  0.89110  1.0000
  O   O3        1.0  0.49240  0.47257  0.60890  1.0000
  O   O4        1.0  0.50760  0.47257  0.89110  1.0000
  O   O5        1.0  0.00760  0.02743  0.39110  1.0000
  O   O6        1.0  0.99240  0.02743  0.10890  1.0000
  O   O7        1.0  0.50760  0.52743  0.39110  1.0000
  O   O8        1.0  0.49240  0.52743  0.10890  1.0000
  O   O9        1.0  0.79930  0.20202  0.48270  1.0000
  O   O10       1.0  0.20070  0.20202  0.01730  1.0000
  O   O11       1.0  0.29930  0.70202  0.48270  1.0000
  O   O12       1.0  0.70070  0.70202  0.01730  1.0000
  O   O13       1.0  0.20070  0.79798  0.51730  1.0000
  O   O14       1.0  0.79930  0.79798  0.98270  1.0000
  O   O15       1.0  0.70070  0.29798  0.51730  1.0000
  O   O16       1.0  0.29930  0.29798  0.98270  1.0000
  O   O17       1.0  0.79410  0.20535  0.58500  1.0000
  O   O18       1.0  0.20590  0.20535  0.91500  1.0000
  O   O19       1.0  0.29410  0.70535  0.58500  1.0000
  O   O20       1.0  0.70590  0.70535  0.91500  1.0000
  O   O21       1.0  0.20590  0.79465  0.41500  1.0000
  O   O22       1.0  0.79410  0.79465  0.08500  1.0000
  O   O23       1.0  0.70590  0.29465  0.41500  1.0000
  O   O24       1.0  0.29410  0.29465  0.08500  1.0000
  O   O25       1.0  0.27770  0.20300  0.60210  1.0000
  O   O26       1.0  0.72230  0.20300  0.89790  1.0000
  O   O27       1.0  0.77770  0.70300  0.60210  1.0000
  O   O28       1.0  0.22230  0.70300  0.89790  1.0000
  O   O29       1.0  0.72230  0.79700  0.39790  1.0000
  O   O30       1.0  0.27770  0.79700  0.10210  1.0000
  O   O31       1.0  0.22230  0.29700  0.39790  1.0000
  O   O32       1.0  0.77770  0.29700  0.10210  1.0000
  O   O33       1.0  0.56770  0.22960  0.40080  1.0000
  O   O34       1.0  0.43230  0.22960  0.09920  1.0000
  O   O35       1.0  0.06770  0.72960  0.40080  1.0000
  O   O36       1.0  0.93230  0.72960  0.09920  1.0000
  O   O37       1.0  0.43230  0.77040  0.59920  1.0000
  O   O38       1.0  0.56770  0.77040  0.90080  1.0000
  O   O39       1.0  0.93230  0.27040  0.59920  1.0000
  O   O40       1.0  0.06770  0.27040  0.90080  1.0000
  O   O41       1.0  0.62170  0.18280  0.47390  1.0000
  O   O42       1.0  0.37830  0.18280  0.02610  1.0000
  O   O43       1.0  0.12170  0.68280  0.47390  1.0000
  O   O44       1.0  0.87830  0.68280  0.02610  1.0000
  O   O45       1.0  0.37830  0.81720  0.52610  1.0000
  O   O46       1.0  0.62170  0.81720  0.97390  1.0000
  O   O47       1.0  0.87830  0.31720  0.52610  1.0000
  O   O48       1.0  0.12170  0.31720  0.97390  1.0000
  O   O49       1.0  0.65300  0.01470  0.11250  1.0000
  O   O50       1.0  0.34700  0.01470  0.38750  1.0000
  O   O51       1.0  0.15300  0.51470  0.11250  1.0000
  O   O52       1.0  0.84700  0.51470  0.38750  1.0000
  O   O53       1.0  0.34700  0.98530  0.88750  1.0000
  O   O54       1.0  0.65300  0.98530  0.61250  1.0000
  O   O55       1.0  0.84700  0.48530  0.88750  1.0000
  O   O56       1.0  0.15300  0.48530  0.61250  1.0000
  O   O57       1.0  0.81790  0.20950  0.32980  1.0000
  O   O58       1.0  0.18210  0.20950  0.17020  1.0000
  O   O59       1.0  0.31790  0.70950  0.32980  1.0000
  O   O60       1.0  0.68210  0.70950  0.17020  1.0000
  O   O61       1.0  0.18210  0.79050  0.67020  1.0000
  O   O62       1.0  0.81790  0.79050  0.82980  1.0000
  O   O63       1.0  0.68210  0.29050  0.67020  1.0000
  O   O64       1.0  0.31790  0.29050  0.82980  1.0000
  O   O65       1.0  0.70460  0.17950  0.34800  1.0000
  O   O66       1.0  0.29540  0.17950  0.15200  1.0000
  O   O67       1.0  0.20460  0.67950  0.34800  1.0000
  O   O68       1.0  0.79540  0.67950  0.15200  1.0000
  O   O69       1.0  0.29540  0.82050  0.65200  1.0000
  O   O70       1.0  0.70460  0.82050  0.84800  1.0000
  O   O71       1.0  0.79540  0.32050  0.65200  1.0000
  O   O72       1.0  0.20460  0.32050  0.84800  1.0000
  Zn  Zn1       1.0  0.70533  0.21700  0.42708  1.0000
  Zn  Zn2       1.0  0.29467  0.21700  0.07292  1.0000
  Zn  Zn3       1.0  0.20533  0.71700  0.42708  1.0000
  Zn  Zn4       1.0  0.79467  0.71700  0.07292  1.0000
  Zn  Zn5       1.0  0.29467  0.78300  0.57292  1.0000
  Zn  Zn6       1.0  0.70533  0.78300  0.92708  1.0000
  Zn  Zn7       1.0  0.79467  0.28300  0.57292  1.0000
  Zn  Zn8       1.0  0.20533  0.28300  0.92708  1.0000
