data_image0
_chemical_formula_structural       Zn4O2C2H2O6C2H2C2N2C2H2O2C2H2C2H2C2H2N2C4H2C2H2C2H2N2C2N2H4N2C2H2O2C12H2N2C2H2C2N2C2H2C2H2C4H2C6H2C2H2C6H2C4H2C2H2C4H2N2C2H2C2H2C2H2C4H2C4N2C2H2C2H2C2H2C2O2C2O2
_chemical_formula_sum              "Zn4 O16 C98 H60 N18"
_cell_length_a       15.5285
_cell_length_b       15.7542
_cell_length_c       15.8691
_cell_angle_alpha    107.604
_cell_angle_beta     109.573
_cell_angle_gamma    109.808

_space_group_name_H-M_alt    "P 1"
_space_group_IT_number       1

loop_
  _space_group_symop_operation_xyz
  'x, y, z'

loop_
  _atom_site_type_symbol
  _atom_site_label
  _atom_site_symmetry_multiplicity
  _atom_site_fract_x
  _atom_site_fract_y
  _atom_site_fract_z
  _atom_site_occupancy
  Zn  Zn1       1.0  0.04769  0.30589  0.92891  1.0000
  Zn  Zn2       1.0  0.95231  0.69411  0.07109  1.0000
  Zn  Zn3       1.0  0.40677  0.25939  0.88314  1.0000
  Zn  Zn4       1.0  0.59323  0.74061  0.11686  1.0000
  O   O1        1.0  0.53810  0.32480  0.00930  1.0000
  O   O2        1.0  0.46190  0.67520  0.99070  1.0000
  C   C1        1.0  0.31160  0.59180  0.30250  1.0000
  C   C2        1.0  0.68840  0.40820  0.69750  1.0000
  H   H1        1.0  0.32410  0.64100  0.28060  1.0000
  H   H2        1.0  0.67590  0.35900  0.71940  1.0000
  O   O3        1.0  0.92480  0.17210  0.85970  1.0000
  O   O4        1.0  0.07520  0.82790  0.14030  1.0000
  O   O5        1.0  0.02600  0.12990  0.95330  1.0000
  O   O6        1.0  0.97400  0.87010  0.04670  1.0000
  O   O7        1.0  0.19130  0.52430  0.09490  1.0000
  O   O8        1.0  0.80870  0.47570  0.90510  1.0000
  C   C3        1.0  0.37610  0.61790  0.40130  1.0000
  C   C4        1.0  0.62390  0.38210  0.59870  1.0000
  H   H3        1.0  0.43100  0.68450  0.44470  1.0000
  H   H4        1.0  0.56900  0.31550  0.55530  1.0000
  C   C5        1.0  0.22900  0.49410  0.23590  1.0000
  C   C6        1.0  0.77100  0.50590  0.76410  1.0000
  N   N1        1.0  0.99420  0.36640  0.83770  1.0000
  N   N2        1.0  0.00580  0.63360  0.16230  1.0000
  C   C7        1.0  0.07460  0.79530  0.58310  1.0000
  C   C8        1.0  0.92540  0.20470  0.41690  1.0000
  H   H5        1.0  0.01150  0.75920  0.52280  1.0000
  H   H6        1.0  0.98850  0.24080  0.47720  1.0000
  O   O9        1.0  0.43390  0.22970  0.04780  1.0000
  O   O10       1.0  0.56610  0.77030  0.95220  1.0000
  C   C9        1.0  0.21280  0.42370  0.27220  1.0000
  C   C10       1.0  0.78720  0.57630  0.72780  1.0000
  H   H7        1.0  0.15710  0.35750  0.22880  1.0000
  H   H8        1.0  0.84290  0.64250  0.77120  1.0000
  C   C11       1.0  0.86270  0.92950  0.86250  1.0000
  C   C12       1.0  0.13730  0.07050  0.13750  1.0000
  H   H9        1.0  0.92730  0.94590  0.91210  1.0000
  H   H10       1.0  0.07270  0.05410  0.08790  1.0000
  C   C13       1.0  0.27510  0.44790  0.36860  1.0000
  C   C14       1.0  0.72490  0.55210  0.63140  1.0000
  H   H11       1.0  0.26130  0.39860  0.39010  1.0000
  H   H12       1.0  0.73870  0.60140  0.60990  1.0000
  N   N3        1.0  0.45710  0.34320  0.81530  1.0000
  N   N4        1.0  0.54290  0.65680  0.18470  1.0000
  C   C15       1.0  0.95500  0.49880  0.63840  1.0000
  C   C16       1.0  0.04500  0.50120  0.36160  1.0000
  C   C17       1.0  0.70060  0.43780  0.21370  1.0000
  C   C18       1.0  0.29940  0.56220  0.78630  1.0000
  H   H13       1.0  0.70660  0.46790  0.17230  1.0000
  H   H14       1.0  0.29340  0.53210  0.82770  1.0000
  C   C19       1.0  0.13340  0.88950  0.61150  1.0000
  C   C20       1.0  0.86660  0.11050  0.38850  1.0000
  H   H15       1.0  0.11070  0.92060  0.57440  1.0000
  H   H16       1.0  0.88930  0.07940  0.42560  1.0000
  C   C21       1.0  0.77910  0.48350  0.31050  1.0000
  C   C22       1.0  0.22090  0.51650  0.68950  1.0000
  H   H17       1.0  0.83770  0.54520  0.33420  1.0000
  H   H18       1.0  0.16230  0.45480  0.66580  1.0000
  N   N5        1.0  0.93660  0.58790  0.51180  1.0000
  N   N6        1.0  0.06340  0.41210  0.48820  1.0000
  C   C23       1.0  0.77510  0.44180  0.37460  1.0000
  C   C24       1.0  0.22490  0.55820  0.62540  1.0000
  N   N7        1.0  0.23440  0.22310  0.98290  1.0000
  N   N8        1.0  0.76560  0.77690  0.01710  1.0000
  H   H19       1.0  0.28250  0.20670  0.00090  1.0000
  H   H20       1.0  0.71750  0.79330  0.99910  1.0000
  H   H21       1.0  0.18560  0.20590  0.99880  1.0000
  H   H22       1.0  0.81440  0.79410  0.00120  1.0000
  N   N9        1.0  0.52100  0.66910  0.59220  1.0000
  N   N10       1.0  0.47900  0.33090  0.40780  1.0000
  C   C25       1.0  0.77900  0.83250  0.81490  1.0000
  C   C26       1.0  0.22100  0.16750  0.18510  1.0000
  H   H23       1.0  0.78750  0.78490  0.83490  1.0000
  H   H24       1.0  0.21250  0.21510  0.16510  1.0000
  O   O11       1.0  0.09200  0.37290  0.07130  1.0000
  O   O12       1.0  0.90800  0.62710  0.92870  1.0000
  C   C27       1.0  0.61030  0.34520  0.17590  1.0000
  C   C28       1.0  0.38970  0.65480  0.82410  1.0000
  C   C29       1.0  0.36090  0.54710  0.43680  1.0000
  C   C30       1.0  0.63910  0.45290  0.56320  1.0000
  C   C31       1.0  0.09870  0.74300  0.63630  1.0000
  C   C32       1.0  0.90130  0.25700  0.36370  1.0000
  C   C33       1.0  0.48670  0.47060  0.72610  1.0000
  C   C34       1.0  0.51330  0.52940  0.27390  1.0000
  C   C35       1.0  0.68290  0.80360  0.73840  1.0000
  C   C36       1.0  0.31710  0.19640  0.26160  1.0000
  C   C37       1.0  0.58460  0.63560  0.73040  1.0000
  C   C38       1.0  0.41540  0.36440  0.26960  1.0000
  H   H25       1.0  0.63570  0.65900  0.79600  1.0000
  H   H26       1.0  0.36430  0.34100  0.20400  1.0000
  N   N11       1.0  0.20510  0.37160  0.86680  1.0000
  N   N12       1.0  0.79490  0.62840  0.13320  1.0000
  C   C39       1.0  0.19770  0.79330  0.71850  1.0000
  C   C40       1.0  0.80230  0.20670  0.28150  1.0000
  H   H27       1.0  0.22000  0.76020  0.75330  1.0000
  H   H28       1.0  0.78000  0.23980  0.24670  1.0000
  C   C41       1.0  0.49900  0.53810  0.67800  1.0000
  C   C42       1.0  0.50100  0.46190  0.32200  1.0000
  N   N13       1.0  0.28530  0.36770  0.86250  1.0000
  N   N14       1.0  0.71470  0.63230  0.13750  1.0000
  C   C43       1.0  0.60430  0.30300  0.23970  1.0000
  C   C44       1.0  0.39570  0.69700  0.76030  1.0000
  H   H29       1.0  0.54490  0.24210  0.21640  1.0000
  H   H30       1.0  0.45510  0.75790  0.78360  1.0000
  C   C45       1.0  0.68510  0.34960  0.33770  1.0000
  C   C46       1.0  0.31490  0.65040  0.66230  1.0000
  H   H31       1.0  0.67970  0.31970  0.37940  1.0000
  H   H32       1.0  0.32030  0.68030  0.62060  1.0000
  C   C47       1.0  0.59380  0.69830  0.68470  1.0000
  C   C48       1.0  0.40620  0.30170  0.31530  1.0000
  C   C49       1.0  0.75320  0.97420  0.75950  1.0000
  C   C50       1.0  0.24680  0.02580  0.24050  1.0000
  H   H33       1.0  0.74400  0.02170  0.73970  1.0000
  H   H34       1.0  0.25600  0.97830  0.26030  1.0000
  C   C51       1.0  0.96600  0.45210  0.70790  1.0000
  C   C52       1.0  0.03400  0.54790  0.29210  1.0000
  C   C53       1.0  0.86390  0.49430  0.48060  1.0000
  C   C54       1.0  0.13610  0.50570  0.51940  1.0000
  C   C55       1.0  0.53660  0.50790  0.82960  1.0000
  C   C56       1.0  0.46340  0.49210  0.17040  1.0000
  H   H35       1.0  0.58180  0.57760  0.87190  1.0000
  H   H36       1.0  0.41820  0.42240  0.12810  1.0000
  C   C57       1.0  0.67240  0.87940  0.71330  1.0000
  C   C58       1.0  0.32760  0.12060  0.28670  1.0000
  H   H37       1.0  0.60800  0.86330  0.66360  1.0000
  H   H38       1.0  0.39200  0.13670  0.33640  1.0000
  C   C59       1.0  0.23520  0.94750  0.70160  1.0000
  C   C60       1.0  0.76480  0.05250  0.29840  1.0000
  C   C61       1.0  0.16720  0.46280  0.12500  1.0000
  C   C62       1.0  0.83280  0.53720  0.87500  1.0000
  C   C63       1.0  0.86920  0.44630  0.54210  1.0000
  C   C64       1.0  0.13080  0.55370  0.45790  1.0000
  H   H39       1.0  0.81650  0.38080  0.51880  1.0000
  H   H40       1.0  0.18350  0.61920  0.48120  1.0000
  C   C65       1.0  0.85030  0.00360  0.83590  1.0000
  C   C66       1.0  0.14970  0.99640  0.16410  1.0000
  C   C67       1.0  0.42370  0.36520  0.66870  1.0000
  C   C68       1.0  0.57630  0.63480  0.33130  1.0000
  H   H41       1.0  0.39000  0.33550  0.59840  1.0000
  H   H42       1.0  0.61000  0.66450  0.40160  1.0000
  C   C69       1.0  0.93260  0.34920  0.67220  1.0000
  C   C70       1.0  0.06740  0.65080  0.32780  1.0000
  H   H43       1.0  0.89950  0.30620  0.60300  1.0000
  H   H44       1.0  0.10050  0.69380  0.39700  1.0000
  C   C71       1.0  0.43670  0.57430  0.53990  1.0000
  C   C72       1.0  0.56330  0.42570  0.46010  1.0000
  C   C73       1.0  0.51960  0.44220  0.87060  1.0000
  C   C74       1.0  0.48040  0.55780  0.12940  1.0000
  H   H45       1.0  0.55400  0.46930  0.94070  1.0000
  H   H46       1.0  0.44600  0.53070  0.05930  1.0000
  N   N15       1.0  0.30560  0.30530  0.90190  1.0000
  N   N16       1.0  0.69440  0.69470  0.09810  1.0000
  C   C75       1.0  0.01190  0.50800  0.80990  1.0000
  C   C76       1.0  0.98810  0.49200  0.19010  1.0000
  H   H47       1.0  0.03470  0.57780  0.83770  1.0000
  H   H48       1.0  0.96530  0.42220  0.16230  1.0000
  C   C77       1.0  0.02570  0.46570  0.87250  1.0000
  C   C78       1.0  0.97430  0.53430  0.12750  1.0000
  H   H49       1.0  0.05810  0.50730  0.94200  1.0000
  H   H50       1.0  0.94190  0.49270  0.05800  1.0000
  C   C79       1.0  0.02920  0.59500  0.67010  1.0000
  C   C80       1.0  0.97080  0.40500  0.32990  1.0000
  H   H51       1.0  0.08610  0.63180  0.73530  1.0000
  H   H52       1.0  0.91390  0.36820  0.26470  1.0000
  C   C81       1.0  0.52150  0.29650  0.07200  1.0000
  C   C82       1.0  0.47850  0.70350  0.92800  1.0000
  C   C83       1.0  0.42430  0.50810  0.58090  1.0000
  C   C84       1.0  0.57570  0.49190  0.41910  1.0000
  H   H53       1.0  0.36580  0.44330  0.54350  1.0000
  H   H54       1.0  0.63420  0.55670  0.45650  1.0000
  C   C85       1.0  0.94150  0.10790  0.88700  1.0000
  C   C86       1.0  0.05850  0.89210  0.11300  1.0000
  C   C87       1.0  0.02070  0.63900  0.60570  1.0000
  C   C88       1.0  0.97930  0.36100  0.39430  1.0000
  N   N17       1.0  0.17070  0.31360  0.90920  1.0000
  N   N18       1.0  0.82930  0.68640  0.09080  1.0000
  C   C89       1.0  0.26520  0.89770  0.74900  1.0000
  C   C90       1.0  0.73480  0.10230  0.25100  1.0000
  H   H55       1.0  0.33240  0.93190  0.80390  1.0000
  H   H56       1.0  0.66760  0.06810  0.19610  1.0000
  C   C91       1.0  0.94850  0.31090  0.73890  1.0000
  C   C92       1.0  0.05150  0.68910  0.26110  1.0000
  H   H57       1.0  0.92570  0.24120  0.71300  1.0000
  H   H58       1.0  0.07430  0.75880  0.28700  1.0000
  C   C93       1.0  0.41110  0.30570  0.71430  1.0000
  C   C94       1.0  0.58890  0.69430  0.28570  1.0000
  H   H59       1.0  0.36850  0.23540  0.67380  1.0000
  H   H60       1.0  0.63150  0.76460  0.32620  1.0000
  C   C95       1.0  0.23520  0.27520  0.93020  1.0000
  C   C96       1.0  0.76480  0.72480  0.06980  1.0000
  O   O13       1.0  0.37860  0.10530  0.81710  1.0000
  O   O14       1.0  0.62140  0.89470  0.18290  1.0000
  C   C97       1.0  0.29140  0.05120  0.73290  1.0000
  C   C98       1.0  0.70860  0.94880  0.26710  1.0000
  O   O15       1.0  0.26030  0.09890  0.68730  1.0000
  O   O16       1.0  0.73970  0.90110  0.31270  1.0000
