data_image0
_chemical_formula_structural       I24Cu28N32C8H4N4H4C4H4C8H12C4H12N4H4
_chemical_formula_sum              "I24 Cu28 N40 C24 H40"
_cell_length_a       14.8451
_cell_length_b       14.8451
_cell_length_c       12.2127
_cell_angle_alpha    90
_cell_angle_beta     90
_cell_angle_gamma    90

_space_group_name_H-M_alt    "P 1"
_space_group_IT_number       1

loop_
  _space_group_symop_operation_xyz
  'x, y, z'

loop_
  _atom_site_type_symbol
  _atom_site_label
  _atom_site_symmetry_multiplicity
  _atom_site_fract_x
  _atom_site_fract_y
  _atom_site_fract_z
  _atom_site_occupancy
  I   I1        1.0  0.90304  0.69372  0.52374  1.0000
  I   I2        1.0  0.09696  0.30628  0.52374  1.0000
  I   I3        1.0  0.30628  0.90304  0.02374  1.0000
  I   I4        1.0  0.69372  0.09696  0.02374  1.0000
  I   I5        1.0  0.92634  0.64244  0.15545  1.0000
  I   I6        1.0  0.07366  0.35756  0.15545  1.0000
  I   I7        1.0  0.35756  0.92634  0.65545  1.0000
  I   I8        1.0  0.64244  0.07366  0.65545  1.0000
  I   I9        1.0  0.69406  0.61369  0.77072  1.0000
  I   I10       1.0  0.30594  0.38631  0.77072  1.0000
  I   I11       1.0  0.38631  0.69406  0.27072  1.0000
  I   I12       1.0  0.61369  0.30594  0.27072  1.0000
  I   I13       1.0  0.80938  0.88428  0.29805  1.0000
  I   I14       1.0  0.19062  0.11572  0.29805  1.0000
  I   I15       1.0  0.11572  0.80938  0.79805  1.0000
  I   I16       1.0  0.88428  0.19062  0.79805  1.0000
  I   I17       1.0  0.59816  0.80493  0.53353  1.0000
  I   I18       1.0  0.40184  0.19507  0.53353  1.0000
  I   I19       1.0  0.19507  0.59816  0.03353  1.0000
  I   I20       1.0  0.80493  0.40184  0.03353  1.0000
  I   I21       1.0  0.56385  0.86294  0.88203  1.0000
  I   I22       1.0  0.43615  0.13706  0.88203  1.0000
  I   I23       1.0  0.13706  0.56385  0.38203  1.0000
  I   I24       1.0  0.86294  0.43615  0.38203  1.0000
  Cu  Cu1       1.0  0.50000  0.50000  0.21990  1.0000
  Cu  Cu2       1.0  0.50000  0.50000  0.71990  1.0000
  Cu  Cu3       1.0  0.00000  0.00000  0.84400  1.0000
  Cu  Cu4       1.0  0.00000  0.00000  0.34400  1.0000
  Cu  Cu5       1.0  0.82560  0.70760  0.32360  1.0000
  Cu  Cu6       1.0  0.17440  0.29240  0.32360  1.0000
  Cu  Cu7       1.0  0.29240  0.82560  0.82360  1.0000
  Cu  Cu8       1.0  0.70760  0.17440  0.82360  1.0000
  Cu  Cu9       1.0  0.67660  0.78710  0.73430  1.0000
  Cu  Cu10      1.0  0.32340  0.21290  0.73430  1.0000
  Cu  Cu11      1.0  0.21290  0.67660  0.23430  1.0000
  Cu  Cu12      1.0  0.78710  0.32340  0.23430  1.0000
  Cu  Cu13      1.0  0.76630  0.84480  0.49100  1.0000
  Cu  Cu14      1.0  0.23370  0.15520  0.49100  1.0000
  Cu  Cu15      1.0  0.15520  0.76630  0.99100  1.0000
  Cu  Cu16      1.0  0.84480  0.23370  0.99100  1.0000
  Cu  Cu17      1.0  0.73340  0.65630  0.57480  1.0000
  Cu  Cu18      1.0  0.26660  0.34370  0.57480  1.0000
  Cu  Cu19      1.0  0.34370  0.73340  0.07480  1.0000
  Cu  Cu20      1.0  0.65630  0.26660  0.07480  1.0000
  Cu  Cu21      1.0  0.07630  0.53930  0.18220  1.0000
  Cu  Cu22      1.0  0.92370  0.46070  0.18220  1.0000
  Cu  Cu23      1.0  0.46070  0.07630  0.68220  1.0000
  Cu  Cu24      1.0  0.53930  0.92370  0.68220  1.0000
  Cu  Cu25      1.0  0.96160  0.58590  0.35770  1.0000
  Cu  Cu26      1.0  0.03840  0.41410  0.35770  1.0000
  Cu  Cu27      1.0  0.41410  0.96160  0.85770  1.0000
  Cu  Cu28      1.0  0.58590  0.03840  0.85770  1.0000
  N   N1        1.0  0.91360  0.94380  0.74710  1.0000
  N   N2        1.0  0.08640  0.05620  0.74710  1.0000
  N   N3        1.0  0.05620  0.91360  0.24710  1.0000
  N   N4        1.0  0.94380  0.08640  0.24710  1.0000
  N   N5        1.0  0.59230  0.55060  0.31880  1.0000
  N   N6        1.0  0.40770  0.44940  0.31880  1.0000
  N   N7        1.0  0.44940  0.59230  0.81880  1.0000
  N   N8        1.0  0.55060  0.40770  0.81880  1.0000
  N   N9        1.0  0.88840  0.94870  0.64090  1.0000
  N   N10       1.0  0.11160  0.05130  0.64090  1.0000
  N   N11       1.0  0.05130  0.88840  0.14090  1.0000
  N   N12       1.0  0.94870  0.11160  0.14090  1.0000
  N   N13       1.0  0.61170  0.55260  0.42590  1.0000
  N   N14       1.0  0.38830  0.44740  0.42590  1.0000
  N   N15       1.0  0.44740  0.61170  0.92590  1.0000
  N   N16       1.0  0.55260  0.38830  0.92590  1.0000
  N   N17       1.0  0.71390  0.63150  0.33920  1.0000
  N   N18       1.0  0.28610  0.36850  0.33920  1.0000
  N   N19       1.0  0.36850  0.71390  0.83920  1.0000
  N   N20       1.0  0.63150  0.28610  0.83920  1.0000
  N   N21       1.0  0.79230  0.85810  0.72770  1.0000
  N   N22       1.0  0.20770  0.14190  0.72770  1.0000
  N   N23       1.0  0.14190  0.79230  0.22770  1.0000
  N   N24       1.0  0.85810  0.20770  0.22770  1.0000
  N   N25       1.0  0.68220  0.60240  0.43410  1.0000
  N   N26       1.0  0.31780  0.39760  0.43410  1.0000
  N   N27       1.0  0.39760  0.68220  0.93410  1.0000
  N   N28       1.0  0.60240  0.31780  0.93410  1.0000
  N   N29       1.0  0.81730  0.89760  0.62990  1.0000
  N   N30       1.0  0.18270  0.10240  0.62990  1.0000
  N   N31       1.0  0.10240  0.81730  0.12990  1.0000
  N   N32       1.0  0.89760  0.18270  0.12990  1.0000
  C   C1        1.0  0.85390  0.88800  0.79630  1.0000
  C   C2        1.0  0.14610  0.11200  0.79630  1.0000
  C   C3        1.0  0.11200  0.85390  0.29630  1.0000
  C   C4        1.0  0.88800  0.14610  0.29630  1.0000
  C   C5        1.0  0.65600  0.60590  0.14480  1.0000
  C   C6        1.0  0.34400  0.39410  0.14480  1.0000
  C   C7        1.0  0.39410  0.65600  0.64480  1.0000
  C   C8        1.0  0.60590  0.34400  0.64480  1.0000
  H   H1        1.0  0.71570  0.59070  0.11610  1.0000
  H   H2        1.0  0.28430  0.40930  0.11610  1.0000
  H   H3        1.0  0.40930  0.71570  0.61610  1.0000
  H   H4        1.0  0.59070  0.28430  0.61610  1.0000
  N   N33       1.0  0.92380  0.94350  0.95640  1.0000
  N   N34       1.0  0.07620  0.05650  0.95640  1.0000
  N   N35       1.0  0.05650  0.92380  0.45640  1.0000
  N   N36       1.0  0.94350  0.07620  0.45640  1.0000
  H   H5        1.0  0.91920  0.96230  0.02280  1.0000
  H   H6        1.0  0.08080  0.03770  0.02280  1.0000
  H   H7        1.0  0.03770  0.91920  0.52280  1.0000
  H   H8        1.0  0.96230  0.08080  0.52280  1.0000
  C   C9        1.0  0.87390  0.86260  0.91080  1.0000
  C   C10       1.0  0.12610  0.13740  0.91080  1.0000
  C   C11       1.0  0.13740  0.87390  0.41080  1.0000
  C   C12       1.0  0.86260  0.12610  0.41080  1.0000
  H   H9        1.0  0.91660  0.81220  0.90860  1.0000
  H   H10       1.0  0.08340  0.18780  0.90860  1.0000
  H   H11       1.0  0.18780  0.91660  0.40860  1.0000
  H   H12       1.0  0.81220  0.08340  0.40860  1.0000
  C   C13       1.0  0.65650  0.59740  0.26650  1.0000
  C   C14       1.0  0.34350  0.40260  0.26650  1.0000
  C   C15       1.0  0.40260  0.65650  0.76650  1.0000
  C   C16       1.0  0.59740  0.34350  0.76650  1.0000
  C   C17       1.0  0.79380  0.83280  0.97910  1.0000
  C   C18       1.0  0.20620  0.16720  0.97910  1.0000
  C   C19       1.0  0.16720  0.79380  0.47910  1.0000
  C   C20       1.0  0.83280  0.20620  0.47910  1.0000
  H   H13       1.0  0.81370  0.81780  0.05170  1.0000
  H   H14       1.0  0.18630  0.18220  0.05170  1.0000
  H   H15       1.0  0.18220  0.81370  0.55170  1.0000
  H   H16       1.0  0.81780  0.18630  0.55170  1.0000
  H   H17       1.0  0.75060  0.88080  0.98290  1.0000
  H   H18       1.0  0.24940  0.11920  0.98290  1.0000
  H   H19       1.0  0.11920  0.75060  0.48290  1.0000
  H   H20       1.0  0.88080  0.24940  0.48290  1.0000
  H   H21       1.0  0.76640  0.78090  0.94600  1.0000
  H   H22       1.0  0.23360  0.21910  0.94600  1.0000
  H   H23       1.0  0.21910  0.76640  0.44600  1.0000
  H   H24       1.0  0.78090  0.23360  0.44600  1.0000
  C   C21       1.0  0.63210  0.70030  0.11180  1.0000
  C   C22       1.0  0.36790  0.29970  0.11180  1.0000
  C   C23       1.0  0.29970  0.63210  0.61180  1.0000
  C   C24       1.0  0.70030  0.36790  0.61180  1.0000
  H   H25       1.0  0.67660  0.74130  0.13950  1.0000
  H   H26       1.0  0.32340  0.25870  0.13950  1.0000
  H   H27       1.0  0.25870  0.67660  0.63950  1.0000
  H   H28       1.0  0.74130  0.32340  0.63950  1.0000
  H   H29       1.0  0.63020  0.70440  0.03330  1.0000
  H   H30       1.0  0.36980  0.29560  0.03330  1.0000
  H   H31       1.0  0.29560  0.63020  0.53330  1.0000
  H   H32       1.0  0.70440  0.36980  0.53330  1.0000
  H   H33       1.0  0.57420  0.71570  0.14130  1.0000
  H   H34       1.0  0.42580  0.28430  0.14130  1.0000
  H   H35       1.0  0.28430  0.57420  0.64130  1.0000
  H   H36       1.0  0.71570  0.42580  0.64130  1.0000
  N   N37       1.0  0.59020  0.54080  0.10450  1.0000
  N   N38       1.0  0.40980  0.45920  0.10450  1.0000
  N   N39       1.0  0.45920  0.59020  0.60450  1.0000
  N   N40       1.0  0.54080  0.40980  0.60450  1.0000
  H   H37       1.0  0.58960  0.52140  0.03820  1.0000
  H   H38       1.0  0.41040  0.47860  0.03820  1.0000
  H   H39       1.0  0.47860  0.58960  0.53820  1.0000
  H   H40       1.0  0.52140  0.41040  0.53820  1.0000
