data_image0
_chemical_formula_structural       Zn12F32N24C8H8C8H8C16H8C8H8C8H8C8H8C16H8C8H8C8H8C8H8C16H8C8H8
_chemical_formula_sum              "Zn12 F32 N24 C120 H96"
_cell_length_a       10.736
_cell_length_b       25.075
_cell_length_c       22.813
_cell_angle_alpha    90
_cell_angle_beta     97.079
_cell_angle_gamma    90

_space_group_name_H-M_alt    "P 1"
_space_group_IT_number       1

loop_
  _space_group_symop_operation_xyz
  'x, y, z'

loop_
  _atom_site_type_symbol
  _atom_site_label
  _atom_site_symmetry_multiplicity
  _atom_site_fract_x
  _atom_site_fract_y
  _atom_site_fract_z
  _atom_site_occupancy
  Zn  Zn1       1.0  0.60759  0.22946  0.49897  1.0000
  Zn  Zn2       1.0  0.39241  0.22946  0.00103  1.0000
  Zn  Zn3       1.0  0.10759  0.72946  0.49897  1.0000
  Zn  Zn4       1.0  0.89241  0.72946  0.00103  1.0000
  Zn  Zn5       1.0  0.39241  0.77054  0.50103  1.0000
  Zn  Zn6       1.0  0.60759  0.77054  0.99897  1.0000
  Zn  Zn7       1.0  0.89241  0.27054  0.50103  1.0000
  Zn  Zn8       1.0  0.10759  0.27054  0.99897  1.0000
  Zn  Zn9       1.0  0.25000  0.25000  0.50000  1.0000
  Zn  Zn10      1.0  0.75000  0.25000  0.00000  1.0000
  Zn  Zn11      1.0  0.75000  0.75000  0.50000  1.0000
  Zn  Zn12      1.0  0.25000  0.75000  0.00000  1.0000
  F   F1        1.0  0.78580  0.19920  0.49970  1.0000
  F   F2        1.0  0.21420  0.19920  0.00030  1.0000
  F   F3        1.0  0.28580  0.69920  0.49970  1.0000
  F   F4        1.0  0.71420  0.69920  0.00030  1.0000
  F   F5        1.0  0.21420  0.80080  0.50030  1.0000
  F   F6        1.0  0.78580  0.80080  0.99970  1.0000
  F   F7        1.0  0.71420  0.30080  0.50030  1.0000
  F   F8        1.0  0.28580  0.30080  0.99970  1.0000
  F   F9        1.0  0.44160  0.26630  0.49910  1.0000
  F   F10       1.0  0.55840  0.26630  0.00090  1.0000
  F   F11       1.0  0.94160  0.76630  0.49910  1.0000
  F   F12       1.0  0.05840  0.76630  0.00090  1.0000
  F   F13       1.0  0.55840  0.73370  0.50090  1.0000
  F   F14       1.0  0.44160  0.73370  0.99910  1.0000
  F   F15       1.0  0.05840  0.23370  0.50090  1.0000
  F   F16       1.0  0.94160  0.23370  0.99910  1.0000
  F   F17       1.0  0.29130  0.17100  0.49360  1.0000
  F   F18       1.0  0.70870  0.17100  0.00640  1.0000
  F   F19       1.0  0.79130  0.67100  0.49360  1.0000
  F   F20       1.0  0.20870  0.67100  0.00640  1.0000
  F   F21       1.0  0.70870  0.82900  0.50640  1.0000
  F   F22       1.0  0.29130  0.82900  0.99360  1.0000
  F   F23       1.0  0.20870  0.32900  0.50640  1.0000
  F   F24       1.0  0.79130  0.32900  0.99360  1.0000
  F   F25       1.0  0.52020  0.15320  0.49560  1.0000
  F   F26       1.0  0.47980  0.15320  0.00440  1.0000
  F   F27       1.0  0.02020  0.65320  0.49560  1.0000
  F   F28       1.0  0.97980  0.65320  0.00440  1.0000
  F   F29       1.0  0.47980  0.84680  0.50440  1.0000
  F   F30       1.0  0.52020  0.84680  0.99560  1.0000
  F   F31       1.0  0.97980  0.34680  0.50440  1.0000
  F   F32       1.0  0.02020  0.34680  0.99560  1.0000
  N   N1        1.0  0.57830  0.23120  0.40540  1.0000
  N   N2        1.0  0.42170  0.23120  0.09460  1.0000
  N   N3        1.0  0.07830  0.73120  0.40540  1.0000
  N   N4        1.0  0.92170  0.73120  0.09460  1.0000
  N   N5        1.0  0.42170  0.76880  0.59460  1.0000
  N   N6        1.0  0.57830  0.76880  0.90540  1.0000
  N   N7        1.0  0.92170  0.26880  0.59460  1.0000
  N   N8        1.0  0.07830  0.26880  0.90540  1.0000
  N   N9        1.0  0.62050  0.23090  0.59210  1.0000
  N   N10       1.0  0.37950  0.23090  0.90790  1.0000
  N   N11       1.0  0.12050  0.73090  0.59210  1.0000
  N   N12       1.0  0.87950  0.73090  0.90790  1.0000
  N   N13       1.0  0.37950  0.76910  0.40790  1.0000
  N   N14       1.0  0.62050  0.76910  0.09210  1.0000
  N   N15       1.0  0.87950  0.26910  0.40790  1.0000
  N   N16       1.0  0.12050  0.26910  0.09210  1.0000
  N   N17       1.0  0.72250  0.24500  0.90570  1.0000
  N   N18       1.0  0.27750  0.24500  0.59430  1.0000
  N   N19       1.0  0.22250  0.74500  0.90570  1.0000
  N   N20       1.0  0.77750  0.74500  0.59430  1.0000
  N   N21       1.0  0.27750  0.75500  0.09430  1.0000
  N   N22       1.0  0.72250  0.75500  0.40570  1.0000
  N   N23       1.0  0.77750  0.25500  0.09430  1.0000
  N   N24       1.0  0.22250  0.25500  0.40570  1.0000
  C   C1        1.0  0.53470  0.27520  0.37640  1.0000
  C   C2        1.0  0.46530  0.27520  0.12360  1.0000
  C   C3        1.0  0.03470  0.77520  0.37640  1.0000
  C   C4        1.0  0.96530  0.77520  0.12360  1.0000
  C   C5        1.0  0.46530  0.72480  0.62360  1.0000
  C   C6        1.0  0.53470  0.72480  0.87640  1.0000
  C   C7        1.0  0.96530  0.22480  0.62360  1.0000
  C   C8        1.0  0.03470  0.22480  0.87640  1.0000
  H   H1        1.0  0.52350  0.30570  0.39830  1.0000
  H   H2        1.0  0.47650  0.30570  0.10170  1.0000
  H   H3        1.0  0.02350  0.80570  0.39830  1.0000
  H   H4        1.0  0.97650  0.80570  0.10170  1.0000
  H   H5        1.0  0.47650  0.69430  0.60170  1.0000
  H   H6        1.0  0.52350  0.69430  0.89830  1.0000
  H   H7        1.0  0.97650  0.19430  0.60170  1.0000
  H   H8        1.0  0.02350  0.19430  0.89830  1.0000
  C   C9        1.0  0.50590  0.27740  0.31650  1.0000
  C   C10       1.0  0.49410  0.27740  0.18350  1.0000
  C   C11       1.0  0.00590  0.77740  0.31650  1.0000
  C   C12       1.0  0.99410  0.77740  0.18350  1.0000
  C   C13       1.0  0.49410  0.72260  0.68350  1.0000
  C   C14       1.0  0.50590  0.72260  0.81650  1.0000
  C   C15       1.0  0.99410  0.22260  0.68350  1.0000
  C   C16       1.0  0.00590  0.22260  0.81650  1.0000
  H   H9        1.0  0.47870  0.30940  0.29870  1.0000
  H   H10       1.0  0.52130  0.30940  0.20130  1.0000
  H   H11       1.0  0.97870  0.80940  0.29870  1.0000
  H   H12       1.0  0.02130  0.80940  0.20130  1.0000
  H   H13       1.0  0.52130  0.69060  0.70130  1.0000
  H   H14       1.0  0.47870  0.69060  0.79870  1.0000
  H   H15       1.0  0.02130  0.19060  0.70130  1.0000
  H   H16       1.0  0.97870  0.19060  0.79870  1.0000
  C   C17       1.0  0.51670  0.23190  0.28110  1.0000
  C   C18       1.0  0.48330  0.23190  0.21890  1.0000
  C   C19       1.0  0.01670  0.73190  0.28110  1.0000
  C   C20       1.0  0.98330  0.73190  0.21890  1.0000
  C   C21       1.0  0.48330  0.76810  0.71890  1.0000
  C   C22       1.0  0.51670  0.76810  0.78110  1.0000
  C   C23       1.0  0.98330  0.26810  0.71890  1.0000
  C   C24       1.0  0.01670  0.26810  0.78110  1.0000
  C   C25       1.0  0.56440  0.18680  0.31210  1.0000
  C   C26       1.0  0.43560  0.18680  0.18790  1.0000
  C   C27       1.0  0.06440  0.68680  0.31210  1.0000
  C   C28       1.0  0.93560  0.68680  0.18790  1.0000
  C   C29       1.0  0.43560  0.81320  0.68790  1.0000
  C   C30       1.0  0.56440  0.81320  0.81210  1.0000
  C   C31       1.0  0.93560  0.31320  0.68790  1.0000
  C   C32       1.0  0.06440  0.31320  0.81210  1.0000
  H   H17       1.0  0.57760  0.15580  0.29130  1.0000
  H   H18       1.0  0.42240  0.15580  0.20870  1.0000
  H   H19       1.0  0.07760  0.65580  0.29130  1.0000
  H   H20       1.0  0.92240  0.65580  0.20870  1.0000
  H   H21       1.0  0.42240  0.84420  0.70870  1.0000
  H   H22       1.0  0.57760  0.84420  0.79130  1.0000
  H   H23       1.0  0.92240  0.34420  0.70870  1.0000
  H   H24       1.0  0.07760  0.34420  0.79130  1.0000
  C   C33       1.0  0.59230  0.18730  0.37220  1.0000
  C   C34       1.0  0.40770  0.18730  0.12780  1.0000
  C   C35       1.0  0.09230  0.68730  0.37220  1.0000
  C   C36       1.0  0.90770  0.68730  0.12780  1.0000
  C   C37       1.0  0.40770  0.81270  0.62780  1.0000
  C   C38       1.0  0.59230  0.81270  0.87220  1.0000
  C   C39       1.0  0.90770  0.31270  0.62780  1.0000
  C   C40       1.0  0.09230  0.31270  0.87220  1.0000
  H   H25       1.0  0.62220  0.15620  0.39110  1.0000
  H   H26       1.0  0.37780  0.15620  0.10890  1.0000
  H   H27       1.0  0.12220  0.65620  0.39110  1.0000
  H   H28       1.0  0.87780  0.65620  0.10890  1.0000
  H   H29       1.0  0.37780  0.84380  0.60890  1.0000
  H   H30       1.0  0.62220  0.84380  0.89110  1.0000
  H   H31       1.0  0.87780  0.34380  0.60890  1.0000
  H   H32       1.0  0.12220  0.34380  0.89110  1.0000
  C   C41       1.0  0.66370  0.18790  0.62570  1.0000
  C   C42       1.0  0.33630  0.18790  0.87430  1.0000
  C   C43       1.0  0.16370  0.68790  0.62570  1.0000
  C   C44       1.0  0.83630  0.68790  0.87430  1.0000
  C   C45       1.0  0.33630  0.81210  0.37430  1.0000
  C   C46       1.0  0.66370  0.81210  0.12570  1.0000
  C   C47       1.0  0.83630  0.31210  0.37430  1.0000
  C   C48       1.0  0.16370  0.31210  0.12570  1.0000
  H   H33       1.0  0.68540  0.15700  0.60670  1.0000
  H   H34       1.0  0.31460  0.15700  0.89330  1.0000
  H   H35       1.0  0.18540  0.65700  0.60670  1.0000
  H   H36       1.0  0.81460  0.65700  0.89330  1.0000
  H   H37       1.0  0.31460  0.84300  0.39330  1.0000
  H   H38       1.0  0.68540  0.84300  0.10670  1.0000
  H   H39       1.0  0.81460  0.34300  0.39330  1.0000
  H   H40       1.0  0.18540  0.34300  0.10670  1.0000
  C   C49       1.0  0.67610  0.18840  0.68550  1.0000
  C   C50       1.0  0.32390  0.18840  0.81450  1.0000
  C   C51       1.0  0.17610  0.68840  0.68550  1.0000
  C   C52       1.0  0.82390  0.68840  0.81450  1.0000
  C   C53       1.0  0.32390  0.81160  0.31450  1.0000
  C   C54       1.0  0.67610  0.81160  0.18550  1.0000
  C   C55       1.0  0.82390  0.31160  0.31450  1.0000
  C   C56       1.0  0.17610  0.31160  0.18550  1.0000
  H   H41       1.0  0.69720  0.15720  0.70640  1.0000
  H   H42       1.0  0.30280  0.15720  0.79360  1.0000
  H   H43       1.0  0.19720  0.65720  0.70640  1.0000
  H   H44       1.0  0.80280  0.65720  0.79360  1.0000
  H   H45       1.0  0.30280  0.84280  0.29360  1.0000
  H   H46       1.0  0.69720  0.84280  0.20640  1.0000
  H   H47       1.0  0.80280  0.34280  0.29360  1.0000
  H   H48       1.0  0.19720  0.34280  0.20640  1.0000
  C   C57       1.0  0.65690  0.23650  0.71660  1.0000
  C   C58       1.0  0.34310  0.23650  0.78340  1.0000
  C   C59       1.0  0.15690  0.73650  0.71660  1.0000
  C   C60       1.0  0.84310  0.73650  0.78340  1.0000
  C   C61       1.0  0.34310  0.76350  0.28340  1.0000
  C   C62       1.0  0.65690  0.76350  0.21660  1.0000
  C   C63       1.0  0.84310  0.26350  0.28340  1.0000
  C   C64       1.0  0.15690  0.26350  0.21660  1.0000
  C   C65       1.0  0.61690  0.27990  0.68180  1.0000
  C   C66       1.0  0.38310  0.27990  0.81820  1.0000
  C   C67       1.0  0.11690  0.77990  0.68180  1.0000
  C   C68       1.0  0.88310  0.77990  0.81820  1.0000
  C   C69       1.0  0.38310  0.72010  0.31820  1.0000
  C   C70       1.0  0.61690  0.72010  0.18180  1.0000
  C   C71       1.0  0.88310  0.22010  0.31820  1.0000
  C   C72       1.0  0.11690  0.22010  0.18180  1.0000
  H   H49       1.0  0.60150  0.31230  0.69940  1.0000
  H   H50       1.0  0.39850  0.31230  0.80060  1.0000
  H   H51       1.0  0.10150  0.81230  0.69940  1.0000
  H   H52       1.0  0.89850  0.81230  0.80060  1.0000
  H   H53       1.0  0.39850  0.68770  0.30060  1.0000
  H   H54       1.0  0.60150  0.68770  0.19940  1.0000
  H   H55       1.0  0.89850  0.18770  0.30060  1.0000
  H   H56       1.0  0.10150  0.18770  0.19940  1.0000
  C   C73       1.0  0.60020  0.27530  0.62210  1.0000
  C   C74       1.0  0.39980  0.27530  0.87790  1.0000
  C   C75       1.0  0.10020  0.77530  0.62210  1.0000
  C   C76       1.0  0.89980  0.77530  0.87790  1.0000
  C   C77       1.0  0.39980  0.72470  0.37790  1.0000
  C   C78       1.0  0.60020  0.72470  0.12210  1.0000
  C   C79       1.0  0.89980  0.22470  0.37790  1.0000
  C   C80       1.0  0.10020  0.22470  0.12210  1.0000
  H   H57       1.0  0.57260  0.30530  0.60030  1.0000
  H   H58       1.0  0.42740  0.30530  0.89970  1.0000
  H   H59       1.0  0.07260  0.80530  0.60030  1.0000
  H   H60       1.0  0.92740  0.80530  0.89970  1.0000
  H   H61       1.0  0.42740  0.69470  0.39970  1.0000
  H   H62       1.0  0.57260  0.69470  0.10030  1.0000
  H   H63       1.0  0.92740  0.19470  0.39970  1.0000
  H   H64       1.0  0.07260  0.19470  0.10030  1.0000
  C   C81       1.0  0.67890  0.20060  0.87700  1.0000
  C   C82       1.0  0.32110  0.20060  0.62300  1.0000
  C   C83       1.0  0.17890  0.70060  0.87700  1.0000
  C   C84       1.0  0.82110  0.70060  0.62300  1.0000
  C   C85       1.0  0.32110  0.79940  0.12300  1.0000
  C   C86       1.0  0.67890  0.79940  0.37700  1.0000
  C   C87       1.0  0.82110  0.29940  0.12300  1.0000
  C   C88       1.0  0.17890  0.29940  0.37700  1.0000
  H   H65       1.0  0.66240  0.17130  0.89980  1.0000
  H   H66       1.0  0.33760  0.17130  0.60020  1.0000
  H   H67       1.0  0.16240  0.67130  0.89980  1.0000
  H   H68       1.0  0.83760  0.67130  0.60020  1.0000
  H   H69       1.0  0.33760  0.82870  0.10020  1.0000
  H   H70       1.0  0.66240  0.82870  0.39980  1.0000
  H   H71       1.0  0.83760  0.32870  0.10020  1.0000
  H   H72       1.0  0.16240  0.32870  0.39980  1.0000
  C   C89       1.0  0.65680  0.19530  0.81640  1.0000
  C   C90       1.0  0.34320  0.19530  0.68360  1.0000
  C   C91       1.0  0.15680  0.69530  0.81640  1.0000
  C   C92       1.0  0.84320  0.69530  0.68360  1.0000
  C   C93       1.0  0.34320  0.80470  0.18360  1.0000
  C   C94       1.0  0.65680  0.80470  0.31640  1.0000
  C   C95       1.0  0.84320  0.30470  0.18360  1.0000
  C   C96       1.0  0.15680  0.30470  0.31640  1.0000
  H   H73       1.0  0.62770  0.16320  0.79960  1.0000
  H   H74       1.0  0.37230  0.16320  0.70040  1.0000
  H   H75       1.0  0.12770  0.66320  0.79960  1.0000
  H   H76       1.0  0.87230  0.66320  0.70040  1.0000
  H   H77       1.0  0.37230  0.83680  0.20040  1.0000
  H   H78       1.0  0.62770  0.83680  0.29960  1.0000
  H   H79       1.0  0.87230  0.33680  0.20040  1.0000
  H   H80       1.0  0.12770  0.33680  0.29960  1.0000
  C   C97       1.0  0.67840  0.23880  0.78040  1.0000
  C   C98       1.0  0.32160  0.23880  0.71960  1.0000
  C   C99       1.0  0.17840  0.73880  0.78040  1.0000
  C   C100      1.0  0.82160  0.73880  0.71960  1.0000
  C   C101      1.0  0.32160  0.76120  0.21960  1.0000
  C   C102      1.0  0.67840  0.76120  0.28040  1.0000
  C   C103      1.0  0.82160  0.26120  0.21960  1.0000
  C   C104      1.0  0.17840  0.26120  0.28040  1.0000
  C   C105      1.0  0.72260  0.28620  0.80980  1.0000
  C   C106      1.0  0.27740  0.28620  0.69020  1.0000
  C   C107      1.0  0.22260  0.78620  0.80980  1.0000
  C   C108      1.0  0.77740  0.78620  0.69020  1.0000
  C   C109      1.0  0.27740  0.71380  0.19020  1.0000
  C   C110      1.0  0.72260  0.71380  0.30980  1.0000
  C   C111      1.0  0.77740  0.21380  0.19020  1.0000
  C   C112      1.0  0.22260  0.21380  0.30980  1.0000
  H   H81       1.0  0.74050  0.31610  0.78820  1.0000
  H   H82       1.0  0.25950  0.31610  0.71180  1.0000
  H   H83       1.0  0.24050  0.81610  0.78820  1.0000
  H   H84       1.0  0.75950  0.81610  0.71180  1.0000
  H   H85       1.0  0.25950  0.68390  0.21180  1.0000
  H   H86       1.0  0.74050  0.68390  0.28820  1.0000
  H   H87       1.0  0.75950  0.18390  0.21180  1.0000
  H   H88       1.0  0.24050  0.18390  0.28820  1.0000
  C   C113      1.0  0.73840  0.28750  0.86990  1.0000
  C   C114      1.0  0.26160  0.28750  0.63010  1.0000
  C   C115      1.0  0.23840  0.78750  0.86990  1.0000
  C   C116      1.0  0.76160  0.78750  0.63010  1.0000
  C   C117      1.0  0.26160  0.71250  0.13010  1.0000
  C   C118      1.0  0.73840  0.71250  0.36990  1.0000
  C   C119      1.0  0.76160  0.21250  0.13010  1.0000
  C   C120      1.0  0.23840  0.21250  0.36990  1.0000
  H   H89       1.0  0.76190  0.31980  0.88790  1.0000
  H   H90       1.0  0.23810  0.31980  0.61210  1.0000
  H   H91       1.0  0.26190  0.81980  0.88790  1.0000
  H   H92       1.0  0.73810  0.81980  0.61210  1.0000
  H   H93       1.0  0.23810  0.68020  0.11210  1.0000
  H   H94       1.0  0.76190  0.68020  0.38790  1.0000
  H   H95       1.0  0.73810  0.18020  0.11210  1.0000
  H   H96       1.0  0.26190  0.18020  0.38790  1.0000
