data_image0
_chemical_formula_structural       U2O14C6H2C2H4
_chemical_formula_sum              "U2 O14 C8 H6"
_cell_length_a       7.9421
_cell_length_b       8.4226
_cell_length_c       9.1852
_cell_angle_alpha    75.067
_cell_angle_beta     73.037
_cell_angle_gamma    79.497

_space_group_name_H-M_alt    "P 1"
_space_group_IT_number       1

loop_
  _space_group_symop_operation_xyz
  'x, y, z'

loop_
  _atom_site_type_symbol
  _atom_site_label
  _atom_site_symmetry_multiplicity
  _atom_site_fract_x
  _atom_site_fract_y
  _atom_site_fract_z
  _atom_site_occupancy
  U   U1        1.0  0.11077  0.26848  0.52213  1.0000
  U   U2        1.0  0.88923  0.73152  0.47787  1.0000
  O   O1        1.0  0.28620  0.31720  0.34810  1.0000
  O   O2        1.0  0.71380  0.68280  0.65190  1.0000
  O   O3        1.0  0.30450  0.26970  0.67550  1.0000
  O   O4        1.0  0.69550  0.73030  0.32450  1.0000
  O   O5        1.0  0.00920  0.85610  0.62090  1.0000
  O   O6        1.0  0.99080  0.14390  0.37910  1.0000
  O   O7        1.0  0.93670  0.21390  0.69210  1.0000
  O   O8        1.0  0.06330  0.78610  0.30790  1.0000
  O   O9        1.0  0.09480  0.52770  0.58350  1.0000
  O   O10       1.0  0.90520  0.47230  0.41650  1.0000
  O   O11       1.0  0.24590  0.98640  0.57220  1.0000
  O   O12       1.0  0.75410  0.01360  0.42780  1.0000
  O   O13       1.0  0.38360  0.38450  0.83290  1.0000
  O   O14       1.0  0.61640  0.61550  0.16710  1.0000
  C   C1        1.0  0.17220  0.85750  0.60630  1.0000
  C   C2        1.0  0.82780  0.14250  0.39370  1.0000
  C   C3        1.0  0.30190  0.38900  0.73470  1.0000
  C   C4        1.0  0.69810  0.61100  0.26530  1.0000
  C   C5        1.0  0.18010  0.54790  0.69160  1.0000
  C   C6        1.0  0.81990  0.45210  0.30840  1.0000
  H   H1        1.0  0.08880  0.56670  0.78720  1.0000
  H   H2        1.0  0.91120  0.43330  0.21280  1.0000
  C   C7        1.0  0.28630  0.69230  0.62850  1.0000
  C   C8        1.0  0.71370  0.30770  0.37150  1.0000
  H   H3        1.0  0.36850  0.68010  0.52800  1.0000
  H   H4        1.0  0.63150  0.31990  0.47200  1.0000
  H   H5        1.0  0.35700  0.69120  0.70020  1.0000
  H   H6        1.0  0.64300  0.30880  0.29980  1.0000
