data_image0
_chemical_formula_structural       U3O14C2O2C2O4C12H2C2H2C4H2C2H2C2H2C2H2C2H2C2H2O2
_chemical_formula_sum              "U3 O22 C32 H16"
_cell_length_a       8.4843
_cell_length_b       12.6359
_cell_length_c       12.9071
_cell_angle_alpha    118.091
_cell_angle_beta     92.772
_cell_angle_gamma    90.816

_space_group_name_H-M_alt    "P 1"
_space_group_IT_number       1

loop_
  _space_group_symop_operation_xyz
  'x, y, z'

loop_
  _atom_site_type_symbol
  _atom_site_label
  _atom_site_symmetry_multiplicity
  _atom_site_fract_x
  _atom_site_fract_y
  _atom_site_fract_z
  _atom_site_occupancy
  U   U1        1.0  0.00000  0.00000  0.00000  1.0000
  U   U2        1.0  0.02070  0.75185  0.16574  1.0000
  U   U3        1.0  0.97930  0.24815  0.83426  1.0000
  O   O1        1.0  0.01320  0.05260  0.20190  1.0000
  O   O2        1.0  0.98680  0.94740  0.79810  1.0000
  O   O3        1.0  0.11930  0.95470  0.29110  1.0000
  O   O4        1.0  0.88070  0.04530  0.70890  1.0000
  O   O5        1.0  0.90960  0.12230  0.48110  1.0000
  O   O6        1.0  0.09040  0.87770  0.51890  1.0000
  O   O7        1.0  0.20530  0.70120  0.19100  1.0000
  O   O8        1.0  0.79470  0.29880  0.80900  1.0000
  O   O9        1.0  0.05520  0.19800  0.65020  1.0000
  O   O10       1.0  0.94480  0.80200  0.34980  1.0000
  O   O11       1.0  0.96910  0.39340  0.03710  1.0000
  O   O12       1.0  0.03090  0.60660  0.96290  1.0000
  O   O13       1.0  0.83710  0.79960  0.13600  1.0000
  O   O14       1.0  0.16290  0.20040  0.86400  1.0000
  C   C1        1.0  0.67460  0.29790  0.07450  1.0000
  C   C2        1.0  0.32540  0.70210  0.92550  1.0000
  O   O15       1.0  0.83230  0.17220  0.12200  1.0000
  O   O16       1.0  0.16770  0.82780  0.87800  1.0000
  C   C3        1.0  0.70300  0.41670  0.09510  1.0000
  C   C4        1.0  0.29700  0.58330  0.90490  1.0000
  O   O17       1.0  0.88560  0.57640  0.14610  1.0000
  O   O18       1.0  0.11440  0.42360  0.85390  1.0000
  O   O19       1.0  0.17840  0.08490  0.03140  1.0000
  O   O20       1.0  0.82160  0.91510  0.96860  1.0000
  C   C5        1.0  0.02900  0.17350  0.54290  1.0000
  C   C6        1.0  0.97100  0.82650  0.45710  1.0000
  C   C7        1.0  0.18380  0.16140  0.37320  1.0000
  C   C8        1.0  0.81620  0.83860  0.62680  1.0000
  C   C9        1.0  0.79930  0.20840  0.04920  1.0000
  C   C10       1.0  0.20070  0.79160  0.95080  1.0000
  C   C11       1.0  0.86560  0.46470  0.09080  1.0000
  C   C12       1.0  0.13440  0.53530  0.90920  1.0000
  C   C13       1.0  0.16180  0.21410  0.49390  1.0000
  C   C14       1.0  0.83820  0.78590  0.50610  1.0000
  C   C15       1.0  0.57640  0.49250  0.12200  1.0000
  C   C16       1.0  0.42360  0.50750  0.87800  1.0000
  H   H1        1.0  0.59473  0.57177  0.13840  1.0000
  H   H2        1.0  0.40527  0.42823  0.86160  1.0000
  C   C17       1.0  0.52330  0.26180  0.08240  1.0000
  C   C18       1.0  0.47670  0.73820  0.91760  1.0000
  H   H3        1.0  0.50495  0.18451  0.07175  1.0000
  H   H4        1.0  0.49505  0.81549  0.92825  1.0000
  C   C19       1.0  0.09740  0.04850  0.28320  1.0000
  C   C20       1.0  0.90260  0.95150  0.71680  1.0000
  C   C21       1.0  0.42610  0.45400  0.12500  1.0000
  C   C22       1.0  0.57390  0.54600  0.87500  1.0000
  H   H5        1.0  0.34268  0.50516  0.13995  1.0000
  H   H6        1.0  0.65732  0.49484  0.86005  1.0000
  C   C23       1.0  0.40000  0.33610  0.10530  1.0000
  C   C24       1.0  0.60000  0.66390  0.89470  1.0000
  H   H7        1.0  0.29880  0.30855  0.10771  1.0000
  H   H8        1.0  0.70120  0.69145  0.89229  1.0000
  C   C25       1.0  0.29650  0.21010  0.33340  1.0000
  C   C26       1.0  0.70350  0.78990  0.66660  1.0000
  H   H9        1.0  0.30966  0.17614  0.25307  1.0000
  H   H10       1.0  0.69034  0.82386  0.74693  1.0000
  C   C27       1.0  0.25550  0.31340  0.57030  1.0000
  C   C28       1.0  0.74450  0.68660  0.42970  1.0000
  H   H11       1.0  0.24107  0.34864  0.65057  1.0000
  H   H12       1.0  0.75893  0.65136  0.34943  1.0000
  C   C29       1.0  0.39170  0.30990  0.41160  1.0000
  C   C30       1.0  0.60830  0.69010  0.58840  1.0000
  H   H13       1.0  0.46894  0.34133  0.38381  1.0000
  H   H14       1.0  0.53106  0.65867  0.61619  1.0000
  C   C31       1.0  0.36950  0.36110  0.53050  1.0000
  C   C32       1.0  0.63050  0.63890  0.46950  1.0000
  H   H15       1.0  0.43157  0.42781  0.58350  1.0000
  H   H16       1.0  0.56843  0.57219  0.41650  1.0000
  O   O21       1.0  0.86450  0.15780  0.95100  1.0000
  O   O22       1.0  0.13550  0.84220  0.04900  1.0000
