data_image0
_chemical_formula_structural       Zn18C54H18C18H18C36H18C18H18C36H18C54H18C18H18C36H18C18H18C36H18C18O72N72H36N18
_chemical_formula_sum              "Zn18 C342 H216 O72 N90"
_cell_length_a       31.4077
_cell_length_b       31.4077
_cell_length_c       15.0945
_cell_angle_alpha    90
_cell_angle_beta     90
_cell_angle_gamma    120

_space_group_name_H-M_alt    "P 1"
_space_group_IT_number       1

loop_
  _space_group_symop_operation_xyz
  'x, y, z'

loop_
  _atom_site_type_symbol
  _atom_site_label
  _atom_site_symmetry_multiplicity
  _atom_site_fract_x
  _atom_site_fract_y
  _atom_site_fract_z
  _atom_site_occupancy
  Zn  Zn1       1.0  0.06099  0.73073  0.48688  1.0000
  Zn  Zn2       1.0  0.26927  0.33026  0.48688  1.0000
  Zn  Zn3       1.0  0.66974  0.93901  0.48688  1.0000
  Zn  Zn4       1.0  0.72766  0.06406  0.82021  1.0000
  Zn  Zn5       1.0  0.93594  0.66359  0.82021  1.0000
  Zn  Zn6       1.0  0.33641  0.27234  0.82021  1.0000
  Zn  Zn7       1.0  0.39432  0.39740  0.15355  1.0000
  Zn  Zn8       1.0  0.60260  0.99693  0.15355  1.0000
  Zn  Zn9       1.0  0.00307  0.60568  0.15355  1.0000
  Zn  Zn10      1.0  0.93901  0.26927  0.51312  1.0000
  Zn  Zn11      1.0  0.73073  0.66974  0.51312  1.0000
  Zn  Zn12      1.0  0.33026  0.06099  0.51312  1.0000
  Zn  Zn13      1.0  0.27234  0.93594  0.17979  1.0000
  Zn  Zn14      1.0  0.06406  0.33641  0.17979  1.0000
  Zn  Zn15      1.0  0.66359  0.72766  0.17979  1.0000
  Zn  Zn16      1.0  0.60568  0.60260  0.84645  1.0000
  Zn  Zn17      1.0  0.39740  0.00307  0.84645  1.0000
  Zn  Zn18      1.0  0.99693  0.39432  0.84645  1.0000
  C   C1        1.0  0.14877  0.73931  0.54540  1.0000
  C   C2        1.0  0.26069  0.40946  0.54540  1.0000
  C   C3        1.0  0.59054  0.85123  0.54540  1.0000
  C   C4        1.0  0.81544  0.07264  0.87873  1.0000
  C   C5        1.0  0.92736  0.74279  0.87873  1.0000
  C   C6        1.0  0.25721  0.18456  0.87873  1.0000
  C   C7        1.0  0.48210  0.40598  0.21207  1.0000
  C   C8        1.0  0.59402  0.07613  0.21207  1.0000
  C   C9        1.0  0.92387  0.51790  0.21207  1.0000
  C   C10       1.0  0.85123  0.26069  0.45460  1.0000
  C   C11       1.0  0.73931  0.59054  0.45460  1.0000
  C   C12       1.0  0.40946  0.14877  0.45460  1.0000
  C   C13       1.0  0.18456  0.92736  0.12127  1.0000
  C   C14       1.0  0.07264  0.25721  0.12127  1.0000
  C   C15       1.0  0.74279  0.81544  0.12127  1.0000
  C   C16       1.0  0.51790  0.59402  0.78793  1.0000
  C   C17       1.0  0.40598  0.92387  0.78793  1.0000
  C   C18       1.0  0.07613  0.48210  0.78793  1.0000
  C   C19       1.0  0.18614  0.72238  0.55090  1.0000
  C   C20       1.0  0.27762  0.46376  0.55090  1.0000
  C   C21       1.0  0.53624  0.81386  0.55090  1.0000
  C   C22       1.0  0.85281  0.05571  0.88423  1.0000
  C   C23       1.0  0.94429  0.79709  0.88423  1.0000
  C   C24       1.0  0.20291  0.14719  0.88423  1.0000
  C   C25       1.0  0.51947  0.38905  0.21757  1.0000
  C   C26       1.0  0.61095  0.13043  0.21757  1.0000
  C   C27       1.0  0.86957  0.48053  0.21757  1.0000
  C   C28       1.0  0.81386  0.27762  0.44910  1.0000
  C   C29       1.0  0.72238  0.53624  0.44910  1.0000
  C   C30       1.0  0.46376  0.18614  0.44910  1.0000
  C   C31       1.0  0.14719  0.94429  0.11577  1.0000
  C   C32       1.0  0.05571  0.20291  0.11577  1.0000
  C   C33       1.0  0.79709  0.85281  0.11577  1.0000
  C   C34       1.0  0.48053  0.61095  0.78243  1.0000
  C   C35       1.0  0.38905  0.86957  0.78243  1.0000
  C   C36       1.0  0.13043  0.51947  0.78243  1.0000
  C   C37       1.0  0.17635  0.67761  0.51330  1.0000
  C   C38       1.0  0.32239  0.49874  0.51330  1.0000
  C   C39       1.0  0.50126  0.82365  0.51330  1.0000
  C   C40       1.0  0.84302  0.01094  0.84663  1.0000
  C   C41       1.0  0.98906  0.83207  0.84663  1.0000
  C   C42       1.0  0.16793  0.15698  0.84663  1.0000
  C   C43       1.0  0.50968  0.34428  0.17997  1.0000
  C   C44       1.0  0.65572  0.16541  0.17997  1.0000
  C   C45       1.0  0.83459  0.49032  0.17997  1.0000
  C   C46       1.0  0.82365  0.32239  0.48670  1.0000
  C   C47       1.0  0.67761  0.50126  0.48670  1.0000
  C   C48       1.0  0.49874  0.17635  0.48670  1.0000
  C   C49       1.0  0.15698  0.98906  0.15337  1.0000
  C   C50       1.0  0.01094  0.16793  0.15337  1.0000
  C   C51       1.0  0.83207  0.84302  0.15337  1.0000
  C   C52       1.0  0.49032  0.65572  0.82003  1.0000
  C   C53       1.0  0.34428  0.83459  0.82003  1.0000
  C   C54       1.0  0.16541  0.50968  0.82003  1.0000
  H   H1        1.0  0.14600  0.65720  0.48700  1.0000
  H   H2        1.0  0.34280  0.48880  0.48700  1.0000
  H   H3        1.0  0.51120  0.85400  0.48700  1.0000
  H   H4        1.0  0.81267  0.99053  0.82033  1.0000
  H   H5        1.0  0.00947  0.82213  0.82033  1.0000
  H   H6        1.0  0.17787  0.18733  0.82033  1.0000
  H   H7        1.0  0.47933  0.32387  0.15367  1.0000
  H   H8        1.0  0.67613  0.15547  0.15367  1.0000
  H   H9        1.0  0.84453  0.52067  0.15367  1.0000
  H   H10       1.0  0.85400  0.34280  0.51300  1.0000
  H   H11       1.0  0.65720  0.51120  0.51300  1.0000
  H   H12       1.0  0.48880  0.14600  0.51300  1.0000
  H   H13       1.0  0.18733  0.00947  0.17967  1.0000
  H   H14       1.0  0.99053  0.17787  0.17967  1.0000
  H   H15       1.0  0.82213  0.81267  0.17967  1.0000
  H   H16       1.0  0.52067  0.67613  0.84633  1.0000
  H   H17       1.0  0.32387  0.84453  0.84633  1.0000
  H   H18       1.0  0.15547  0.47933  0.84633  1.0000
  C   C55       1.0  0.21152  0.66387  0.51530  1.0000
  C   C56       1.0  0.33613  0.54765  0.51530  1.0000
  C   C57       1.0  0.45235  0.78848  0.51530  1.0000
  C   C58       1.0  0.87819  0.99720  0.84863  1.0000
  C   C59       1.0  0.00280  0.88098  0.84863  1.0000
  C   C60       1.0  0.11902  0.12181  0.84863  1.0000
  C   C61       1.0  0.54485  0.33054  0.18197  1.0000
  C   C62       1.0  0.66946  0.21432  0.18197  1.0000
  C   C63       1.0  0.78568  0.45515  0.18197  1.0000
  C   C64       1.0  0.78848  0.33613  0.48470  1.0000
  C   C65       1.0  0.66387  0.45235  0.48470  1.0000
  C   C66       1.0  0.54765  0.21152  0.48470  1.0000
  C   C67       1.0  0.12181  0.00280  0.15137  1.0000
  C   C68       1.0  0.99720  0.11902  0.15137  1.0000
  C   C69       1.0  0.88098  0.87819  0.15137  1.0000
  C   C70       1.0  0.45515  0.66946  0.81803  1.0000
  C   C71       1.0  0.33054  0.78568  0.81803  1.0000
  C   C72       1.0  0.21432  0.54485  0.81803  1.0000
  H   H19       1.0  0.20440  0.63390  0.49060  1.0000
  H   H20       1.0  0.36610  0.57050  0.49060  1.0000
  H   H21       1.0  0.42950  0.79560  0.49060  1.0000
  H   H22       1.0  0.87107  0.96723  0.82393  1.0000
  H   H23       1.0  0.03277  0.90383  0.82393  1.0000
  H   H24       1.0  0.09617  0.12893  0.82393  1.0000
  H   H25       1.0  0.53773  0.30057  0.15727  1.0000
  H   H26       1.0  0.69943  0.23717  0.15727  1.0000
  H   H27       1.0  0.76283  0.46227  0.15727  1.0000
  H   H28       1.0  0.79560  0.36610  0.50940  1.0000
  H   H29       1.0  0.63390  0.42950  0.50940  1.0000
  H   H30       1.0  0.57050  0.20440  0.50940  1.0000
  H   H31       1.0  0.12893  0.03277  0.17607  1.0000
  H   H32       1.0  0.96723  0.09617  0.17607  1.0000
  H   H33       1.0  0.90383  0.87107  0.17607  1.0000
  H   H34       1.0  0.46227  0.69943  0.84273  1.0000
  H   H35       1.0  0.30057  0.76283  0.84273  1.0000
  H   H36       1.0  0.23717  0.53773  0.84273  1.0000
  C   C73       1.0  0.25817  0.69405  0.55390  1.0000
  C   C74       1.0  0.30595  0.56412  0.55390  1.0000
  C   C75       1.0  0.43588  0.74183  0.55390  1.0000
  C   C76       1.0  0.92484  0.02738  0.88723  1.0000
  C   C77       1.0  0.97262  0.89745  0.88723  1.0000
  C   C78       1.0  0.10255  0.07516  0.88723  1.0000
  C   C79       1.0  0.59150  0.36072  0.22057  1.0000
  C   C80       1.0  0.63928  0.23079  0.22057  1.0000
  C   C81       1.0  0.76921  0.40850  0.22057  1.0000
  C   C82       1.0  0.74183  0.30595  0.44610  1.0000
  C   C83       1.0  0.69405  0.43588  0.44610  1.0000
  C   C84       1.0  0.56412  0.25817  0.44610  1.0000
  C   C85       1.0  0.07516  0.97262  0.11277  1.0000
  C   C86       1.0  0.02738  0.10255  0.11277  1.0000
  C   C87       1.0  0.89745  0.92484  0.11277  1.0000
  C   C88       1.0  0.40850  0.63928  0.77943  1.0000
  C   C89       1.0  0.36072  0.76921  0.77943  1.0000
  C   C90       1.0  0.23079  0.59150  0.77943  1.0000
  C   C91       1.0  0.26610  0.73749  0.59440  1.0000
  C   C92       1.0  0.26251  0.52861  0.59440  1.0000
  C   C93       1.0  0.47139  0.73390  0.59440  1.0000
  C   C94       1.0  0.93277  0.07082  0.92773  1.0000
  C   C95       1.0  0.92918  0.86194  0.92773  1.0000
  C   C96       1.0  0.13806  0.06723  0.92773  1.0000
  C   C97       1.0  0.59943  0.40416  0.26107  1.0000
  C   C98       1.0  0.59584  0.19528  0.26107  1.0000
  C   C99       1.0  0.80472  0.40057  0.26107  1.0000
  C   C100      1.0  0.73390  0.26251  0.40560  1.0000
  C   C101      1.0  0.73749  0.47139  0.40560  1.0000
  C   C102      1.0  0.52861  0.26610  0.40560  1.0000
  C   C103      1.0  0.06723  0.92918  0.07227  1.0000
  C   C104      1.0  0.07082  0.13806  0.07227  1.0000
  C   C105      1.0  0.86194  0.93277  0.07227  1.0000
  C   C106      1.0  0.40057  0.59584  0.73893  1.0000
  C   C107      1.0  0.40416  0.80472  0.73893  1.0000
  C   C108      1.0  0.19528  0.59943  0.73893  1.0000
  H   H37       1.0  0.29590  0.75750  0.62270  1.0000
  H   H38       1.0  0.24250  0.53840  0.62270  1.0000
  H   H39       1.0  0.46160  0.70410  0.62270  1.0000
  H   H40       1.0  0.96257  0.09083  0.95603  1.0000
  H   H41       1.0  0.90917  0.87173  0.95603  1.0000
  H   H42       1.0  0.12827  0.03743  0.95603  1.0000
  H   H43       1.0  0.62923  0.42417  0.28937  1.0000
  H   H44       1.0  0.57583  0.20507  0.28937  1.0000
  H   H45       1.0  0.79493  0.37077  0.28937  1.0000
  H   H46       1.0  0.70410  0.24250  0.37730  1.0000
  H   H47       1.0  0.75750  0.46160  0.37730  1.0000
  H   H48       1.0  0.53840  0.29590  0.37730  1.0000
  H   H49       1.0  0.03743  0.90917  0.04397  1.0000
  H   H50       1.0  0.09083  0.12827  0.04397  1.0000
  H   H51       1.0  0.87173  0.96257  0.04397  1.0000
  H   H52       1.0  0.37077  0.57583  0.71063  1.0000
  H   H53       1.0  0.42417  0.79493  0.71063  1.0000
  H   H54       1.0  0.20507  0.62923  0.71063  1.0000
  C   C109      1.0  0.23070  0.75147  0.59330  1.0000
  C   C110      1.0  0.24853  0.47923  0.59330  1.0000
  C   C111      1.0  0.52077  0.76930  0.59330  1.0000
  C   C112      1.0  0.89737  0.08480  0.92663  1.0000
  C   C113      1.0  0.91520  0.81256  0.92663  1.0000
  C   C114      1.0  0.18744  0.10263  0.92663  1.0000
  C   C115      1.0  0.56403  0.41814  0.25997  1.0000
  C   C116      1.0  0.58186  0.14590  0.25997  1.0000
  C   C117      1.0  0.85410  0.43597  0.25997  1.0000
  C   C118      1.0  0.76930  0.24853  0.40670  1.0000
  C   C119      1.0  0.75147  0.52077  0.40670  1.0000
  C   C120      1.0  0.47923  0.23070  0.40670  1.0000
  C   C121      1.0  0.10263  0.91520  0.07337  1.0000
  C   C122      1.0  0.08480  0.18744  0.07337  1.0000
  C   C123      1.0  0.81256  0.89737  0.07337  1.0000
  C   C124      1.0  0.43597  0.58186  0.74003  1.0000
  C   C125      1.0  0.41814  0.85410  0.74003  1.0000
  C   C126      1.0  0.14590  0.56403  0.74003  1.0000
  H   H55       1.0  0.23680  0.78040  0.62110  1.0000
  H   H56       1.0  0.21960  0.45640  0.62110  1.0000
  H   H57       1.0  0.54360  0.76320  0.62110  1.0000
  H   H58       1.0  0.90347  0.11373  0.95443  1.0000
  H   H59       1.0  0.88627  0.78973  0.95443  1.0000
  H   H60       1.0  0.21027  0.09653  0.95443  1.0000
  H   H61       1.0  0.57013  0.44707  0.28777  1.0000
  H   H62       1.0  0.55293  0.12307  0.28777  1.0000
  H   H63       1.0  0.87693  0.42987  0.28777  1.0000
  H   H64       1.0  0.76320  0.21960  0.37890  1.0000
  H   H65       1.0  0.78040  0.54360  0.37890  1.0000
  H   H66       1.0  0.45640  0.23680  0.37890  1.0000
  H   H67       1.0  0.09653  0.88627  0.04557  1.0000
  H   H68       1.0  0.11373  0.21027  0.04557  1.0000
  H   H69       1.0  0.78973  0.90347  0.04557  1.0000
  H   H70       1.0  0.42987  0.55293  0.71223  1.0000
  H   H71       1.0  0.44707  0.87693  0.71223  1.0000
  H   H72       1.0  0.12307  0.57013  0.71223  1.0000
  C   C127      1.0  0.29656  0.67981  0.55200  1.0000
  C   C128      1.0  0.32019  0.61675  0.55200  1.0000
  C   C129      1.0  0.38325  0.70344  0.55200  1.0000
  C   C130      1.0  0.96323  0.01314  0.88533  1.0000
  C   C131      1.0  0.98686  0.95008  0.88533  1.0000
  C   C132      1.0  0.04992  0.03677  0.88533  1.0000
  C   C133      1.0  0.62989  0.34648  0.21867  1.0000
  C   C134      1.0  0.65352  0.28342  0.21867  1.0000
  C   C135      1.0  0.71658  0.37011  0.21867  1.0000
  C   C136      1.0  0.70344  0.32019  0.44800  1.0000
  C   C137      1.0  0.67981  0.38325  0.44800  1.0000
  C   C138      1.0  0.61675  0.29656  0.44800  1.0000
  C   C139      1.0  0.03677  0.98686  0.11467  1.0000
  C   C140      1.0  0.01314  0.04992  0.11467  1.0000
  C   C141      1.0  0.95008  0.96323  0.11467  1.0000
  C   C142      1.0  0.37011  0.65352  0.78133  1.0000
  C   C143      1.0  0.34648  0.71658  0.78133  1.0000
  C   C144      1.0  0.28342  0.62989  0.78133  1.0000
  C   C145      1.0  0.34646  0.71604  0.55160  1.0000
  C   C146      1.0  0.28396  0.63042  0.55160  1.0000
  C   C147      1.0  0.36958  0.65354  0.55160  1.0000
  C   C148      1.0  0.01313  0.04937  0.88493  1.0000
  C   C149      1.0  0.95063  0.96375  0.88493  1.0000
  C   C150      1.0  0.03625  0.98687  0.88493  1.0000
  C   C151      1.0  0.67979  0.38271  0.21827  1.0000
  C   C152      1.0  0.61729  0.29709  0.21827  1.0000
  C   C153      1.0  0.70291  0.32021  0.21827  1.0000
  C   C154      1.0  0.65354  0.28396  0.44840  1.0000
  C   C155      1.0  0.71604  0.36958  0.44840  1.0000
  C   C156      1.0  0.63042  0.34646  0.44840  1.0000
  C   C157      1.0  0.98687  0.95063  0.11507  1.0000
  C   C158      1.0  0.04937  0.03625  0.11507  1.0000
  C   C159      1.0  0.96375  0.01313  0.11507  1.0000
  C   C160      1.0  0.32021  0.61729  0.78173  1.0000
  C   C161      1.0  0.38271  0.70291  0.78173  1.0000
  C   C162      1.0  0.29709  0.67979  0.78173  1.0000
  H   H73       1.0  0.35520  0.74900  0.55100  1.0000
  H   H74       1.0  0.25100  0.60620  0.55100  1.0000
  H   H75       1.0  0.39380  0.64480  0.55100  1.0000
  H   H76       1.0  0.02187  0.08233  0.88433  1.0000
  H   H77       1.0  0.91767  0.93953  0.88433  1.0000
  H   H78       1.0  0.06047  0.97813  0.88433  1.0000
  H   H79       1.0  0.68853  0.41567  0.21767  1.0000
  H   H80       1.0  0.58433  0.27287  0.21767  1.0000
  H   H81       1.0  0.72713  0.31147  0.21767  1.0000
  H   H82       1.0  0.64480  0.25100  0.44900  1.0000
  H   H83       1.0  0.74900  0.39380  0.44900  1.0000
  H   H84       1.0  0.60620  0.35520  0.44900  1.0000
  H   H85       1.0  0.97813  0.91767  0.11567  1.0000
  H   H86       1.0  0.08233  0.06047  0.11567  1.0000
  H   H87       1.0  0.93953  0.02187  0.11567  1.0000
  H   H88       1.0  0.31147  0.58433  0.78233  1.0000
  H   H89       1.0  0.41567  0.72713  0.78233  1.0000
  H   H90       1.0  0.27287  0.68853  0.78233  1.0000
  C   C163      1.0  0.07470  0.81930  0.43340  1.0000
  C   C164      1.0  0.18070  0.25540  0.43340  1.0000
  C   C165      1.0  0.74460  0.92530  0.43340  1.0000
  C   C166      1.0  0.74137  0.15263  0.76673  1.0000
  C   C167      1.0  0.84737  0.58873  0.76673  1.0000
  C   C168      1.0  0.41127  0.25863  0.76673  1.0000
  C   C169      1.0  0.40803  0.48597  0.10007  1.0000
  C   C170      1.0  0.51403  0.92207  0.10007  1.0000
  C   C171      1.0  0.07793  0.59197  0.10007  1.0000
  C   C172      1.0  0.92530  0.18070  0.56660  1.0000
  C   C173      1.0  0.81930  0.74460  0.56660  1.0000
  C   C174      1.0  0.25540  0.07470  0.56660  1.0000
  C   C175      1.0  0.25863  0.84737  0.23327  1.0000
  C   C176      1.0  0.15263  0.41127  0.23327  1.0000
  C   C177      1.0  0.58873  0.74137  0.23327  1.0000
  C   C178      1.0  0.59197  0.51403  0.89993  1.0000
  C   C179      1.0  0.48597  0.07793  0.89993  1.0000
  C   C180      1.0  0.92207  0.40803  0.89993  1.0000
  C   C181      1.0  0.05795  0.85585  0.41670  1.0000
  C   C182      1.0  0.14415  0.20210  0.41670  1.0000
  C   C183      1.0  0.79790  0.94205  0.41670  1.0000
  C   C184      1.0  0.72462  0.18918  0.75003  1.0000
  C   C185      1.0  0.81082  0.53543  0.75003  1.0000
  C   C186      1.0  0.46457  0.27538  0.75003  1.0000
  C   C187      1.0  0.39128  0.52252  0.08337  1.0000
  C   C188      1.0  0.47748  0.86877  0.08337  1.0000
  C   C189      1.0  0.13123  0.60872  0.08337  1.0000
  C   C190      1.0  0.94205  0.14415  0.58330  1.0000
  C   C191      1.0  0.85585  0.79790  0.58330  1.0000
  C   C192      1.0  0.20210  0.05795  0.58330  1.0000
  C   C193      1.0  0.27538  0.81082  0.24997  1.0000
  C   C194      1.0  0.18918  0.46457  0.24997  1.0000
  C   C195      1.0  0.53543  0.72462  0.24997  1.0000
  C   C196      1.0  0.60872  0.47748  0.91663  1.0000
  C   C197      1.0  0.52252  0.13123  0.91663  1.0000
  C   C198      1.0  0.86877  0.39128  0.91663  1.0000
  C   C199      1.0  0.08423  0.89555  0.35930  1.0000
  C   C200      1.0  0.10445  0.18868  0.35930  1.0000
  C   C201      1.0  0.81132  0.91577  0.35930  1.0000
  C   C202      1.0  0.75090  0.22888  0.69263  1.0000
  C   C203      1.0  0.77112  0.52201  0.69263  1.0000
  C   C204      1.0  0.47799  0.24910  0.69263  1.0000
  C   C205      1.0  0.41756  0.56222  0.02597  1.0000
  C   C206      1.0  0.43778  0.85535  0.02597  1.0000
  C   C207      1.0  0.14465  0.58244  0.02597  1.0000
  C   C208      1.0  0.91577  0.10445  0.64070  1.0000
  C   C209      1.0  0.89555  0.81132  0.64070  1.0000
  C   C210      1.0  0.18868  0.08423  0.64070  1.0000
  C   C211      1.0  0.24910  0.77112  0.30737  1.0000
  C   C212      1.0  0.22888  0.47799  0.30737  1.0000
  C   C213      1.0  0.52201  0.75090  0.30737  1.0000
  C   C214      1.0  0.58244  0.43778  0.97403  1.0000
  C   C215      1.0  0.56222  0.14465  0.97403  1.0000
  C   C216      1.0  0.85535  0.41756  0.97403  1.0000
  H   H91       1.0  0.11200  0.89910  0.33060  1.0000
  H   H92       1.0  0.10090  0.21290  0.33060  1.0000
  H   H93       1.0  0.78710  0.88800  0.33060  1.0000
  H   H94       1.0  0.77867  0.23243  0.66393  1.0000
  H   H95       1.0  0.76757  0.54623  0.66393  1.0000
  H   H96       1.0  0.45377  0.22133  0.66393  1.0000
  H   H97       1.0  0.44533  0.56577  0.99727  1.0000
  H   H98       1.0  0.43423  0.87957  0.99727  1.0000
  H   H99       1.0  0.12043  0.55467  0.99727  1.0000
  H   H100      1.0  0.88800  0.10090  0.66940  1.0000
  H   H101      1.0  0.89910  0.78710  0.66940  1.0000
  H   H102      1.0  0.21290  0.11200  0.66940  1.0000
  H   H103      1.0  0.22133  0.76757  0.33607  1.0000
  H   H104      1.0  0.23243  0.45377  0.33607  1.0000
  H   H105      1.0  0.54623  0.77867  0.33607  1.0000
  H   H106      1.0  0.55467  0.43423  0.00273  1.0000
  H   H107      1.0  0.56577  0.12043  0.00273  1.0000
  H   H108      1.0  0.87957  0.44533  0.00273  1.0000
  C   C217      1.0  0.06950  0.92930  0.34490  1.0000
  C   C218      1.0  0.07070  0.14020  0.34490  1.0000
  C   C219      1.0  0.85980  0.93050  0.34490  1.0000
  C   C220      1.0  0.73617  0.26263  0.67823  1.0000
  C   C221      1.0  0.73737  0.47353  0.67823  1.0000
  C   C222      1.0  0.52647  0.26383  0.67823  1.0000
  C   C223      1.0  0.40283  0.59597  0.01157  1.0000
  C   C224      1.0  0.40403  0.80687  0.01157  1.0000
  C   C225      1.0  0.19313  0.59717  0.01157  1.0000
  C   C226      1.0  0.93050  0.07070  0.65510  1.0000
  C   C227      1.0  0.92930  0.85980  0.65510  1.0000
  C   C228      1.0  0.14020  0.06950  0.65510  1.0000
  C   C229      1.0  0.26383  0.73737  0.32177  1.0000
  C   C230      1.0  0.26263  0.52647  0.32177  1.0000
  C   C231      1.0  0.47353  0.73617  0.32177  1.0000
  C   C232      1.0  0.59717  0.40403  0.98843  1.0000
  C   C233      1.0  0.59597  0.19313  0.98843  1.0000
  C   C234      1.0  0.80687  0.40283  0.98843  1.0000
  H   H109      1.0  0.08810  0.95600  0.30800  1.0000
  H   H110      1.0  0.04400  0.13210  0.30800  1.0000
  H   H111      1.0  0.86790  0.91190  0.30800  1.0000
  H   H112      1.0  0.75477  0.28933  0.64133  1.0000
  H   H113      1.0  0.71067  0.46543  0.64133  1.0000
  H   H114      1.0  0.53457  0.24523  0.64133  1.0000
  H   H115      1.0  0.42143  0.62267  0.97467  1.0000
  H   H116      1.0  0.37733  0.79877  0.97467  1.0000
  H   H117      1.0  0.20123  0.57857  0.97467  1.0000
  H   H118      1.0  0.91190  0.04400  0.69200  1.0000
  H   H119      1.0  0.95600  0.86790  0.69200  1.0000
  H   H120      1.0  0.13210  0.08810  0.69200  1.0000
  H   H121      1.0  0.24523  0.71067  0.35867  1.0000
  H   H122      1.0  0.28933  0.53457  0.35867  1.0000
  H   H123      1.0  0.46543  0.75477  0.35867  1.0000
  H   H124      1.0  0.57857  0.37733  0.02533  1.0000
  H   H125      1.0  0.62267  0.20123  0.02533  1.0000
  H   H126      1.0  0.79877  0.42143  0.02533  1.0000
  C   C235      1.0  0.02707  0.92456  0.38410  1.0000
  C   C236      1.0  0.07544  0.10251  0.38410  1.0000
  C   C237      1.0  0.89749  0.97293  0.38410  1.0000
  C   C238      1.0  0.69374  0.25789  0.71743  1.0000
  C   C239      1.0  0.74211  0.43584  0.71743  1.0000
  C   C240      1.0  0.56416  0.30626  0.71743  1.0000
  C   C241      1.0  0.36040  0.59123  0.05077  1.0000
  C   C242      1.0  0.40877  0.76918  0.05077  1.0000
  C   C243      1.0  0.23082  0.63960  0.05077  1.0000
  C   C244      1.0  0.97293  0.07544  0.61590  1.0000
  C   C245      1.0  0.92456  0.89749  0.61590  1.0000
  C   C246      1.0  0.10251  0.02707  0.61590  1.0000
  C   C247      1.0  0.30626  0.74211  0.28257  1.0000
  C   C248      1.0  0.25789  0.56416  0.28257  1.0000
  C   C249      1.0  0.43584  0.69374  0.28257  1.0000
  C   C250      1.0  0.63960  0.40877  0.94923  1.0000
  C   C251      1.0  0.59123  0.23082  0.94923  1.0000
  C   C252      1.0  0.76918  0.36040  0.94923  1.0000
  C   C253      1.0  0.00002  0.88435  0.43930  1.0000
  C   C254      1.0  0.11565  0.11567  0.43930  1.0000
  C   C255      1.0  0.88433  0.99998  0.43930  1.0000
  C   C256      1.0  0.66669  0.21768  0.77263  1.0000
  C   C257      1.0  0.78232  0.44900  0.77263  1.0000
  C   C258      1.0  0.55100  0.33331  0.77263  1.0000
  C   C259      1.0  0.33335  0.55102  0.10597  1.0000
  C   C260      1.0  0.44898  0.78234  0.10597  1.0000
  C   C261      1.0  0.21766  0.66665  0.10597  1.0000
  C   C262      1.0  0.99998  0.11565  0.56070  1.0000
  C   C263      1.0  0.88435  0.88433  0.56070  1.0000
  C   C264      1.0  0.11567  0.00002  0.56070  1.0000
  C   C265      1.0  0.33331  0.78232  0.22737  1.0000
  C   C266      1.0  0.21768  0.55100  0.22737  1.0000
  C   C267      1.0  0.44900  0.66669  0.22737  1.0000
  C   C268      1.0  0.66665  0.44898  0.89403  1.0000
  C   C269      1.0  0.55102  0.21766  0.89403  1.0000
  C   C270      1.0  0.78234  0.33335  0.89403  1.0000
  H   H127      1.0  0.97140  0.88020  0.46580  1.0000
  H   H128      1.0  0.11980  0.09120  0.46580  1.0000
  H   H129      1.0  0.90880  0.02860  0.46580  1.0000
  H   H130      1.0  0.63807  0.21353  0.79913  1.0000
  H   H131      1.0  0.78647  0.42453  0.79913  1.0000
  H   H132      1.0  0.57547  0.36193  0.79913  1.0000
  H   H133      1.0  0.30473  0.54687  0.13247  1.0000
  H   H134      1.0  0.45313  0.75787  0.13247  1.0000
  H   H135      1.0  0.24213  0.69527  0.13247  1.0000
  H   H136      1.0  0.02860  0.11980  0.53420  1.0000
  H   H137      1.0  0.88020  0.90880  0.53420  1.0000
  H   H138      1.0  0.09120  0.97140  0.53420  1.0000
  H   H139      1.0  0.36193  0.78647  0.20087  1.0000
  H   H140      1.0  0.21353  0.57547  0.20087  1.0000
  H   H141      1.0  0.42453  0.63807  0.20087  1.0000
  H   H142      1.0  0.69527  0.45313  0.86753  1.0000
  H   H143      1.0  0.54687  0.24213  0.86753  1.0000
  H   H144      1.0  0.75787  0.30473  0.86753  1.0000
  C   C271      1.0  0.01507  0.85032  0.45560  1.0000
  C   C272      1.0  0.14968  0.16475  0.45560  1.0000
  C   C273      1.0  0.83525  0.98493  0.45560  1.0000
  C   C274      1.0  0.68174  0.18365  0.78893  1.0000
  C   C275      1.0  0.81635  0.49808  0.78893  1.0000
  C   C276      1.0  0.50192  0.31826  0.78893  1.0000
  C   C277      1.0  0.34840  0.51699  0.12227  1.0000
  C   C278      1.0  0.48301  0.83142  0.12227  1.0000
  C   C279      1.0  0.16858  0.65160  0.12227  1.0000
  C   C280      1.0  0.98493  0.14968  0.54440  1.0000
  C   C281      1.0  0.85032  0.83525  0.54440  1.0000
  C   C282      1.0  0.16475  0.01507  0.54440  1.0000
  C   C283      1.0  0.31826  0.81635  0.21107  1.0000
  C   C284      1.0  0.18365  0.50192  0.21107  1.0000
  C   C285      1.0  0.49808  0.68174  0.21107  1.0000
  C   C286      1.0  0.65160  0.48301  0.87773  1.0000
  C   C287      1.0  0.51699  0.16858  0.87773  1.0000
  C   C288      1.0  0.83142  0.34840  0.87773  1.0000
  H   H145      1.0  0.99650  0.82370  0.49260  1.0000
  H   H146      1.0  0.17630  0.17280  0.49260  1.0000
  H   H147      1.0  0.82720  0.00350  0.49260  1.0000
  H   H148      1.0  0.66317  0.15703  0.82593  1.0000
  H   H149      1.0  0.84297  0.50613  0.82593  1.0000
  H   H150      1.0  0.49387  0.33683  0.82593  1.0000
  H   H151      1.0  0.32983  0.49037  0.15927  1.0000
  H   H152      1.0  0.50963  0.83947  0.15927  1.0000
  H   H153      1.0  0.16053  0.67017  0.15927  1.0000
  H   H154      1.0  0.00350  0.17630  0.50740  1.0000
  H   H155      1.0  0.82370  0.82720  0.50740  1.0000
  H   H156      1.0  0.17280  0.99650  0.50740  1.0000
  H   H157      1.0  0.33683  0.84297  0.17407  1.0000
  H   H158      1.0  0.15703  0.49387  0.17407  1.0000
  H   H159      1.0  0.50613  0.66317  0.17407  1.0000
  H   H160      1.0  0.67017  0.50963  0.84073  1.0000
  H   H161      1.0  0.49037  0.16053  0.84073  1.0000
  H   H162      1.0  0.83947  0.32983  0.84073  1.0000
  C   C289      1.0  0.01307  0.96325  0.37450  1.0000
  C   C290      1.0  0.03675  0.04982  0.37450  1.0000
  C   C291      1.0  0.95018  0.98693  0.37450  1.0000
  C   C292      1.0  0.67974  0.29658  0.70783  1.0000
  C   C293      1.0  0.70342  0.38315  0.70783  1.0000
  C   C294      1.0  0.61685  0.32026  0.70783  1.0000
  C   C295      1.0  0.34640  0.62992  0.04117  1.0000
  C   C296      1.0  0.37008  0.71649  0.04117  1.0000
  C   C297      1.0  0.28351  0.65360  0.04117  1.0000
  C   C298      1.0  0.98693  0.03675  0.62550  1.0000
  C   C299      1.0  0.96325  0.95018  0.62550  1.0000
  C   C300      1.0  0.04982  0.01307  0.62550  1.0000
  C   C301      1.0  0.32026  0.70342  0.29217  1.0000
  C   C302      1.0  0.29658  0.61685  0.29217  1.0000
  C   C303      1.0  0.38315  0.67974  0.29217  1.0000
  C   C304      1.0  0.65360  0.37008  0.95883  1.0000
  C   C305      1.0  0.62992  0.28351  0.95883  1.0000
  C   C306      1.0  0.71649  0.34640  0.95883  1.0000
  C   C307      1.0  0.96348  0.95084  0.37400  1.0000
  C   C308      1.0  0.04916  0.01264  0.37400  1.0000
  C   C309      1.0  0.98736  0.03652  0.37400  1.0000
  C   C310      1.0  0.63015  0.28417  0.70733  1.0000
  C   C311      1.0  0.71583  0.34597  0.70733  1.0000
  C   C312      1.0  0.65403  0.36985  0.70733  1.0000
  C   C313      1.0  0.29681  0.61751  0.04067  1.0000
  C   C314      1.0  0.38249  0.67931  0.04067  1.0000
  C   C315      1.0  0.32069  0.70319  0.04067  1.0000
  C   C316      1.0  0.03652  0.04916  0.62600  1.0000
  C   C317      1.0  0.95084  0.98736  0.62600  1.0000
  C   C318      1.0  0.01264  0.96348  0.62600  1.0000
  C   C319      1.0  0.36985  0.71583  0.29267  1.0000
  C   C320      1.0  0.28417  0.65403  0.29267  1.0000
  C   C321      1.0  0.34597  0.63015  0.29267  1.0000
  C   C322      1.0  0.70319  0.38249  0.95933  1.0000
  C   C323      1.0  0.61751  0.32069  0.95933  1.0000
  C   C324      1.0  0.67931  0.29681  0.95933  1.0000
  H   H163      1.0  0.93910  0.91790  0.37340  1.0000
  H   H164      1.0  0.08210  0.02120  0.37340  1.0000
  H   H165      1.0  0.97880  0.06090  0.37340  1.0000
  H   H166      1.0  0.60577  0.25123  0.70673  1.0000
  H   H167      1.0  0.74877  0.35453  0.70673  1.0000
  H   H168      1.0  0.64547  0.39423  0.70673  1.0000
  H   H169      1.0  0.27243  0.58457  0.04007  1.0000
  H   H170      1.0  0.41543  0.68787  0.04007  1.0000
  H   H171      1.0  0.31213  0.72757  0.04007  1.0000
  H   H172      1.0  0.06090  0.08210  0.62660  1.0000
  H   H173      1.0  0.91790  0.97880  0.62660  1.0000
  H   H174      1.0  0.02120  0.93910  0.62660  1.0000
  H   H175      1.0  0.39423  0.74877  0.29327  1.0000
  H   H176      1.0  0.25123  0.64547  0.29327  1.0000
  H   H177      1.0  0.35453  0.60577  0.29327  1.0000
  H   H178      1.0  0.72757  0.41543  0.95993  1.0000
  H   H179      1.0  0.58457  0.31213  0.95993  1.0000
  H   H180      1.0  0.68787  0.27243  0.95993  1.0000
  C   C325      1.0  0.04252  0.67070  0.31800  1.0000
  C   C326      1.0  0.32930  0.37182  0.31800  1.0000
  C   C327      1.0  0.62818  0.95748  0.31800  1.0000
  C   C328      1.0  0.70919  0.00403  0.65133  1.0000
  C   C329      1.0  0.99597  0.70515  0.65133  1.0000
  C   C330      1.0  0.29485  0.29081  0.65133  1.0000
  C   C331      1.0  0.37585  0.33737  0.98467  1.0000
  C   C332      1.0  0.66263  0.03849  0.98467  1.0000
  C   C333      1.0  0.96151  0.62415  0.98467  1.0000
  C   C334      1.0  0.95748  0.32930  0.68200  1.0000
  C   C335      1.0  0.67070  0.62818  0.68200  1.0000
  C   C336      1.0  0.37182  0.04252  0.68200  1.0000
  C   C337      1.0  0.29081  0.99597  0.34867  1.0000
  C   C338      1.0  0.00403  0.29485  0.34867  1.0000
  C   C339      1.0  0.70515  0.70919  0.34867  1.0000
  C   C340      1.0  0.62415  0.66263  0.01533  1.0000
  C   C341      1.0  0.33737  0.96151  0.01533  1.0000
  C   C342      1.0  0.03849  0.37585  0.01533  1.0000
  O   O1        1.0  0.10882  0.82070  0.39170  1.0000
  O   O2        1.0  0.17930  0.28812  0.39170  1.0000
  O   O3        1.0  0.71188  0.89118  0.39170  1.0000
  O   O4        1.0  0.77549  0.15403  0.72503  1.0000
  O   O5        1.0  0.84597  0.62145  0.72503  1.0000
  O   O6        1.0  0.37855  0.22451  0.72503  1.0000
  O   O7        1.0  0.44215  0.48737  0.05837  1.0000
  O   O8        1.0  0.51263  0.95479  0.05837  1.0000
  O   O9        1.0  0.04521  0.55785  0.05837  1.0000
  O   O10       1.0  0.89118  0.17930  0.60830  1.0000
  O   O11       1.0  0.82070  0.71188  0.60830  1.0000
  O   O12       1.0  0.28812  0.10882  0.60830  1.0000
  O   O13       1.0  0.22451  0.84597  0.27497  1.0000
  O   O14       1.0  0.15403  0.37855  0.27497  1.0000
  O   O15       1.0  0.62145  0.77549  0.27497  1.0000
  O   O16       1.0  0.55785  0.51263  0.94163  1.0000
  O   O17       1.0  0.48737  0.04521  0.94163  1.0000
  O   O18       1.0  0.95479  0.44215  0.94163  1.0000
  O   O19       1.0  0.05124  0.78729  0.49260  1.0000
  O   O20       1.0  0.21271  0.26395  0.49260  1.0000
  O   O21       1.0  0.73605  0.94876  0.49260  1.0000
  O   O22       1.0  0.71791  0.12062  0.82593  1.0000
  O   O23       1.0  0.87938  0.59728  0.82593  1.0000
  O   O24       1.0  0.40272  0.28209  0.82593  1.0000
  O   O25       1.0  0.38457  0.45396  0.15927  1.0000
  O   O26       1.0  0.54604  0.93062  0.15927  1.0000
  O   O27       1.0  0.06938  0.61543  0.15927  1.0000
  O   O28       1.0  0.94876  0.21271  0.50740  1.0000
  O   O29       1.0  0.78729  0.73605  0.50740  1.0000
  O   O30       1.0  0.26395  0.05124  0.50740  1.0000
  O   O31       1.0  0.28209  0.87938  0.17407  1.0000
  O   O32       1.0  0.12062  0.40272  0.17407  1.0000
  O   O33       1.0  0.59728  0.71791  0.17407  1.0000
  O   O34       1.0  0.61543  0.54604  0.84073  1.0000
  O   O35       1.0  0.45396  0.06938  0.84073  1.0000
  O   O36       1.0  0.93062  0.38457  0.84073  1.0000
  O   O37       1.0  0.15096  0.77167  0.59460  1.0000
  O   O38       1.0  0.22833  0.37929  0.59460  1.0000
  O   O39       1.0  0.62071  0.84904  0.59460  1.0000
  O   O40       1.0  0.81763  0.10500  0.92793  1.0000
  O   O41       1.0  0.89500  0.71262  0.92793  1.0000
  O   O42       1.0  0.28738  0.18237  0.92793  1.0000
  O   O43       1.0  0.48429  0.43834  0.26127  1.0000
  O   O44       1.0  0.56166  0.04596  0.26127  1.0000
  O   O45       1.0  0.95404  0.51571  0.26127  1.0000
  O   O46       1.0  0.84904  0.22833  0.40540  1.0000
  O   O47       1.0  0.77167  0.62071  0.40540  1.0000
  O   O48       1.0  0.37929  0.15096  0.40540  1.0000
  O   O49       1.0  0.18237  0.89500  0.07207  1.0000
  O   O50       1.0  0.10500  0.28738  0.07207  1.0000
  O   O51       1.0  0.71262  0.81763  0.07207  1.0000
  O   O52       1.0  0.51571  0.56166  0.73873  1.0000
  O   O53       1.0  0.43834  0.95404  0.73873  1.0000
  O   O54       1.0  0.04596  0.48429  0.73873  1.0000
  O   O55       1.0  0.11538  0.71742  0.48660  1.0000
  O   O56       1.0  0.28258  0.39796  0.48660  1.0000
  O   O57       1.0  0.60204  0.88462  0.48660  1.0000
  O   O58       1.0  0.78205  0.05075  0.81993  1.0000
  O   O59       1.0  0.94925  0.73129  0.81993  1.0000
  O   O60       1.0  0.26871  0.21795  0.81993  1.0000
  O   O61       1.0  0.44871  0.38409  0.15327  1.0000
  O   O62       1.0  0.61591  0.06463  0.15327  1.0000
  O   O63       1.0  0.93537  0.55129  0.15327  1.0000
  O   O64       1.0  0.88462  0.28258  0.51340  1.0000
  O   O65       1.0  0.71742  0.60204  0.51340  1.0000
  O   O66       1.0  0.39796  0.11538  0.51340  1.0000
  O   O67       1.0  0.21795  0.94925  0.18007  1.0000
  O   O68       1.0  0.05075  0.26871  0.18007  1.0000
  O   O69       1.0  0.73129  0.78205  0.18007  1.0000
  O   O70       1.0  0.55129  0.61591  0.84673  1.0000
  O   O71       1.0  0.38409  0.93537  0.84673  1.0000
  O   O72       1.0  0.06463  0.44871  0.84673  1.0000
  N   N1        1.0  0.97160  0.65730  0.27980  1.0000
  N   N2        1.0  0.34270  0.31430  0.27980  1.0000
  N   N3        1.0  0.68570  0.02840  0.27980  1.0000
  N   N4        1.0  0.63827  0.99063  0.61313  1.0000
  N   N5        1.0  0.00937  0.64763  0.61313  1.0000
  N   N6        1.0  0.35237  0.36173  0.61313  1.0000
  N   N7        1.0  0.30493  0.32397  0.94647  1.0000
  N   N8        1.0  0.67603  0.98097  0.94647  1.0000
  N   N9        1.0  0.01903  0.69507  0.94647  1.0000
  N   N10       1.0  0.02840  0.34270  0.72020  1.0000
  N   N11       1.0  0.65730  0.68570  0.72020  1.0000
  N   N12       1.0  0.31430  0.97160  0.72020  1.0000
  N   N13       1.0  0.36173  0.00937  0.38687  1.0000
  N   N14       1.0  0.99063  0.35237  0.38687  1.0000
  N   N15       1.0  0.64763  0.63827  0.38687  1.0000
  N   N16       1.0  0.69507  0.67603  0.05353  1.0000
  N   N17       1.0  0.32397  0.01903  0.05353  1.0000
  N   N18       1.0  0.98097  0.30493  0.05353  1.0000
  N   N19       1.0  0.00779  0.64786  0.25700  1.0000
  N   N20       1.0  0.35214  0.35993  0.25700  1.0000
  N   N21       1.0  0.64007  0.99221  0.25700  1.0000
  N   N22       1.0  0.67446  0.98119  0.59033  1.0000
  N   N23       1.0  0.01881  0.69326  0.59033  1.0000
  N   N24       1.0  0.30674  0.32554  0.59033  1.0000
  N   N25       1.0  0.34112  0.31453  0.92367  1.0000
  N   N26       1.0  0.68547  0.02660  0.92367  1.0000
  N   N27       1.0  0.97340  0.65888  0.92367  1.0000
  N   N28       1.0  0.99221  0.35214  0.74300  1.0000
  N   N29       1.0  0.64786  0.64007  0.74300  1.0000
  N   N30       1.0  0.35993  0.00779  0.74300  1.0000
  N   N31       1.0  0.32554  0.01881  0.40967  1.0000
  N   N32       1.0  0.98119  0.30674  0.40967  1.0000
  N   N33       1.0  0.69326  0.67446  0.40967  1.0000
  N   N34       1.0  0.65888  0.68547  0.07633  1.0000
  N   N35       1.0  0.31453  0.97340  0.07633  1.0000
  N   N36       1.0  0.02660  0.34112  0.07633  1.0000
  N   N37       1.0  0.98413  0.68470  0.34930  1.0000
  N   N38       1.0  0.31530  0.29943  0.34930  1.0000
  N   N39       1.0  0.70057  0.01587  0.34930  1.0000
  N   N40       1.0  0.65080  0.01803  0.68263  1.0000
  N   N41       1.0  0.98197  0.63276  0.68263  1.0000
  N   N42       1.0  0.36724  0.34920  0.68263  1.0000
  N   N43       1.0  0.31746  0.35137  0.01597  1.0000
  N   N44       1.0  0.64863  0.96610  0.01597  1.0000
  N   N45       1.0  0.03390  0.68254  0.01597  1.0000
  N   N46       1.0  0.01587  0.31530  0.65070  1.0000
  N   N47       1.0  0.68470  0.70057  0.65070  1.0000
  N   N48       1.0  0.29943  0.98413  0.65070  1.0000
  N   N49       1.0  0.34920  0.98197  0.31737  1.0000
  N   N50       1.0  0.01803  0.36724  0.31737  1.0000
  N   N51       1.0  0.63276  0.65080  0.31737  1.0000
  N   N52       1.0  0.68254  0.64863  0.98403  1.0000
  N   N53       1.0  0.35137  0.03390  0.98403  1.0000
  N   N54       1.0  0.96610  0.31746  0.98403  1.0000
  N   N55       1.0  0.08670  0.67350  0.31780  1.0000
  N   N56       1.0  0.32650  0.41320  0.31780  1.0000
  N   N57       1.0  0.58680  0.91330  0.31780  1.0000
  N   N58       1.0  0.75337  0.00683  0.65113  1.0000
  N   N59       1.0  0.99317  0.74653  0.65113  1.0000
  N   N60       1.0  0.25347  0.24663  0.65113  1.0000
  N   N61       1.0  0.42003  0.34017  0.98447  1.0000
  N   N62       1.0  0.65983  0.07987  0.98447  1.0000
  N   N63       1.0  0.92013  0.57997  0.98447  1.0000
  N   N64       1.0  0.91330  0.32650  0.68220  1.0000
  N   N65       1.0  0.67350  0.58680  0.68220  1.0000
  N   N66       1.0  0.41320  0.08670  0.68220  1.0000
  N   N67       1.0  0.24663  0.99317  0.34887  1.0000
  N   N68       1.0  0.00683  0.25347  0.34887  1.0000
  N   N69       1.0  0.74653  0.75337  0.34887  1.0000
  N   N70       1.0  0.57997  0.65983  0.01553  1.0000
  N   N71       1.0  0.34017  0.92013  0.01553  1.0000
  N   N72       1.0  0.07987  0.42003  0.01553  1.0000
  H   H181      1.0  0.09420  0.65990  0.27590  1.0000
  H   H182      1.0  0.34010  0.43430  0.27590  1.0000
  H   H183      1.0  0.56570  0.90580  0.27590  1.0000
  H   H184      1.0  0.76087  0.99323  0.60923  1.0000
  H   H185      1.0  0.00677  0.76763  0.60923  1.0000
  H   H186      1.0  0.23237  0.23913  0.60923  1.0000
  H   H187      1.0  0.42753  0.32657  0.94257  1.0000
  H   H188      1.0  0.67343  0.10097  0.94257  1.0000
  H   H189      1.0  0.89903  0.57247  0.94257  1.0000
  H   H190      1.0  0.90580  0.34010  0.72410  1.0000
  H   H191      1.0  0.65990  0.56570  0.72410  1.0000
  H   H192      1.0  0.43430  0.09420  0.72410  1.0000
  H   H193      1.0  0.23913  0.00677  0.39077  1.0000
  H   H194      1.0  0.99323  0.23237  0.39077  1.0000
  H   H195      1.0  0.76763  0.76087  0.39077  1.0000
  H   H196      1.0  0.57247  0.67343  0.05743  1.0000
  H   H197      1.0  0.32657  0.89903  0.05743  1.0000
  H   H198      1.0  0.10097  0.42753  0.05743  1.0000
  H   H199      1.0  0.10740  0.68890  0.35960  1.0000
  H   H200      1.0  0.31110  0.41850  0.35960  1.0000
  H   H201      1.0  0.58150  0.89260  0.35960  1.0000
  H   H202      1.0  0.77407  0.02223  0.69293  1.0000
  H   H203      1.0  0.97777  0.75183  0.69293  1.0000
  H   H204      1.0  0.24817  0.22593  0.69293  1.0000
  H   H205      1.0  0.44073  0.35557  0.02627  1.0000
  H   H206      1.0  0.64443  0.08517  0.02627  1.0000
  H   H207      1.0  0.91483  0.55927  0.02627  1.0000
  H   H208      1.0  0.89260  0.31110  0.64040  1.0000
  H   H209      1.0  0.68890  0.58150  0.64040  1.0000
  H   H210      1.0  0.41850  0.10740  0.64040  1.0000
  H   H211      1.0  0.22593  0.97777  0.30707  1.0000
  H   H212      1.0  0.02223  0.24817  0.30707  1.0000
  H   H213      1.0  0.75183  0.77407  0.30707  1.0000
  H   H214      1.0  0.55927  0.64443  0.97373  1.0000
  H   H215      1.0  0.35557  0.91483  0.97373  1.0000
  H   H216      1.0  0.08517  0.44073  0.97373  1.0000
  N   N73       1.0  0.02896  0.69370  0.37630  1.0000
  N   N74       1.0  0.30630  0.33526  0.37630  1.0000
  N   N75       1.0  0.66474  0.97104  0.37630  1.0000
  N   N76       1.0  0.69563  0.02703  0.70963  1.0000
  N   N77       1.0  0.97297  0.66859  0.70963  1.0000
  N   N78       1.0  0.33141  0.30437  0.70963  1.0000
  N   N79       1.0  0.36229  0.36037  0.04297  1.0000
  N   N80       1.0  0.63963  0.00193  0.04297  1.0000
  N   N81       1.0  0.99807  0.63771  0.04297  1.0000
  N   N82       1.0  0.97104  0.30630  0.62370  1.0000
  N   N83       1.0  0.69370  0.66474  0.62370  1.0000
  N   N84       1.0  0.33526  0.02896  0.62370  1.0000
  N   N85       1.0  0.30437  0.97297  0.29037  1.0000
  N   N86       1.0  0.02703  0.33141  0.29037  1.0000
  N   N87       1.0  0.66859  0.69563  0.29037  1.0000
  N   N88       1.0  0.63771  0.63963  0.95703  1.0000
  N   N89       1.0  0.36037  0.99807  0.95703  1.0000
  N   N90       1.0  0.00193  0.36229  0.95703  1.0000
