data_image0
_chemical_formula_structural       Zn18C54H18C18H18C36H18C18H18C36H18C54H18C18H18C36H18C18H18C36H18C18O72N72H36N18
_chemical_formula_sum              "Zn18 C342 H216 O72 N90"
_cell_length_a       31.3837
_cell_length_b       31.3837
_cell_length_c       15.0411
_cell_angle_alpha    90
_cell_angle_beta     90
_cell_angle_gamma    120

_space_group_name_H-M_alt    "P 1"
_space_group_IT_number       1

loop_
  _space_group_symop_operation_xyz
  'x, y, z'

loop_
  _atom_site_type_symbol
  _atom_site_label
  _atom_site_symmetry_multiplicity
  _atom_site_fract_x
  _atom_site_fract_y
  _atom_site_fract_z
  _atom_site_occupancy
  Zn  Zn1       1.0  0.06126  0.73099  0.48673  1.0000
  Zn  Zn2       1.0  0.26901  0.33027  0.48673  1.0000
  Zn  Zn3       1.0  0.66973  0.93874  0.48673  1.0000
  Zn  Zn4       1.0  0.72793  0.06433  0.82006  1.0000
  Zn  Zn5       1.0  0.93567  0.66361  0.82006  1.0000
  Zn  Zn6       1.0  0.33639  0.27207  0.82006  1.0000
  Zn  Zn7       1.0  0.39460  0.39766  0.15340  1.0000
  Zn  Zn8       1.0  0.60234  0.99694  0.15340  1.0000
  Zn  Zn9       1.0  0.00306  0.60540  0.15340  1.0000
  Zn  Zn10      1.0  0.93874  0.26901  0.51327  1.0000
  Zn  Zn11      1.0  0.73099  0.66973  0.51327  1.0000
  Zn  Zn12      1.0  0.33027  0.06126  0.51327  1.0000
  Zn  Zn13      1.0  0.27207  0.93567  0.17994  1.0000
  Zn  Zn14      1.0  0.06433  0.33639  0.17994  1.0000
  Zn  Zn15      1.0  0.66361  0.72793  0.17994  1.0000
  Zn  Zn16      1.0  0.60540  0.60234  0.84660  1.0000
  Zn  Zn17      1.0  0.39766  0.00306  0.84660  1.0000
  Zn  Zn18      1.0  0.99694  0.39460  0.84660  1.0000
  C   C1        1.0  0.14864  0.73902  0.54580  1.0000
  C   C2        1.0  0.26098  0.40962  0.54580  1.0000
  C   C3        1.0  0.59038  0.85136  0.54580  1.0000
  C   C4        1.0  0.81531  0.07235  0.87913  1.0000
  C   C5        1.0  0.92765  0.74295  0.87913  1.0000
  C   C6        1.0  0.25705  0.18469  0.87913  1.0000
  C   C7        1.0  0.48197  0.40569  0.21247  1.0000
  C   C8        1.0  0.59431  0.07629  0.21247  1.0000
  C   C9        1.0  0.92371  0.51803  0.21247  1.0000
  C   C10       1.0  0.85136  0.26098  0.45420  1.0000
  C   C11       1.0  0.73902  0.59038  0.45420  1.0000
  C   C12       1.0  0.40962  0.14864  0.45420  1.0000
  C   C13       1.0  0.18469  0.92765  0.12087  1.0000
  C   C14       1.0  0.07235  0.25705  0.12087  1.0000
  C   C15       1.0  0.74295  0.81531  0.12087  1.0000
  C   C16       1.0  0.51803  0.59431  0.78753  1.0000
  C   C17       1.0  0.40569  0.92371  0.78753  1.0000
  C   C18       1.0  0.07629  0.48197  0.78753  1.0000
  C   C19       1.0  0.18600  0.72225  0.55150  1.0000
  C   C20       1.0  0.27775  0.46375  0.55150  1.0000
  C   C21       1.0  0.53625  0.81400  0.55150  1.0000
  C   C22       1.0  0.85267  0.05558  0.88483  1.0000
  C   C23       1.0  0.94442  0.79708  0.88483  1.0000
  C   C24       1.0  0.20292  0.14733  0.88483  1.0000
  C   C25       1.0  0.51933  0.38892  0.21817  1.0000
  C   C26       1.0  0.61108  0.13042  0.21817  1.0000
  C   C27       1.0  0.86958  0.48067  0.21817  1.0000
  C   C28       1.0  0.81400  0.27775  0.44850  1.0000
  C   C29       1.0  0.72225  0.53625  0.44850  1.0000
  C   C30       1.0  0.46375  0.18600  0.44850  1.0000
  C   C31       1.0  0.14733  0.94442  0.11517  1.0000
  C   C32       1.0  0.05558  0.20292  0.11517  1.0000
  C   C33       1.0  0.79708  0.85267  0.11517  1.0000
  C   C34       1.0  0.48067  0.61108  0.78183  1.0000
  C   C35       1.0  0.38892  0.86958  0.78183  1.0000
  C   C36       1.0  0.13042  0.51933  0.78183  1.0000
  C   C37       1.0  0.17617  0.67775  0.51420  1.0000
  C   C38       1.0  0.32225  0.49842  0.51420  1.0000
  C   C39       1.0  0.50158  0.82383  0.51420  1.0000
  C   C40       1.0  0.84284  0.01108  0.84753  1.0000
  C   C41       1.0  0.98892  0.83175  0.84753  1.0000
  C   C42       1.0  0.16825  0.15716  0.84753  1.0000
  C   C43       1.0  0.50950  0.34442  0.18087  1.0000
  C   C44       1.0  0.65558  0.16509  0.18087  1.0000
  C   C45       1.0  0.83491  0.49050  0.18087  1.0000
  C   C46       1.0  0.82383  0.32225  0.48580  1.0000
  C   C47       1.0  0.67775  0.50158  0.48580  1.0000
  C   C48       1.0  0.49842  0.17617  0.48580  1.0000
  C   C49       1.0  0.15716  0.98892  0.15247  1.0000
  C   C50       1.0  0.01108  0.16825  0.15247  1.0000
  C   C51       1.0  0.83175  0.84284  0.15247  1.0000
  C   C52       1.0  0.49050  0.65558  0.81913  1.0000
  C   C53       1.0  0.34442  0.83491  0.81913  1.0000
  C   C54       1.0  0.16509  0.50950  0.81913  1.0000
  H   H1        1.0  0.14580  0.65740  0.48790  1.0000
  H   H2        1.0  0.34260  0.48840  0.48790  1.0000
  H   H3        1.0  0.51160  0.85420  0.48790  1.0000
  H   H4        1.0  0.81247  0.99073  0.82123  1.0000
  H   H5        1.0  0.00927  0.82173  0.82123  1.0000
  H   H6        1.0  0.17827  0.18753  0.82123  1.0000
  H   H7        1.0  0.47913  0.32407  0.15457  1.0000
  H   H8        1.0  0.67593  0.15507  0.15457  1.0000
  H   H9        1.0  0.84493  0.52087  0.15457  1.0000
  H   H10       1.0  0.85420  0.34260  0.51210  1.0000
  H   H11       1.0  0.65740  0.51160  0.51210  1.0000
  H   H12       1.0  0.48840  0.14580  0.51210  1.0000
  H   H13       1.0  0.18753  0.00927  0.17877  1.0000
  H   H14       1.0  0.99073  0.17827  0.17877  1.0000
  H   H15       1.0  0.82173  0.81247  0.17877  1.0000
  H   H16       1.0  0.52087  0.67593  0.84543  1.0000
  H   H17       1.0  0.32407  0.84493  0.84543  1.0000
  H   H18       1.0  0.15507  0.47913  0.84543  1.0000
  C   C55       1.0  0.21149  0.66367  0.51600  1.0000
  C   C56       1.0  0.33633  0.54782  0.51600  1.0000
  C   C57       1.0  0.45218  0.78851  0.51600  1.0000
  C   C58       1.0  0.87816  0.99700  0.84933  1.0000
  C   C59       1.0  0.00300  0.88115  0.84933  1.0000
  C   C60       1.0  0.11885  0.12184  0.84933  1.0000
  C   C61       1.0  0.54482  0.33034  0.18267  1.0000
  C   C62       1.0  0.66966  0.21449  0.18267  1.0000
  C   C63       1.0  0.78551  0.45518  0.18267  1.0000
  C   C64       1.0  0.78851  0.33633  0.48400  1.0000
  C   C65       1.0  0.66367  0.45218  0.48400  1.0000
  C   C66       1.0  0.54782  0.21149  0.48400  1.0000
  C   C67       1.0  0.12184  0.00300  0.15067  1.0000
  C   C68       1.0  0.99700  0.11885  0.15067  1.0000
  C   C69       1.0  0.88115  0.87816  0.15067  1.0000
  C   C70       1.0  0.45518  0.66966  0.81733  1.0000
  C   C71       1.0  0.33034  0.78551  0.81733  1.0000
  C   C72       1.0  0.21449  0.54482  0.81733  1.0000
  H   H19       1.0  0.20430  0.63350  0.49170  1.0000
  H   H20       1.0  0.36650  0.57080  0.49170  1.0000
  H   H21       1.0  0.42920  0.79570  0.49170  1.0000
  H   H22       1.0  0.87097  0.96683  0.82503  1.0000
  H   H23       1.0  0.03317  0.90413  0.82503  1.0000
  H   H24       1.0  0.09587  0.12903  0.82503  1.0000
  H   H25       1.0  0.53763  0.30017  0.15837  1.0000
  H   H26       1.0  0.69983  0.23747  0.15837  1.0000
  H   H27       1.0  0.76253  0.46237  0.15837  1.0000
  H   H28       1.0  0.79570  0.36650  0.50830  1.0000
  H   H29       1.0  0.63350  0.42920  0.50830  1.0000
  H   H30       1.0  0.57080  0.20430  0.50830  1.0000
  H   H31       1.0  0.12903  0.03317  0.17497  1.0000
  H   H32       1.0  0.96683  0.09587  0.17497  1.0000
  H   H33       1.0  0.90413  0.87097  0.17497  1.0000
  H   H34       1.0  0.46237  0.69983  0.84163  1.0000
  H   H35       1.0  0.30017  0.76253  0.84163  1.0000
  H   H36       1.0  0.23747  0.53763  0.84163  1.0000
  C   C73       1.0  0.25809  0.69400  0.55392  1.0000
  C   C74       1.0  0.30600  0.56409  0.55392  1.0000
  C   C75       1.0  0.43591  0.74191  0.55392  1.0000
  C   C76       1.0  0.92476  0.02733  0.88725  1.0000
  C   C77       1.0  0.97267  0.89742  0.88725  1.0000
  C   C78       1.0  0.10258  0.07524  0.88725  1.0000
  C   C79       1.0  0.59142  0.36067  0.22059  1.0000
  C   C80       1.0  0.63933  0.23076  0.22059  1.0000
  C   C81       1.0  0.76924  0.40858  0.22059  1.0000
  C   C82       1.0  0.74191  0.30600  0.44608  1.0000
  C   C83       1.0  0.69400  0.43591  0.44608  1.0000
  C   C84       1.0  0.56409  0.25809  0.44608  1.0000
  C   C85       1.0  0.07524  0.97267  0.11275  1.0000
  C   C86       1.0  0.02733  0.10258  0.11275  1.0000
  C   C87       1.0  0.89742  0.92476  0.11275  1.0000
  C   C88       1.0  0.40858  0.63933  0.77941  1.0000
  C   C89       1.0  0.36067  0.76924  0.77941  1.0000
  C   C90       1.0  0.23076  0.59142  0.77941  1.0000
  C   C91       1.0  0.26604  0.73728  0.59470  1.0000
  C   C92       1.0  0.26272  0.52876  0.59470  1.0000
  C   C93       1.0  0.47124  0.73396  0.59470  1.0000
  C   C94       1.0  0.93271  0.07061  0.92803  1.0000
  C   C95       1.0  0.92939  0.86209  0.92803  1.0000
  C   C96       1.0  0.13791  0.06729  0.92803  1.0000
  C   C97       1.0  0.59937  0.40395  0.26137  1.0000
  C   C98       1.0  0.59605  0.19543  0.26137  1.0000
  C   C99       1.0  0.80457  0.40063  0.26137  1.0000
  C   C100      1.0  0.73396  0.26272  0.40530  1.0000
  C   C101      1.0  0.73728  0.47124  0.40530  1.0000
  C   C102      1.0  0.52876  0.26604  0.40530  1.0000
  C   C103      1.0  0.06729  0.92939  0.07197  1.0000
  C   C104      1.0  0.07061  0.13791  0.07197  1.0000
  C   C105      1.0  0.86209  0.93271  0.07197  1.0000
  C   C106      1.0  0.40063  0.59605  0.73863  1.0000
  C   C107      1.0  0.40395  0.80457  0.73863  1.0000
  C   C108      1.0  0.19543  0.59937  0.73863  1.0000
  H   H37       1.0  0.29590  0.75720  0.62310  1.0000
  H   H38       1.0  0.24280  0.53870  0.62310  1.0000
  H   H39       1.0  0.46130  0.70410  0.62310  1.0000
  H   H40       1.0  0.96257  0.09053  0.95643  1.0000
  H   H41       1.0  0.90947  0.87203  0.95643  1.0000
  H   H42       1.0  0.12797  0.03743  0.95643  1.0000
  H   H43       1.0  0.62923  0.42387  0.28977  1.0000
  H   H44       1.0  0.57613  0.20537  0.28977  1.0000
  H   H45       1.0  0.79463  0.37077  0.28977  1.0000
  H   H46       1.0  0.70410  0.24280  0.37690  1.0000
  H   H47       1.0  0.75720  0.46130  0.37690  1.0000
  H   H48       1.0  0.53870  0.29590  0.37690  1.0000
  H   H49       1.0  0.03743  0.90947  0.04357  1.0000
  H   H50       1.0  0.09053  0.12797  0.04357  1.0000
  H   H51       1.0  0.87203  0.96257  0.04357  1.0000
  H   H52       1.0  0.37077  0.57613  0.71023  1.0000
  H   H53       1.0  0.42387  0.79463  0.71023  1.0000
  H   H54       1.0  0.20537  0.62923  0.71023  1.0000
  C   C109      1.0  0.23084  0.75127  0.59390  1.0000
  C   C110      1.0  0.24873  0.47957  0.59390  1.0000
  C   C111      1.0  0.52043  0.76916  0.59390  1.0000
  C   C112      1.0  0.89751  0.08460  0.92723  1.0000
  C   C113      1.0  0.91540  0.81290  0.92723  1.0000
  C   C114      1.0  0.18710  0.10249  0.92723  1.0000
  C   C115      1.0  0.56417  0.41794  0.26057  1.0000
  C   C116      1.0  0.58206  0.14624  0.26057  1.0000
  C   C117      1.0  0.85376  0.43583  0.26057  1.0000
  C   C118      1.0  0.76916  0.24873  0.40610  1.0000
  C   C119      1.0  0.75127  0.52043  0.40610  1.0000
  C   C120      1.0  0.47957  0.23084  0.40610  1.0000
  C   C121      1.0  0.10249  0.91540  0.07277  1.0000
  C   C122      1.0  0.08460  0.18710  0.07277  1.0000
  C   C123      1.0  0.81290  0.89751  0.07277  1.0000
  C   C124      1.0  0.43583  0.58206  0.73943  1.0000
  C   C125      1.0  0.41794  0.85376  0.73943  1.0000
  C   C126      1.0  0.14624  0.56417  0.73943  1.0000
  H   H55       1.0  0.23710  0.78030  0.62190  1.0000
  H   H56       1.0  0.21970  0.45680  0.62190  1.0000
  H   H57       1.0  0.54320  0.76290  0.62190  1.0000
  H   H58       1.0  0.90377  0.11363  0.95523  1.0000
  H   H59       1.0  0.88637  0.79013  0.95523  1.0000
  H   H60       1.0  0.20987  0.09623  0.95523  1.0000
  H   H61       1.0  0.57043  0.44697  0.28857  1.0000
  H   H62       1.0  0.55303  0.12347  0.28857  1.0000
  H   H63       1.0  0.87653  0.42957  0.28857  1.0000
  H   H64       1.0  0.76290  0.21970  0.37810  1.0000
  H   H65       1.0  0.78030  0.54320  0.37810  1.0000
  H   H66       1.0  0.45680  0.23710  0.37810  1.0000
  H   H67       1.0  0.09623  0.88637  0.04477  1.0000
  H   H68       1.0  0.11363  0.20987  0.04477  1.0000
  H   H69       1.0  0.79013  0.90377  0.04477  1.0000
  H   H70       1.0  0.42957  0.55303  0.71143  1.0000
  H   H71       1.0  0.44697  0.87653  0.71143  1.0000
  H   H72       1.0  0.12347  0.57043  0.71143  1.0000
  C   C127      1.0  0.29646  0.68001  0.55190  1.0000
  C   C128      1.0  0.31999  0.61645  0.55190  1.0000
  C   C129      1.0  0.38355  0.70354  0.55190  1.0000
  C   C130      1.0  0.96313  0.01334  0.88523  1.0000
  C   C131      1.0  0.98666  0.94978  0.88523  1.0000
  C   C132      1.0  0.05022  0.03687  0.88523  1.0000
  C   C133      1.0  0.62979  0.34668  0.21857  1.0000
  C   C134      1.0  0.65332  0.28312  0.21857  1.0000
  C   C135      1.0  0.71688  0.37021  0.21857  1.0000
  C   C136      1.0  0.70354  0.31999  0.44810  1.0000
  C   C137      1.0  0.68001  0.38355  0.44810  1.0000
  C   C138      1.0  0.61645  0.29646  0.44810  1.0000
  C   C139      1.0  0.03687  0.98666  0.11477  1.0000
  C   C140      1.0  0.01334  0.05022  0.11477  1.0000
  C   C141      1.0  0.94978  0.96313  0.11477  1.0000
  C   C142      1.0  0.37021  0.65332  0.78143  1.0000
  C   C143      1.0  0.34668  0.71688  0.78143  1.0000
  C   C144      1.0  0.28312  0.62979  0.78143  1.0000
  C   C145      1.0  0.34620  0.71595  0.55146  1.0000
  C   C146      1.0  0.28405  0.63025  0.55146  1.0000
  C   C147      1.0  0.36975  0.65380  0.55146  1.0000
  C   C148      1.0  0.01287  0.04928  0.88479  1.0000
  C   C149      1.0  0.95072  0.96358  0.88479  1.0000
  C   C150      1.0  0.03642  0.98713  0.88479  1.0000
  C   C151      1.0  0.67953  0.38262  0.21813  1.0000
  C   C152      1.0  0.61738  0.29692  0.21813  1.0000
  C   C153      1.0  0.70308  0.32047  0.21813  1.0000
  C   C154      1.0  0.65380  0.28405  0.44854  1.0000
  C   C155      1.0  0.71595  0.36975  0.44854  1.0000
  C   C156      1.0  0.63025  0.34620  0.44854  1.0000
  C   C157      1.0  0.98713  0.95072  0.11521  1.0000
  C   C158      1.0  0.04928  0.03642  0.11521  1.0000
  C   C159      1.0  0.96358  0.01287  0.11521  1.0000
  C   C160      1.0  0.32047  0.61738  0.78187  1.0000
  C   C161      1.0  0.38262  0.70308  0.78187  1.0000
  C   C162      1.0  0.29692  0.67953  0.78187  1.0000
  H   H73       1.0  0.35490  0.74900  0.55090  1.0000
  H   H74       1.0  0.25100  0.60590  0.55090  1.0000
  H   H75       1.0  0.39410  0.64510  0.55090  1.0000
  H   H76       1.0  0.02157  0.08233  0.88423  1.0000
  H   H77       1.0  0.91767  0.93923  0.88423  1.0000
  H   H78       1.0  0.06077  0.97843  0.88423  1.0000
  H   H79       1.0  0.68823  0.41567  0.21757  1.0000
  H   H80       1.0  0.58433  0.27257  0.21757  1.0000
  H   H81       1.0  0.72743  0.31177  0.21757  1.0000
  H   H82       1.0  0.64510  0.25100  0.44910  1.0000
  H   H83       1.0  0.74900  0.39410  0.44910  1.0000
  H   H84       1.0  0.60590  0.35490  0.44910  1.0000
  H   H85       1.0  0.97843  0.91767  0.11577  1.0000
  H   H86       1.0  0.08233  0.06077  0.11577  1.0000
  H   H87       1.0  0.93923  0.02157  0.11577  1.0000
  H   H88       1.0  0.31177  0.58433  0.78243  1.0000
  H   H89       1.0  0.41567  0.72743  0.78243  1.0000
  H   H90       1.0  0.27257  0.68823  0.78243  1.0000
  C   C163      1.0  0.07503  0.81984  0.43320  1.0000
  C   C164      1.0  0.18016  0.25519  0.43320  1.0000
  C   C165      1.0  0.74481  0.92497  0.43320  1.0000
  C   C166      1.0  0.74170  0.15317  0.76653  1.0000
  C   C167      1.0  0.84683  0.58852  0.76653  1.0000
  C   C168      1.0  0.41148  0.25830  0.76653  1.0000
  C   C169      1.0  0.40836  0.48651  0.09987  1.0000
  C   C170      1.0  0.51349  0.92186  0.09987  1.0000
  C   C171      1.0  0.07814  0.59164  0.09987  1.0000
  C   C172      1.0  0.92497  0.18016  0.56680  1.0000
  C   C173      1.0  0.81984  0.74481  0.56680  1.0000
  C   C174      1.0  0.25519  0.07503  0.56680  1.0000
  C   C175      1.0  0.25830  0.84683  0.23347  1.0000
  C   C176      1.0  0.15317  0.41148  0.23347  1.0000
  C   C177      1.0  0.58852  0.74170  0.23347  1.0000
  C   C178      1.0  0.59164  0.51349  0.90013  1.0000
  C   C179      1.0  0.48651  0.07814  0.90013  1.0000
  C   C180      1.0  0.92186  0.40836  0.90013  1.0000
  C   C181      1.0  0.05805  0.85583  0.41630  1.0000
  C   C182      1.0  0.14417  0.20222  0.41630  1.0000
  C   C183      1.0  0.79778  0.94195  0.41630  1.0000
  C   C184      1.0  0.72472  0.18916  0.74963  1.0000
  C   C185      1.0  0.81084  0.53555  0.74963  1.0000
  C   C186      1.0  0.46445  0.27528  0.74963  1.0000
  C   C187      1.0  0.39138  0.52250  0.08297  1.0000
  C   C188      1.0  0.47750  0.86889  0.08297  1.0000
  C   C189      1.0  0.13111  0.60862  0.08297  1.0000
  C   C190      1.0  0.94195  0.14417  0.58370  1.0000
  C   C191      1.0  0.85583  0.79778  0.58370  1.0000
  C   C192      1.0  0.20222  0.05805  0.58370  1.0000
  C   C193      1.0  0.27528  0.81084  0.25037  1.0000
  C   C194      1.0  0.18916  0.46445  0.25037  1.0000
  C   C195      1.0  0.53555  0.72472  0.25037  1.0000
  C   C196      1.0  0.60862  0.47750  0.91703  1.0000
  C   C197      1.0  0.52250  0.13111  0.91703  1.0000
  C   C198      1.0  0.86889  0.39138  0.91703  1.0000
  C   C199      1.0  0.08447  0.89570  0.35920  1.0000
  C   C200      1.0  0.10430  0.18877  0.35920  1.0000
  C   C201      1.0  0.81123  0.91553  0.35920  1.0000
  C   C202      1.0  0.75114  0.22903  0.69253  1.0000
  C   C203      1.0  0.77097  0.52210  0.69253  1.0000
  C   C204      1.0  0.47790  0.24886  0.69253  1.0000
  C   C205      1.0  0.41780  0.56237  0.02587  1.0000
  C   C206      1.0  0.43763  0.85544  0.02587  1.0000
  C   C207      1.0  0.14456  0.58220  0.02587  1.0000
  C   C208      1.0  0.91553  0.10430  0.64080  1.0000
  C   C209      1.0  0.89570  0.81123  0.64080  1.0000
  C   C210      1.0  0.18877  0.08447  0.64080  1.0000
  C   C211      1.0  0.24886  0.77097  0.30747  1.0000
  C   C212      1.0  0.22903  0.47790  0.30747  1.0000
  C   C213      1.0  0.52210  0.75114  0.30747  1.0000
  C   C214      1.0  0.58220  0.43763  0.97413  1.0000
  C   C215      1.0  0.56237  0.14456  0.97413  1.0000
  C   C216      1.0  0.85544  0.41780  0.97413  1.0000
  H   H91       1.0  0.11240  0.89940  0.33070  1.0000
  H   H92       1.0  0.10060  0.21300  0.33070  1.0000
  H   H93       1.0  0.78700  0.88760  0.33070  1.0000
  H   H94       1.0  0.77907  0.23273  0.66403  1.0000
  H   H95       1.0  0.76727  0.54633  0.66403  1.0000
  H   H96       1.0  0.45367  0.22093  0.66403  1.0000
  H   H97       1.0  0.44573  0.56607  0.99737  1.0000
  H   H98       1.0  0.43393  0.87967  0.99737  1.0000
  H   H99       1.0  0.12033  0.55427  0.99737  1.0000
  H   H100      1.0  0.88760  0.10060  0.66930  1.0000
  H   H101      1.0  0.89940  0.78700  0.66930  1.0000
  H   H102      1.0  0.21300  0.11240  0.66930  1.0000
  H   H103      1.0  0.22093  0.76727  0.33597  1.0000
  H   H104      1.0  0.23273  0.45367  0.33597  1.0000
  H   H105      1.0  0.54633  0.77907  0.33597  1.0000
  H   H106      1.0  0.55427  0.43393  0.00263  1.0000
  H   H107      1.0  0.56607  0.12033  0.00263  1.0000
  H   H108      1.0  0.87967  0.44573  0.00263  1.0000
  C   C217      1.0  0.06952  0.92960  0.34470  1.0000
  C   C218      1.0  0.07040  0.13992  0.34470  1.0000
  C   C219      1.0  0.86008  0.93048  0.34470  1.0000
  C   C220      1.0  0.73619  0.26293  0.67803  1.0000
  C   C221      1.0  0.73707  0.47325  0.67803  1.0000
  C   C222      1.0  0.52675  0.26381  0.67803  1.0000
  C   C223      1.0  0.40285  0.59627  0.01137  1.0000
  C   C224      1.0  0.40373  0.80659  0.01137  1.0000
  C   C225      1.0  0.19341  0.59715  0.01137  1.0000
  C   C226      1.0  0.93048  0.07040  0.65530  1.0000
  C   C227      1.0  0.92960  0.86008  0.65530  1.0000
  C   C228      1.0  0.13992  0.06952  0.65530  1.0000
  C   C229      1.0  0.26381  0.73707  0.32197  1.0000
  C   C230      1.0  0.26293  0.52675  0.32197  1.0000
  C   C231      1.0  0.47325  0.73619  0.32197  1.0000
  C   C232      1.0  0.59715  0.40373  0.98863  1.0000
  C   C233      1.0  0.59627  0.19341  0.98863  1.0000
  C   C234      1.0  0.80659  0.40285  0.98863  1.0000
  H   H109      1.0  0.08810  0.95630  0.30770  1.0000
  H   H110      1.0  0.04370  0.13180  0.30770  1.0000
  H   H111      1.0  0.86820  0.91190  0.30770  1.0000
  H   H112      1.0  0.75477  0.28963  0.64103  1.0000
  H   H113      1.0  0.71037  0.46513  0.64103  1.0000
  H   H114      1.0  0.53487  0.24523  0.64103  1.0000
  H   H115      1.0  0.42143  0.62297  0.97437  1.0000
  H   H116      1.0  0.37703  0.79847  0.97437  1.0000
  H   H117      1.0  0.20153  0.57857  0.97437  1.0000
  H   H118      1.0  0.91190  0.04370  0.69230  1.0000
  H   H119      1.0  0.95630  0.86820  0.69230  1.0000
  H   H120      1.0  0.13180  0.08810  0.69230  1.0000
  H   H121      1.0  0.24523  0.71037  0.35897  1.0000
  H   H122      1.0  0.28963  0.53487  0.35897  1.0000
  H   H123      1.0  0.46513  0.75477  0.35897  1.0000
  H   H124      1.0  0.57857  0.37703  0.02563  1.0000
  H   H125      1.0  0.62297  0.20153  0.02563  1.0000
  H   H126      1.0  0.79847  0.42143  0.02563  1.0000
  C   C235      1.0  0.02734  0.92475  0.38419  1.0000
  C   C236      1.0  0.07525  0.10259  0.38419  1.0000
  C   C237      1.0  0.89741  0.97266  0.38419  1.0000
  C   C238      1.0  0.69401  0.25808  0.71752  1.0000
  C   C239      1.0  0.74192  0.43592  0.71752  1.0000
  C   C240      1.0  0.56408  0.30599  0.71752  1.0000
  C   C241      1.0  0.36067  0.59142  0.05086  1.0000
  C   C242      1.0  0.40858  0.76926  0.05086  1.0000
  C   C243      1.0  0.23074  0.63933  0.05086  1.0000
  C   C244      1.0  0.97266  0.07525  0.61581  1.0000
  C   C245      1.0  0.92475  0.89741  0.61581  1.0000
  C   C246      1.0  0.10259  0.02734  0.61581  1.0000
  C   C247      1.0  0.30599  0.74192  0.28248  1.0000
  C   C248      1.0  0.25808  0.56408  0.28248  1.0000
  C   C249      1.0  0.43592  0.69401  0.28248  1.0000
  C   C250      1.0  0.63933  0.40858  0.94914  1.0000
  C   C251      1.0  0.59142  0.23074  0.94914  1.0000
  C   C252      1.0  0.76926  0.36067  0.94914  1.0000
  C   C253      1.0  0.00008  0.88413  0.43920  1.0000
  C   C254      1.0  0.11587  0.11595  0.43920  1.0000
  C   C255      1.0  0.88405  0.99992  0.43920  1.0000
  C   C256      1.0  0.66675  0.21746  0.77253  1.0000
  C   C257      1.0  0.78254  0.44928  0.77253  1.0000
  C   C258      1.0  0.55072  0.33325  0.77253  1.0000
  C   C259      1.0  0.33341  0.55080  0.10587  1.0000
  C   C260      1.0  0.44920  0.78262  0.10587  1.0000
  C   C261      1.0  0.21738  0.66659  0.10587  1.0000
  C   C262      1.0  0.99992  0.11587  0.56080  1.0000
  C   C263      1.0  0.88413  0.88405  0.56080  1.0000
  C   C264      1.0  0.11595  0.00008  0.56080  1.0000
  C   C265      1.0  0.33325  0.78254  0.22747  1.0000
  C   C266      1.0  0.21746  0.55072  0.22747  1.0000
  C   C267      1.0  0.44928  0.66675  0.22747  1.0000
  C   C268      1.0  0.66659  0.44920  0.89413  1.0000
  C   C269      1.0  0.55080  0.21738  0.89413  1.0000
  C   C270      1.0  0.78262  0.33341  0.89413  1.0000
  H   H127      1.0  0.97120  0.87950  0.46510  1.0000
  H   H128      1.0  0.12050  0.09170  0.46510  1.0000
  H   H129      1.0  0.90830  0.02880  0.46510  1.0000
  H   H130      1.0  0.63787  0.21283  0.79843  1.0000
  H   H131      1.0  0.78717  0.42503  0.79843  1.0000
  H   H132      1.0  0.57497  0.36213  0.79843  1.0000
  H   H133      1.0  0.30453  0.54617  0.13177  1.0000
  H   H134      1.0  0.45383  0.75837  0.13177  1.0000
  H   H135      1.0  0.24163  0.69547  0.13177  1.0000
  H   H136      1.0  0.02880  0.12050  0.53490  1.0000
  H   H137      1.0  0.87950  0.90830  0.53490  1.0000
  H   H138      1.0  0.09170  0.97120  0.53490  1.0000
  H   H139      1.0  0.36213  0.78717  0.20157  1.0000
  H   H140      1.0  0.21283  0.57497  0.20157  1.0000
  H   H141      1.0  0.42503  0.63787  0.20157  1.0000
  H   H142      1.0  0.69547  0.45383  0.86823  1.0000
  H   H143      1.0  0.54617  0.24163  0.86823  1.0000
  H   H144      1.0  0.75837  0.30453  0.86823  1.0000
  C   C271      1.0  0.01560  0.85074  0.45550  1.0000
  C   C272      1.0  0.14926  0.16486  0.45550  1.0000
  C   C273      1.0  0.83514  0.98440  0.45550  1.0000
  C   C274      1.0  0.68227  0.18407  0.78883  1.0000
  C   C275      1.0  0.81593  0.49819  0.78883  1.0000
  C   C276      1.0  0.50181  0.31773  0.78883  1.0000
  C   C277      1.0  0.34893  0.51741  0.12217  1.0000
  C   C278      1.0  0.48259  0.83153  0.12217  1.0000
  C   C279      1.0  0.16847  0.65107  0.12217  1.0000
  C   C280      1.0  0.98440  0.14926  0.54450  1.0000
  C   C281      1.0  0.85074  0.83514  0.54450  1.0000
  C   C282      1.0  0.16486  0.01560  0.54450  1.0000
  C   C283      1.0  0.31773  0.81593  0.21117  1.0000
  C   C284      1.0  0.18407  0.50181  0.21117  1.0000
  C   C285      1.0  0.49819  0.68227  0.21117  1.0000
  C   C286      1.0  0.65107  0.48259  0.87783  1.0000
  C   C287      1.0  0.51741  0.16847  0.87783  1.0000
  C   C288      1.0  0.83153  0.34893  0.87783  1.0000
  H   H145      1.0  0.99730  0.82430  0.49330  1.0000
  H   H146      1.0  0.17570  0.17300  0.49330  1.0000
  H   H147      1.0  0.82700  0.00270  0.49330  1.0000
  H   H148      1.0  0.66397  0.15763  0.82663  1.0000
  H   H149      1.0  0.84237  0.50633  0.82663  1.0000
  H   H150      1.0  0.49367  0.33603  0.82663  1.0000
  H   H151      1.0  0.33063  0.49097  0.15997  1.0000
  H   H152      1.0  0.50903  0.83967  0.15997  1.0000
  H   H153      1.0  0.16033  0.66937  0.15997  1.0000
  H   H154      1.0  0.00270  0.17570  0.50670  1.0000
  H   H155      1.0  0.82430  0.82700  0.50670  1.0000
  H   H156      1.0  0.17300  0.99730  0.50670  1.0000
  H   H157      1.0  0.33603  0.84237  0.17337  1.0000
  H   H158      1.0  0.15763  0.49367  0.17337  1.0000
  H   H159      1.0  0.50633  0.66397  0.17337  1.0000
  H   H160      1.0  0.66937  0.50903  0.84003  1.0000
  H   H161      1.0  0.49097  0.16033  0.84003  1.0000
  H   H162      1.0  0.83967  0.33063  0.84003  1.0000
  C   C289      1.0  0.01294  0.96315  0.37437  1.0000
  C   C290      1.0  0.03685  0.04979  0.37437  1.0000
  C   C291      1.0  0.95021  0.98706  0.37437  1.0000
  C   C292      1.0  0.67961  0.29648  0.70770  1.0000
  C   C293      1.0  0.70352  0.38312  0.70770  1.0000
  C   C294      1.0  0.61688  0.32039  0.70770  1.0000
  C   C295      1.0  0.34627  0.62982  0.04104  1.0000
  C   C296      1.0  0.37018  0.71646  0.04104  1.0000
  C   C297      1.0  0.28354  0.65373  0.04104  1.0000
  C   C298      1.0  0.98706  0.03685  0.62563  1.0000
  C   C299      1.0  0.96315  0.95021  0.62563  1.0000
  C   C300      1.0  0.04979  0.01294  0.62563  1.0000
  C   C301      1.0  0.32039  0.70352  0.29230  1.0000
  C   C302      1.0  0.29648  0.61688  0.29230  1.0000
  C   C303      1.0  0.38312  0.67961  0.29230  1.0000
  C   C304      1.0  0.65373  0.37018  0.95896  1.0000
  C   C305      1.0  0.62982  0.28354  0.95896  1.0000
  C   C306      1.0  0.71646  0.34627  0.95896  1.0000
  C   C307      1.0  0.96352  0.95086  0.37381  1.0000
  C   C308      1.0  0.04914  0.01266  0.37381  1.0000
  C   C309      1.0  0.98734  0.03648  0.37381  1.0000
  C   C310      1.0  0.63019  0.28419  0.70714  1.0000
  C   C311      1.0  0.71581  0.34599  0.70714  1.0000
  C   C312      1.0  0.65401  0.36981  0.70714  1.0000
  C   C313      1.0  0.29685  0.61753  0.04048  1.0000
  C   C314      1.0  0.38247  0.67933  0.04048  1.0000
  C   C315      1.0  0.32067  0.70315  0.04048  1.0000
  C   C316      1.0  0.03648  0.04914  0.62619  1.0000
  C   C317      1.0  0.95086  0.98734  0.62619  1.0000
  C   C318      1.0  0.01266  0.96352  0.62619  1.0000
  C   C319      1.0  0.36981  0.71581  0.29286  1.0000
  C   C320      1.0  0.28419  0.65401  0.29286  1.0000
  C   C321      1.0  0.34599  0.63019  0.29286  1.0000
  C   C322      1.0  0.70315  0.38247  0.95952  1.0000
  C   C323      1.0  0.61753  0.32067  0.95952  1.0000
  C   C324      1.0  0.67933  0.29685  0.95952  1.0000
  H   H163      1.0  0.93910  0.91790  0.37310  1.0000
  H   H164      1.0  0.08210  0.02120  0.37310  1.0000
  H   H165      1.0  0.97880  0.06090  0.37310  1.0000
  H   H166      1.0  0.60577  0.25123  0.70643  1.0000
  H   H167      1.0  0.74877  0.35453  0.70643  1.0000
  H   H168      1.0  0.64547  0.39423  0.70643  1.0000
  H   H169      1.0  0.27243  0.58457  0.03977  1.0000
  H   H170      1.0  0.41543  0.68787  0.03977  1.0000
  H   H171      1.0  0.31213  0.72757  0.03977  1.0000
  H   H172      1.0  0.06090  0.08210  0.62690  1.0000
  H   H173      1.0  0.91790  0.97880  0.62690  1.0000
  H   H174      1.0  0.02120  0.93910  0.62690  1.0000
  H   H175      1.0  0.39423  0.74877  0.29357  1.0000
  H   H176      1.0  0.25123  0.64547  0.29357  1.0000
  H   H177      1.0  0.35453  0.60577  0.29357  1.0000
  H   H178      1.0  0.72757  0.41543  0.96023  1.0000
  H   H179      1.0  0.58457  0.31213  0.96023  1.0000
  H   H180      1.0  0.68787  0.27243  0.96023  1.0000
  C   C325      1.0  0.04298  0.67123  0.31720  1.0000
  C   C326      1.0  0.32877  0.37175  0.31720  1.0000
  C   C327      1.0  0.62825  0.95702  0.31720  1.0000
  C   C328      1.0  0.70965  0.00456  0.65053  1.0000
  C   C329      1.0  0.99544  0.70508  0.65053  1.0000
  C   C330      1.0  0.29492  0.29035  0.65053  1.0000
  C   C331      1.0  0.37631  0.33790  0.98387  1.0000
  C   C332      1.0  0.66210  0.03842  0.98387  1.0000
  C   C333      1.0  0.96158  0.62369  0.98387  1.0000
  C   C334      1.0  0.95702  0.32877  0.68280  1.0000
  C   C335      1.0  0.67123  0.62825  0.68280  1.0000
  C   C336      1.0  0.37175  0.04298  0.68280  1.0000
  C   C337      1.0  0.29035  0.99544  0.34947  1.0000
  C   C338      1.0  0.00456  0.29492  0.34947  1.0000
  C   C339      1.0  0.70508  0.70965  0.34947  1.0000
  C   C340      1.0  0.62369  0.66210  0.01613  1.0000
  C   C341      1.0  0.33790  0.96158  0.01613  1.0000
  C   C342      1.0  0.03842  0.37631  0.01613  1.0000
  O   O1        1.0  0.10901  0.82086  0.39120  1.0000
  O   O2        1.0  0.17914  0.28815  0.39120  1.0000
  O   O3        1.0  0.71185  0.89099  0.39120  1.0000
  O   O4        1.0  0.77568  0.15419  0.72453  1.0000
  O   O5        1.0  0.84581  0.62148  0.72453  1.0000
  O   O6        1.0  0.37852  0.22432  0.72453  1.0000
  O   O7        1.0  0.44234  0.48753  0.05787  1.0000
  O   O8        1.0  0.51247  0.95482  0.05787  1.0000
  O   O9        1.0  0.04518  0.55766  0.05787  1.0000
  O   O10       1.0  0.89099  0.17914  0.60880  1.0000
  O   O11       1.0  0.82086  0.71185  0.60880  1.0000
  O   O12       1.0  0.28815  0.10901  0.60880  1.0000
  O   O13       1.0  0.22432  0.84581  0.27547  1.0000
  O   O14       1.0  0.15419  0.37852  0.27547  1.0000
  O   O15       1.0  0.62148  0.77568  0.27547  1.0000
  O   O16       1.0  0.55766  0.51247  0.94213  1.0000
  O   O17       1.0  0.48753  0.04518  0.94213  1.0000
  O   O18       1.0  0.95482  0.44234  0.94213  1.0000
  O   O19       1.0  0.05184  0.78754  0.49310  1.0000
  O   O20       1.0  0.21246  0.26430  0.49310  1.0000
  O   O21       1.0  0.73570  0.94816  0.49310  1.0000
  O   O22       1.0  0.71851  0.12087  0.82643  1.0000
  O   O23       1.0  0.87913  0.59763  0.82643  1.0000
  O   O24       1.0  0.40237  0.28149  0.82643  1.0000
  O   O25       1.0  0.38517  0.45421  0.15977  1.0000
  O   O26       1.0  0.54579  0.93097  0.15977  1.0000
  O   O27       1.0  0.06903  0.61483  0.15977  1.0000
  O   O28       1.0  0.94816  0.21246  0.50690  1.0000
  O   O29       1.0  0.78754  0.73570  0.50690  1.0000
  O   O30       1.0  0.26430  0.05184  0.50690  1.0000
  O   O31       1.0  0.28149  0.87913  0.17357  1.0000
  O   O32       1.0  0.12087  0.40237  0.17357  1.0000
  O   O33       1.0  0.59763  0.71851  0.17357  1.0000
  O   O34       1.0  0.61483  0.54579  0.84023  1.0000
  O   O35       1.0  0.45421  0.06903  0.84023  1.0000
  O   O36       1.0  0.93097  0.38517  0.84023  1.0000
  O   O37       1.0  0.15106  0.77166  0.59555  1.0000
  O   O38       1.0  0.22834  0.37940  0.59555  1.0000
  O   O39       1.0  0.62060  0.84894  0.59555  1.0000
  O   O40       1.0  0.81773  0.10499  0.92888  1.0000
  O   O41       1.0  0.89501  0.71273  0.92888  1.0000
  O   O42       1.0  0.28727  0.18227  0.92888  1.0000
  O   O43       1.0  0.48439  0.43833  0.26222  1.0000
  O   O44       1.0  0.56167  0.04607  0.26222  1.0000
  O   O45       1.0  0.95393  0.51561  0.26222  1.0000
  O   O46       1.0  0.84894  0.22834  0.40445  1.0000
  O   O47       1.0  0.77166  0.62060  0.40445  1.0000
  O   O48       1.0  0.37940  0.15106  0.40445  1.0000
  O   O49       1.0  0.18227  0.89501  0.07112  1.0000
  O   O50       1.0  0.10499  0.28727  0.07112  1.0000
  O   O51       1.0  0.71273  0.81773  0.07112  1.0000
  O   O52       1.0  0.51561  0.56167  0.73778  1.0000
  O   O53       1.0  0.43833  0.95393  0.73778  1.0000
  O   O54       1.0  0.04607  0.48439  0.73778  1.0000
  O   O55       1.0  0.11539  0.71745  0.48704  1.0000
  O   O56       1.0  0.28255  0.39794  0.48704  1.0000
  O   O57       1.0  0.60206  0.88461  0.48704  1.0000
  O   O58       1.0  0.78206  0.05078  0.82037  1.0000
  O   O59       1.0  0.94922  0.73127  0.82037  1.0000
  O   O60       1.0  0.26873  0.21794  0.82037  1.0000
  O   O61       1.0  0.44872  0.38412  0.15371  1.0000
  O   O62       1.0  0.61588  0.06461  0.15371  1.0000
  O   O63       1.0  0.93539  0.55128  0.15371  1.0000
  O   O64       1.0  0.88461  0.28255  0.51296  1.0000
  O   O65       1.0  0.71745  0.60206  0.51296  1.0000
  O   O66       1.0  0.39794  0.11539  0.51296  1.0000
  O   O67       1.0  0.21794  0.94922  0.17963  1.0000
  O   O68       1.0  0.05078  0.26873  0.17963  1.0000
  O   O69       1.0  0.73127  0.78206  0.17963  1.0000
  O   O70       1.0  0.55128  0.61588  0.84629  1.0000
  O   O71       1.0  0.38412  0.93539  0.84629  1.0000
  O   O72       1.0  0.06461  0.44872  0.84629  1.0000
  N   N1        1.0  0.97183  0.65741  0.27910  1.0000
  N   N2        1.0  0.34259  0.31442  0.27910  1.0000
  N   N3        1.0  0.68558  0.02817  0.27910  1.0000
  N   N4        1.0  0.63850  0.99074  0.61243  1.0000
  N   N5        1.0  0.00926  0.64775  0.61243  1.0000
  N   N6        1.0  0.35225  0.36150  0.61243  1.0000
  N   N7        1.0  0.30516  0.32408  0.94577  1.0000
  N   N8        1.0  0.67592  0.98109  0.94577  1.0000
  N   N9        1.0  0.01891  0.69484  0.94577  1.0000
  N   N10       1.0  0.02817  0.34259  0.72090  1.0000
  N   N11       1.0  0.65741  0.68558  0.72090  1.0000
  N   N12       1.0  0.31442  0.97183  0.72090  1.0000
  N   N13       1.0  0.36150  0.00926  0.38757  1.0000
  N   N14       1.0  0.99074  0.35225  0.38757  1.0000
  N   N15       1.0  0.64775  0.63850  0.38757  1.0000
  N   N16       1.0  0.69484  0.67592  0.05423  1.0000
  N   N17       1.0  0.32408  0.01891  0.05423  1.0000
  N   N18       1.0  0.98109  0.30516  0.05423  1.0000
  N   N19       1.0  0.00799  0.64808  0.25675  1.0000
  N   N20       1.0  0.35192  0.35991  0.25675  1.0000
  N   N21       1.0  0.64009  0.99201  0.25675  1.0000
  N   N22       1.0  0.67466  0.98141  0.59008  1.0000
  N   N23       1.0  0.01859  0.69324  0.59008  1.0000
  N   N24       1.0  0.30676  0.32534  0.59008  1.0000
  N   N25       1.0  0.34132  0.31475  0.92342  1.0000
  N   N26       1.0  0.68525  0.02658  0.92342  1.0000
  N   N27       1.0  0.97342  0.65868  0.92342  1.0000
  N   N28       1.0  0.99201  0.35192  0.74325  1.0000
  N   N29       1.0  0.64808  0.64009  0.74325  1.0000
  N   N30       1.0  0.35991  0.00799  0.74325  1.0000
  N   N31       1.0  0.32534  0.01859  0.40992  1.0000
  N   N32       1.0  0.98141  0.30676  0.40992  1.0000
  N   N33       1.0  0.69324  0.67466  0.40992  1.0000
  N   N34       1.0  0.65868  0.68525  0.07658  1.0000
  N   N35       1.0  0.31475  0.97342  0.07658  1.0000
  N   N36       1.0  0.02658  0.34132  0.07658  1.0000
  N   N37       1.0  0.98428  0.68480  0.34910  1.0000
  N   N38       1.0  0.31520  0.29948  0.34910  1.0000
  N   N39       1.0  0.70052  0.01572  0.34910  1.0000
  N   N40       1.0  0.65095  0.01813  0.68243  1.0000
  N   N41       1.0  0.98187  0.63281  0.68243  1.0000
  N   N42       1.0  0.36719  0.34905  0.68243  1.0000
  N   N43       1.0  0.31761  0.35147  0.01577  1.0000
  N   N44       1.0  0.64853  0.96615  0.01577  1.0000
  N   N45       1.0  0.03385  0.68239  0.01577  1.0000
  N   N46       1.0  0.01572  0.31520  0.65090  1.0000
  N   N47       1.0  0.68480  0.70052  0.65090  1.0000
  N   N48       1.0  0.29948  0.98428  0.65090  1.0000
  N   N49       1.0  0.34905  0.98187  0.31757  1.0000
  N   N50       1.0  0.01813  0.36719  0.31757  1.0000
  N   N51       1.0  0.63281  0.65095  0.31757  1.0000
  N   N52       1.0  0.68239  0.64853  0.98423  1.0000
  N   N53       1.0  0.35147  0.03385  0.98423  1.0000
  N   N54       1.0  0.96615  0.31761  0.98423  1.0000
  N   N55       1.0  0.08706  0.67365  0.31730  1.0000
  N   N56       1.0  0.32635  0.41341  0.31730  1.0000
  N   N57       1.0  0.58659  0.91294  0.31730  1.0000
  N   N58       1.0  0.75373  0.00698  0.65063  1.0000
  N   N59       1.0  0.99302  0.74674  0.65063  1.0000
  N   N60       1.0  0.25326  0.24627  0.65063  1.0000
  N   N61       1.0  0.42039  0.34032  0.98397  1.0000
  N   N62       1.0  0.65968  0.08008  0.98397  1.0000
  N   N63       1.0  0.91992  0.57961  0.98397  1.0000
  N   N64       1.0  0.91294  0.32635  0.68270  1.0000
  N   N65       1.0  0.67365  0.58659  0.68270  1.0000
  N   N66       1.0  0.41341  0.08706  0.68270  1.0000
  N   N67       1.0  0.24627  0.99302  0.34937  1.0000
  N   N68       1.0  0.00698  0.25326  0.34937  1.0000
  N   N69       1.0  0.74674  0.75373  0.34937  1.0000
  N   N70       1.0  0.57961  0.65968  0.01603  1.0000
  N   N71       1.0  0.34032  0.91992  0.01603  1.0000
  N   N72       1.0  0.08008  0.42039  0.01603  1.0000
  H   H181      1.0  0.09430  0.65950  0.27590  1.0000
  H   H182      1.0  0.34050  0.43480  0.27590  1.0000
  H   H183      1.0  0.56520  0.90570  0.27590  1.0000
  H   H184      1.0  0.76097  0.99283  0.60923  1.0000
  H   H185      1.0  0.00717  0.76813  0.60923  1.0000
  H   H186      1.0  0.23187  0.23903  0.60923  1.0000
  H   H187      1.0  0.42763  0.32617  0.94257  1.0000
  H   H188      1.0  0.67383  0.10147  0.94257  1.0000
  H   H189      1.0  0.89853  0.57237  0.94257  1.0000
  H   H190      1.0  0.90570  0.34050  0.72410  1.0000
  H   H191      1.0  0.65950  0.56520  0.72410  1.0000
  H   H192      1.0  0.43480  0.09430  0.72410  1.0000
  H   H193      1.0  0.23903  0.00717  0.39077  1.0000
  H   H194      1.0  0.99283  0.23187  0.39077  1.0000
  H   H195      1.0  0.76813  0.76097  0.39077  1.0000
  H   H196      1.0  0.57237  0.67383  0.05743  1.0000
  H   H197      1.0  0.32617  0.89853  0.05743  1.0000
  H   H198      1.0  0.10147  0.42763  0.05743  1.0000
  H   H199      1.0  0.10790  0.68940  0.35880  1.0000
  H   H200      1.0  0.31060  0.41850  0.35880  1.0000
  H   H201      1.0  0.58150  0.89210  0.35880  1.0000
  H   H202      1.0  0.77457  0.02273  0.69213  1.0000
  H   H203      1.0  0.97727  0.75183  0.69213  1.0000
  H   H204      1.0  0.24817  0.22543  0.69213  1.0000
  H   H205      1.0  0.44123  0.35607  0.02547  1.0000
  H   H206      1.0  0.64393  0.08517  0.02547  1.0000
  H   H207      1.0  0.91483  0.55877  0.02547  1.0000
  H   H208      1.0  0.89210  0.31060  0.64120  1.0000
  H   H209      1.0  0.68940  0.58150  0.64120  1.0000
  H   H210      1.0  0.41850  0.10790  0.64120  1.0000
  H   H211      1.0  0.22543  0.97727  0.30787  1.0000
  H   H212      1.0  0.02273  0.24817  0.30787  1.0000
  H   H213      1.0  0.75183  0.77457  0.30787  1.0000
  H   H214      1.0  0.55877  0.64393  0.97453  1.0000
  H   H215      1.0  0.35607  0.91483  0.97453  1.0000
  H   H216      1.0  0.08517  0.44123  0.97453  1.0000
  N   N73       1.0  0.02920  0.69404  0.37588  1.0000
  N   N74       1.0  0.30596  0.33516  0.37588  1.0000
  N   N75       1.0  0.66484  0.97080  0.37588  1.0000
  N   N76       1.0  0.69587  0.02737  0.70921  1.0000
  N   N77       1.0  0.97263  0.66849  0.70921  1.0000
  N   N78       1.0  0.33151  0.30413  0.70921  1.0000
  N   N79       1.0  0.36253  0.36071  0.04255  1.0000
  N   N80       1.0  0.63929  0.00183  0.04255  1.0000
  N   N81       1.0  0.99817  0.63747  0.04255  1.0000
  N   N82       1.0  0.97080  0.30596  0.62412  1.0000
  N   N83       1.0  0.69404  0.66484  0.62412  1.0000
  N   N84       1.0  0.33516  0.02920  0.62412  1.0000
  N   N85       1.0  0.30413  0.97263  0.29079  1.0000
  N   N86       1.0  0.02737  0.33151  0.29079  1.0000
  N   N87       1.0  0.66849  0.69587  0.29079  1.0000
  N   N88       1.0  0.63747  0.63929  0.95745  1.0000
  N   N89       1.0  0.36071  0.99817  0.95745  1.0000
  N   N90       1.0  0.00183  0.36253  0.95745  1.0000
