data_image0
_chemical_formula_structural       Mo12P8O60C4H8C4H8C4N4H12C4H8
_chemical_formula_sum              "Mo12 P8 O60 C16 H36 N4"
_cell_length_a       14.615
_cell_length_b       17.148
_cell_length_c       9.6756
_cell_angle_alpha    90
_cell_angle_beta     90
_cell_angle_gamma    90

_space_group_name_H-M_alt    "P 1"
_space_group_IT_number       1

loop_
  _space_group_symop_operation_xyz
  'x, y, z'

loop_
  _atom_site_type_symbol
  _atom_site_label
  _atom_site_symmetry_multiplicity
  _atom_site_fract_x
  _atom_site_fract_y
  _atom_site_fract_z
  _atom_site_occupancy
  Mo  Mo1       1.0  0.11711  0.09073  0.89664  1.0000
  Mo  Mo2       1.0  0.88289  0.90927  0.89664  1.0000
  Mo  Mo3       1.0  0.38289  0.59073  0.10336  1.0000
  Mo  Mo4       1.0  0.61711  0.40927  0.10336  1.0000
  Mo  Mo5       1.0  0.06819  0.04707  0.51538  1.0000
  Mo  Mo6       1.0  0.93181  0.95293  0.51538  1.0000
  Mo  Mo7       1.0  0.43181  0.54707  0.48462  1.0000
  Mo  Mo8       1.0  0.56819  0.45293  0.48462  1.0000
  Mo  Mo9       1.0  0.29144  0.20401  0.88679  1.0000
  Mo  Mo10      1.0  0.70856  0.79599  0.88679  1.0000
  Mo  Mo11      1.0  0.20856  0.70401  0.11321  1.0000
  Mo  Mo12      1.0  0.79144  0.29599  0.11321  1.0000
  P   P1        1.0  0.28061  0.07990  0.63180  1.0000
  P   P2        1.0  0.71939  0.92010  0.63180  1.0000
  P   P3        1.0  0.21939  0.57990  0.36820  1.0000
  P   P4        1.0  0.78061  0.42010  0.36820  1.0000
  P   P5        1.0  0.15378  0.21946  0.61931  1.0000
  P   P6        1.0  0.84622  0.78054  0.61931  1.0000
  P   P7        1.0  0.34622  0.71946  0.38069  1.0000
  P   P8        1.0  0.65378  0.28054  0.38069  1.0000
  O   O1        1.0  0.07510  0.05660  0.73560  1.0000
  O   O2        1.0  0.92490  0.94340  0.73560  1.0000
  O   O3        1.0  0.42490  0.55660  0.26440  1.0000
  O   O4        1.0  0.57510  0.44340  0.26440  1.0000
  O   O5        1.0  0.06160  0.93530  0.53880  1.0000
  O   O6        1.0  0.93840  0.06470  0.53880  1.0000
  O   O7        1.0  0.43840  0.43530  0.46120  1.0000
  O   O8        1.0  0.56160  0.56470  0.46120  1.0000
  O   O9        1.0  0.08410  0.05710  0.34260  1.0000
  O   O10       1.0  0.91590  0.94290  0.34260  1.0000
  O   O11       1.0  0.41590  0.55710  0.65740  1.0000
  O   O12       1.0  0.58410  0.44290  0.65740  1.0000
  O   O13       1.0  0.37630  0.05230  0.60660  1.0000
  O   O14       1.0  0.62370  0.94770  0.60660  1.0000
  O   O15       1.0  0.12370  0.55230  0.39340  1.0000
  O   O16       1.0  0.87630  0.44770  0.39340  1.0000
  O   O17       1.0  0.08660  0.16980  0.53770  1.0000
  O   O18       1.0  0.91340  0.83020  0.53770  1.0000
  O   O19       1.0  0.41340  0.66980  0.46230  1.0000
  O   O20       1.0  0.58660  0.33020  0.46230  1.0000
  O   O21       1.0  0.13410  0.00580  0.98800  1.0000
  O   O22       1.0  0.86590  0.99420  0.98800  1.0000
  O   O23       1.0  0.36590  0.50580  0.01200  1.0000
  O   O24       1.0  0.63410  0.49420  0.01200  1.0000
  O   O25       1.0  0.14320  0.30380  0.58520  1.0000
  O   O26       1.0  0.85680  0.69620  0.58520  1.0000
  O   O27       1.0  0.35680  0.80380  0.41480  1.0000
  O   O28       1.0  0.64320  0.19620  0.41480  1.0000
  O   O29       1.0  0.20930  0.15420  0.00580  1.0000
  O   O30       1.0  0.79070  0.84580  0.00580  1.0000
  O   O31       1.0  0.29070  0.65420  0.99420  1.0000
  O   O32       1.0  0.70930  0.34580  0.99420  1.0000
  O   O33       1.0  0.14820  0.20560  0.77830  1.0000
  O   O34       1.0  0.85180  0.79440  0.77830  1.0000
  O   O35       1.0  0.35180  0.70560  0.22170  1.0000
  O   O36       1.0  0.64820  0.29440  0.22170  1.0000
  O   O37       1.0  0.32480  0.22190  0.69050  1.0000
  O   O38       1.0  0.67520  0.77810  0.69050  1.0000
  O   O39       1.0  0.17520  0.72190  0.30950  1.0000
  O   O40       1.0  0.82480  0.27810  0.30950  1.0000
  O   O41       1.0  0.02180  0.13330  0.97110  1.0000
  O   O42       1.0  0.97820  0.86670  0.97110  1.0000
  O   O43       1.0  0.47820  0.63330  0.02890  1.0000
  O   O44       1.0  0.52180  0.36670  0.02890  1.0000
  O   O45       1.0  0.25880  0.08170  0.78920  1.0000
  O   O46       1.0  0.74120  0.91830  0.78920  1.0000
  O   O47       1.0  0.24120  0.58170  0.21080  1.0000
  O   O48       1.0  0.75880  0.41830  0.21080  1.0000
  O   O49       1.0  0.28430  0.29900  0.94050  1.0000
  O   O50       1.0  0.71570  0.70100  0.94050  1.0000
  O   O51       1.0  0.21570  0.79900  0.05950  1.0000
  O   O52       1.0  0.78430  0.20100  0.05950  1.0000
  O   O53       1.0  0.21010  0.03260  0.55050  1.0000
  O   O54       1.0  0.78990  0.96740  0.55050  1.0000
  O   O55       1.0  0.28990  0.53260  0.44950  1.0000
  O   O56       1.0  0.71010  0.46740  0.44950  1.0000
  O   O57       1.0  0.39560  0.17470  0.94820  1.0000
  O   O58       1.0  0.60440  0.82530  0.94820  1.0000
  O   O59       1.0  0.10440  0.67470  0.05180  1.0000
  O   O60       1.0  0.89560  0.32530  0.05180  1.0000
  C   C1        1.0  0.31010  0.28130  0.39290  1.0000
  C   C2        1.0  0.68990  0.71870  0.39290  1.0000
  C   C3        1.0  0.18990  0.78130  0.60710  1.0000
  C   C4        1.0  0.81010  0.21870  0.60710  1.0000
  H   H1        1.0  0.33060  0.31510  0.46710  1.0000
  H   H2        1.0  0.66940  0.68490  0.46710  1.0000
  H   H3        1.0  0.16940  0.81510  0.53290  1.0000
  H   H4        1.0  0.83060  0.18490  0.53290  1.0000
  H   H5        1.0  0.24850  0.29680  0.36770  1.0000
  H   H6        1.0  0.75150  0.70320  0.36770  1.0000
  H   H7        1.0  0.25150  0.79680  0.63230  1.0000
  H   H8        1.0  0.74850  0.20320  0.63230  1.0000
  C   C5        1.0  0.30960  0.19850  0.44190  1.0000
  C   C6        1.0  0.69040  0.80150  0.44190  1.0000
  C   C7        1.0  0.19040  0.69850  0.55810  1.0000
  C   C8        1.0  0.80960  0.30150  0.55810  1.0000
  H   H9        1.0  0.37210  0.17950  0.44080  1.0000
  H   H10       1.0  0.62790  0.82050  0.44080  1.0000
  H   H11       1.0  0.12790  0.67950  0.55920  1.0000
  H   H12       1.0  0.87210  0.32050  0.55920  1.0000
  H   H13       1.0  0.27520  0.16770  0.37580  1.0000
  H   H14       1.0  0.72480  0.83230  0.37580  1.0000
  H   H15       1.0  0.22480  0.66770  0.62420  1.0000
  H   H16       1.0  0.77520  0.33230  0.62420  1.0000
  C   C9        1.0  0.26980  0.18350  0.58600  1.0000
  C   C10       1.0  0.73020  0.81650  0.58600  1.0000
  C   C11       1.0  0.23020  0.68350  0.41400  1.0000
  C   C12       1.0  0.76980  0.31650  0.41400  1.0000
  N   N1        1.0  0.37010  0.37080  0.21560  1.0000
  N   N2        1.0  0.62990  0.62920  0.21560  1.0000
  N   N3        1.0  0.12990  0.87080  0.78440  1.0000
  N   N4        1.0  0.87010  0.12920  0.78440  1.0000
  H   H17       1.0  0.40730  0.37490  0.14310  1.0000
  H   H18       1.0  0.59270  0.62510  0.14310  1.0000
  H   H19       1.0  0.09270  0.87490  0.85690  1.0000
  H   H20       1.0  0.90730  0.12510  0.85690  1.0000
  H   H21       1.0  0.38800  0.40370  0.28140  1.0000
  H   H22       1.0  0.61200  0.59630  0.28140  1.0000
  H   H23       1.0  0.11200  0.90370  0.71860  1.0000
  H   H24       1.0  0.88800  0.09630  0.71860  1.0000
  H   H25       1.0  0.31320  0.38240  0.19000  1.0000
  H   H26       1.0  0.68680  0.61760  0.19000  1.0000
  H   H27       1.0  0.18680  0.88240  0.81000  1.0000
  H   H28       1.0  0.81320  0.11760  0.81000  1.0000
  C   C13       1.0  0.37290  0.29060  0.26900  1.0000
  C   C14       1.0  0.62710  0.70940  0.26900  1.0000
  C   C15       1.0  0.12710  0.79060  0.73100  1.0000
  C   C16       1.0  0.87290  0.20940  0.73100  1.0000
  H   H29       1.0  0.43510  0.27780  0.29570  1.0000
  H   H30       1.0  0.56490  0.72220  0.29570  1.0000
  H   H31       1.0  0.06490  0.77780  0.70430  1.0000
  H   H32       1.0  0.93510  0.22220  0.70430  1.0000
  H   H33       1.0  0.35440  0.25470  0.19680  1.0000
  H   H34       1.0  0.64560  0.74530  0.19680  1.0000
  H   H35       1.0  0.14560  0.75470  0.80320  1.0000
  H   H36       1.0  0.85440  0.24530  0.80320  1.0000
