data_image0
_chemical_formula_structural       U12P16O72C8H4C8H4C8H4C4H12C8H4C8H4C8H4C4H12
_chemical_formula_sum              "U12 P16 O72 C56 H48"
_cell_length_a       11.9899
_cell_length_b       17.4465
_cell_length_c       17.2385
_cell_angle_alpha    90
_cell_angle_beta     96.636
_cell_angle_gamma    90

_space_group_name_H-M_alt    "P 1"
_space_group_IT_number       1

loop_
  _space_group_symop_operation_xyz
  'x, y, z'

loop_
  _atom_site_type_symbol
  _atom_site_label
  _atom_site_symmetry_multiplicity
  _atom_site_fract_x
  _atom_site_fract_y
  _atom_site_fract_z
  _atom_site_occupancy
  U   U1        1.0  0.51256  0.74000  0.74228  1.0000
  U   U2        1.0  0.48744  0.24000  0.75772  1.0000
  U   U3        1.0  0.48744  0.26000  0.25772  1.0000
  U   U4        1.0  0.51256  0.76000  0.24228  1.0000
  U   U5        1.0  0.74615  0.49799  0.77646  1.0000
  U   U6        1.0  0.25385  0.99799  0.72354  1.0000
  U   U7        1.0  0.25385  0.50201  0.22354  1.0000
  U   U8        1.0  0.74615  0.00201  0.27646  1.0000
  U   U9        1.0  0.50000  0.50000  0.50000  1.0000
  U   U10       1.0  0.50000  0.00000  0.00000  1.0000
  U   U11       1.0  0.50000  0.00000  0.50000  1.0000
  U   U12       1.0  0.50000  0.50000  0.00000  1.0000
  P   P1        1.0  0.67360  0.62760  0.61915  1.0000
  P   P2        1.0  0.32640  0.12760  0.88085  1.0000
  P   P3        1.0  0.32640  0.37240  0.38085  1.0000
  P   P4        1.0  0.67360  0.87240  0.11915  1.0000
  P   P5        1.0  0.67130  0.86135  0.40501  1.0000
  P   P6        1.0  0.32870  0.36135  0.09499  1.0000
  P   P7        1.0  0.32870  0.13865  0.59499  1.0000
  P   P8        1.0  0.67130  0.63865  0.90501  1.0000
  P   P9        1.0  0.64450  0.35825  0.63443  1.0000
  P   P10       1.0  0.35550  0.85825  0.86557  1.0000
  P   P11       1.0  0.35550  0.64175  0.36557  1.0000
  P   P12       1.0  0.64450  0.14175  0.13443  1.0000
  P   P13       1.0  0.65380  0.14215  0.40465  1.0000
  P   P14       1.0  0.34620  0.64215  0.09535  1.0000
  P   P15       1.0  0.34620  0.85785  0.59535  1.0000
  P   P16       1.0  0.65380  0.35785  0.90465  1.0000
  O   O1        1.0  0.61620  0.80500  0.71750  1.0000
  O   O2        1.0  0.38380  0.30500  0.78250  1.0000
  O   O3        1.0  0.38380  0.19500  0.28250  1.0000
  O   O4        1.0  0.61620  0.69500  0.21750  1.0000
  O   O5        1.0  0.40960  0.67340  0.76540  1.0000
  O   O6        1.0  0.59040  0.17340  0.73460  1.0000
  O   O7        1.0  0.59040  0.32660  0.23460  1.0000
  O   O8        1.0  0.40960  0.82660  0.26540  1.0000
  O   O9        1.0  0.89350  0.49220  0.78490  1.0000
  O   O10       1.0  0.10650  0.99220  0.71510  1.0000
  O   O11       1.0  0.10650  0.50780  0.21510  1.0000
  O   O12       1.0  0.89350  0.00780  0.28490  1.0000
  O   O13       1.0  0.59750  0.50470  0.76640  1.0000
  O   O14       1.0  0.40250  0.00470  0.73360  1.0000
  O   O15       1.0  0.40250  0.49530  0.23360  1.0000
  O   O16       1.0  0.59750  0.99530  0.26640  1.0000
  O   O17       1.0  0.42630  0.51940  0.58170  1.0000
  O   O18       1.0  0.57370  0.01940  0.91830  1.0000
  O   O19       1.0  0.57370  0.48060  0.41830  1.0000
  O   O20       1.0  0.42630  0.98060  0.08170  1.0000
  O   O21       1.0  0.63130  0.00860  0.56100  1.0000
  O   O22       1.0  0.36870  0.50860  0.93900  1.0000
  O   O23       1.0  0.36870  0.99140  0.43900  1.0000
  O   O24       1.0  0.63130  0.49140  0.06100  1.0000
  O   O25       1.0  0.57240  0.65510  0.65490  1.0000
  O   O26       1.0  0.42760  0.15510  0.84510  1.0000
  O   O27       1.0  0.42760  0.34490  0.34510  1.0000
  O   O28       1.0  0.57240  0.84490  0.15490  1.0000
  O   O29       1.0  0.75740  0.58670  0.67810  1.0000
  O   O30       1.0  0.24260  0.08670  0.82190  1.0000
  O   O31       1.0  0.24260  0.41330  0.32190  1.0000
  O   O32       1.0  0.75740  0.91330  0.17810  1.0000
  O   O33       1.0  0.64290  0.57740  0.54750  1.0000
  O   O34       1.0  0.35710  0.07740  0.95250  1.0000
  O   O35       1.0  0.35710  0.42260  0.45250  1.0000
  O   O36       1.0  0.64290  0.92260  0.04750  1.0000
  O   O37       1.0  0.57340  0.90740  0.42770  1.0000
  O   O38       1.0  0.42660  0.40740  0.07230  1.0000
  O   O39       1.0  0.42660  0.09260  0.57230  1.0000
  O   O40       1.0  0.57340  0.59260  0.92770  1.0000
  O   O41       1.0  0.75880  0.91180  0.37310  1.0000
  O   O42       1.0  0.24120  0.41180  0.12690  1.0000
  O   O43       1.0  0.24120  0.08820  0.62690  1.0000
  O   O44       1.0  0.75880  0.58820  0.87310  1.0000
  O   O45       1.0  0.63330  0.79920  0.34630  1.0000
  O   O46       1.0  0.36670  0.29920  0.15370  1.0000
  O   O47       1.0  0.36670  0.20080  0.65370  1.0000
  O   O48       1.0  0.63330  0.70080  0.84630  1.0000
  O   O49       1.0  0.73530  0.40330  0.68400  1.0000
  O   O50       1.0  0.26470  0.90330  0.81600  1.0000
  O   O51       1.0  0.26470  0.59670  0.31600  1.0000
  O   O52       1.0  0.73530  0.09670  0.18400  1.0000
  O   O53       1.0  0.59630  0.40270  0.56340  1.0000
  O   O54       1.0  0.40370  0.90270  0.93660  1.0000
  O   O55       1.0  0.40370  0.59730  0.43660  1.0000
  O   O56       1.0  0.59630  0.09730  0.06340  1.0000
  O   O57       1.0  0.55320  0.33170  0.68080  1.0000
  O   O58       1.0  0.44680  0.83170  0.81920  1.0000
  O   O59       1.0  0.44680  0.66830  0.31920  1.0000
  O   O60       1.0  0.55320  0.16830  0.18080  1.0000
  O   O61       1.0  0.55320  0.09390  0.41860  1.0000
  O   O62       1.0  0.44680  0.59390  0.08140  1.0000
  O   O63       1.0  0.44680  0.90610  0.58140  1.0000
  O   O64       1.0  0.55320  0.40610  0.91860  1.0000
  O   O65       1.0  0.74240  0.09530  0.36970  1.0000
  O   O66       1.0  0.25760  0.59530  0.13030  1.0000
  O   O67       1.0  0.25760  0.90470  0.63030  1.0000
  O   O68       1.0  0.74240  0.40470  0.86970  1.0000
  O   O69       1.0  0.61760  0.21180  0.35460  1.0000
  O   O70       1.0  0.38240  0.71180  0.14540  1.0000
  O   O71       1.0  0.38240  0.78820  0.64540  1.0000
  O   O72       1.0  0.61760  0.28820  0.85460  1.0000
  C   C1        1.0  0.74160  0.71010  0.58300  1.0000
  C   C2        1.0  0.25840  0.21010  0.91700  1.0000
  C   C3        1.0  0.25840  0.28990  0.41700  1.0000
  C   C4        1.0  0.74160  0.78990  0.08300  1.0000
  C   C5        1.0  0.69300  0.74700  0.51680  1.0000
  C   C6        1.0  0.30700  0.24700  0.98320  1.0000
  C   C7        1.0  0.30700  0.25300  0.48320  1.0000
  C   C8        1.0  0.69300  0.75300  0.01680  1.0000
  H   H1        1.0  0.62820  0.72680  0.48940  1.0000
  H   H2        1.0  0.37180  0.22680  0.01060  1.0000
  H   H3        1.0  0.37180  0.27320  0.51060  1.0000
  H   H4        1.0  0.62820  0.77320  0.98940  1.0000
  C   C9        1.0  0.73930  0.81390  0.49030  1.0000
  C   C10       1.0  0.26070  0.31390  0.00970  1.0000
  C   C11       1.0  0.26070  0.18610  0.50970  1.0000
  C   C12       1.0  0.73930  0.68610  0.99030  1.0000
  C   C13       1.0  0.83430  0.84410  0.53000  1.0000
  C   C14       1.0  0.16570  0.34410  0.97000  1.0000
  C   C15       1.0  0.16570  0.15590  0.47000  1.0000
  C   C16       1.0  0.83430  0.65590  0.03000  1.0000
  H   H5        1.0  0.86370  0.88960  0.51300  1.0000
  H   H6        1.0  0.13630  0.38960  0.98700  1.0000
  H   H7        1.0  0.13630  0.11040  0.48700  1.0000
  H   H8        1.0  0.86370  0.61040  0.01300  1.0000
  C   C17       1.0  0.88920  0.80610  0.59800  1.0000
  C   C18       1.0  0.11080  0.30610  0.90200  1.0000
  C   C19       1.0  0.11080  0.19390  0.40200  1.0000
  C   C20       1.0  0.88920  0.69390  0.09800  1.0000
  C   C21       1.0  0.83870  0.74070  0.62430  1.0000
  C   C22       1.0  0.16130  0.24070  0.87570  1.0000
  C   C23       1.0  0.16130  0.25930  0.37570  1.0000
  C   C24       1.0  0.83870  0.75930  0.12430  1.0000
  H   H9        1.0  0.87010  0.71700  0.67010  1.0000
  H   H10       1.0  0.12990  0.21700  0.82990  1.0000
  H   H11       1.0  0.12990  0.28300  0.32990  1.0000
  H   H12       1.0  0.87010  0.78300  0.17010  1.0000
  C   C25       1.0  0.99490  0.83660  0.64210  1.0000
  C   C26       1.0  0.00510  0.33660  0.85790  1.0000
  C   C27       1.0  0.00510  0.16340  0.35790  1.0000
  C   C28       1.0  0.99490  0.66340  0.14210  1.0000
  H   H13       1.0  0.01810  0.80350  0.68550  1.0000
  H   H14       1.0  0.98190  0.30350  0.81450  1.0000
  H   H15       1.0  0.98190  0.19650  0.31450  1.0000
  H   H16       1.0  0.01810  0.69650  0.18550  1.0000
  H   H17       1.0  0.98160  0.88720  0.66090  1.0000
  H   H18       1.0  0.01840  0.38720  0.83910  1.0000
  H   H19       1.0  0.01840  0.11280  0.33910  1.0000
  H   H20       1.0  0.98160  0.61280  0.16090  1.0000
  H   H21       1.0  0.05290  0.83860  0.60800  1.0000
  H   H22       1.0  0.94710  0.33860  0.89200  1.0000
  H   H23       1.0  0.94710  0.16140  0.39200  1.0000
  H   H24       1.0  0.05290  0.66140  0.10800  1.0000
  C   C29       1.0  0.71290  0.27580  0.59780  1.0000
  C   C30       1.0  0.28710  0.77580  0.90220  1.0000
  C   C31       1.0  0.28710  0.72420  0.40220  1.0000
  C   C32       1.0  0.71290  0.22420  0.09780  1.0000
  C   C33       1.0  0.66590  0.24200  0.52930  1.0000
  C   C34       1.0  0.33410  0.74200  0.97070  1.0000
  C   C35       1.0  0.33410  0.75800  0.47070  1.0000
  C   C36       1.0  0.66590  0.25800  0.02930  1.0000
  H   H25       1.0  0.59820  0.26040  0.50440  1.0000
  H   H26       1.0  0.40180  0.76040  0.99560  1.0000
  H   H27       1.0  0.40180  0.73960  0.49560  1.0000
  H   H28       1.0  0.59820  0.23960  0.00440  1.0000
  C   C37       1.0  0.71840  0.18140  0.49750  1.0000
  C   C38       1.0  0.28160  0.68140  0.00250  1.0000
  C   C39       1.0  0.28160  0.81860  0.50250  1.0000
  C   C40       1.0  0.71840  0.31860  0.99750  1.0000
  C   C41       1.0  0.81540  0.15240  0.53470  1.0000
  C   C42       1.0  0.18460  0.65240  0.96530  1.0000
  C   C43       1.0  0.18460  0.84760  0.46530  1.0000
  C   C44       1.0  0.81540  0.34760  0.03470  1.0000
  H   H29       1.0  0.84850  0.11000  0.51400  1.0000
  H   H30       1.0  0.15150  0.61000  0.98600  1.0000
  H   H31       1.0  0.15150  0.89000  0.48600  1.0000
  H   H32       1.0  0.84850  0.39000  0.01400  1.0000
  C   C45       1.0  0.86590  0.18560  0.60370  1.0000
  C   C46       1.0  0.13410  0.68560  0.89630  1.0000
  C   C47       1.0  0.13410  0.81440  0.39630  1.0000
  C   C48       1.0  0.86590  0.31440  0.10370  1.0000
  C   C49       1.0  0.81170  0.24610  0.63550  1.0000
  C   C50       1.0  0.18830  0.74610  0.86450  1.0000
  C   C51       1.0  0.18830  0.75390  0.36450  1.0000
  C   C52       1.0  0.81170  0.25390  0.13550  1.0000
  H   H33       1.0  0.84210  0.26710  0.68290  1.0000
  H   H34       1.0  0.15790  0.76710  0.81710  1.0000
  H   H35       1.0  0.15790  0.73290  0.31710  1.0000
  H   H36       1.0  0.84210  0.23290  0.18290  1.0000
  C   C53       1.0  0.97650  0.15670  0.64410  1.0000
  C   C54       1.0  0.02350  0.65670  0.85590  1.0000
  C   C55       1.0  0.02350  0.84330  0.35590  1.0000
  C   C56       1.0  0.97650  0.34330  0.14410  1.0000
  H   H37       1.0  0.99730  0.18640  0.69040  1.0000
  H   H38       1.0  0.00270  0.68640  0.80960  1.0000
  H   H39       1.0  0.00270  0.81360  0.30960  1.0000
  H   H40       1.0  0.99730  0.31360  0.19040  1.0000
  H   H41       1.0  0.03340  0.16140  0.60960  1.0000
  H   H42       1.0  0.96660  0.66140  0.89040  1.0000
  H   H43       1.0  0.96660  0.83860  0.39040  1.0000
  H   H44       1.0  0.03340  0.33860  0.10960  1.0000
  H   H45       1.0  0.96890  0.10380  0.65810  1.0000
  H   H46       1.0  0.03110  0.60380  0.84190  1.0000
  H   H47       1.0  0.03110  0.89620  0.34190  1.0000
  H   H48       1.0  0.96890  0.39620  0.15810  1.0000
