data_image0
_chemical_formula_structural       Bi4N8O32C8H8C8H8C8H8C8H8C4H8C4H8
_chemical_formula_sum              "Bi4 N8 O32 C40 H48"
_cell_length_a       9.325
_cell_length_b       22.346
_cell_length_c       11.454
_cell_angle_alpha    90
_cell_angle_beta     105.91
_cell_angle_gamma    90

_space_group_name_H-M_alt    "P 1"
_space_group_IT_number       1

loop_
  _space_group_symop_operation_xyz
  'x, y, z'

loop_
  _atom_site_type_symbol
  _atom_site_label
  _atom_site_symmetry_multiplicity
  _atom_site_fract_x
  _atom_site_fract_y
  _atom_site_fract_z
  _atom_site_occupancy
  Bi  Bi1       1.0  0.06704  0.77565  0.30788  1.0000
  Bi  Bi2       1.0  0.06704  0.72435  0.80788  1.0000
  Bi  Bi3       1.0  0.93296  0.22435  0.69212  1.0000
  Bi  Bi4       1.0  0.93296  0.27565  0.19212  1.0000
  N   N1        1.0  0.18680  0.86660  0.25660  1.0000
  N   N2        1.0  0.18680  0.63340  0.75660  1.0000
  N   N3        1.0  0.81320  0.13340  0.74340  1.0000
  N   N4        1.0  0.81320  0.36660  0.24340  1.0000
  N   N5        1.0  0.93040  0.86380  0.35570  1.0000
  N   N6        1.0  0.93040  0.63620  0.85570  1.0000
  N   N7        1.0  0.06960  0.13620  0.64430  1.0000
  N   N8        1.0  0.06960  0.36380  0.14430  1.0000
  O   O1        1.0  0.98050  0.80160  0.09770  1.0000
  O   O2        1.0  0.98050  0.69840  0.59770  1.0000
  O   O3        1.0  0.01950  0.19840  0.90230  1.0000
  O   O4        1.0  0.01950  0.30160  0.40230  1.0000
  O   O5        1.0  0.06440  0.82720  0.94100  1.0000
  O   O6        1.0  0.06440  0.67280  0.44100  1.0000
  O   O7        1.0  0.93560  0.17280  0.05900  1.0000
  O   O8        1.0  0.93560  0.32720  0.55900  1.0000
  O   O9        1.0  0.34250  0.76760  0.36140  1.0000
  O   O10       1.0  0.34250  0.73240  0.86140  1.0000
  O   O11       1.0  0.65750  0.23240  0.63860  1.0000
  O   O12       1.0  0.65750  0.26760  0.13860  1.0000
  O   O13       1.0  0.53630  0.82170  0.47030  1.0000
  O   O14       1.0  0.53630  0.67830  0.97030  1.0000
  O   O15       1.0  0.46370  0.17830  0.52970  1.0000
  O   O16       1.0  0.46370  0.32170  0.02970  1.0000
  O   O17       1.0  0.15270  0.80480  0.51390  1.0000
  O   O18       1.0  0.15270  0.69520  0.01390  1.0000
  O   O19       1.0  0.84730  0.19520  0.48610  1.0000
  O   O20       1.0  0.84730  0.30480  0.98610  1.0000
  O   O21       1.0  0.07860  0.82730  0.67830  1.0000
  O   O22       1.0  0.07860  0.67270  0.17830  1.0000
  O   O23       1.0  0.92140  0.17270  0.32170  1.0000
  O   O24       1.0  0.92140  0.32730  0.82170  1.0000
  O   O25       1.0  0.79880  0.75960  0.25440  1.0000
  O   O26       1.0  0.79880  0.74040  0.75440  1.0000
  O   O27       1.0  0.20120  0.24040  0.74560  1.0000
  O   O28       1.0  0.20120  0.25960  0.24560  1.0000
  O   O29       1.0  0.57610  0.80180  0.18200  1.0000
  O   O30       1.0  0.57610  0.69820  0.68200  1.0000
  O   O31       1.0  0.42390  0.19820  0.81800  1.0000
  O   O32       1.0  0.42390  0.30180  0.31800  1.0000
  C   C1        1.0  0.07450  0.82580  0.04880  1.0000
  C   C2        1.0  0.07450  0.67420  0.54880  1.0000
  C   C3        1.0  0.92550  0.17420  0.95120  1.0000
  C   C4        1.0  0.92550  0.32580  0.45120  1.0000
  C   C5        1.0  0.21270  0.85520  0.13770  1.0000
  C   C6        1.0  0.21270  0.64480  0.63770  1.0000
  C   C7        1.0  0.78730  0.14480  0.86230  1.0000
  C   C8        1.0  0.78730  0.35520  0.36230  1.0000
  H   H1        1.0  0.23450  0.89230  0.10390  1.0000
  H   H2        1.0  0.23450  0.60770  0.60390  1.0000
  H   H3        1.0  0.76550  0.10770  0.89610  1.0000
  H   H4        1.0  0.76550  0.39230  0.39610  1.0000
  H   H5        1.0  0.29750  0.82940  0.14790  1.0000
  H   H6        1.0  0.29750  0.67060  0.64790  1.0000
  H   H7        1.0  0.70250  0.17060  0.85210  1.0000
  H   H8        1.0  0.70250  0.32940  0.35210  1.0000
  C   C9        1.0  0.41140  0.81730  0.39680  1.0000
  C   C10       1.0  0.41140  0.68270  0.89680  1.0000
  C   C11       1.0  0.58860  0.18270  0.60320  1.0000
  C   C12       1.0  0.58860  0.31730  0.10320  1.0000
  C   C13       1.0  0.33120  0.87610  0.34990  1.0000
  C   C14       1.0  0.33120  0.62390  0.84990  1.0000
  C   C15       1.0  0.66880  0.12390  0.65010  1.0000
  C   C16       1.0  0.66880  0.37610  0.15010  1.0000
  H   H9        1.0  0.39470  0.90020  0.31560  1.0000
  H   H10       1.0  0.39470  0.59980  0.81560  1.0000
  H   H11       1.0  0.60530  0.09980  0.68440  1.0000
  H   H12       1.0  0.60530  0.40020  0.18440  1.0000
  H   H13       1.0  0.31320  0.89770  0.41690  1.0000
  H   H14       1.0  0.31320  0.60230  0.91690  1.0000
  H   H15       1.0  0.68680  0.10230  0.58310  1.0000
  H   H16       1.0  0.68680  0.39770  0.08310  1.0000
  C   C17       1.0  0.06070  0.82570  0.56350  1.0000
  C   C18       1.0  0.06070  0.67430  0.06350  1.0000
  C   C19       1.0  0.93930  0.17430  0.43650  1.0000
  C   C20       1.0  0.93930  0.32570  0.93650  1.0000
  C   C21       1.0  0.91790  0.85050  0.48370  1.0000
  C   C22       1.0  0.91790  0.64950  0.98370  1.0000
  C   C23       1.0  0.08210  0.14950  0.51630  1.0000
  C   C24       1.0  0.08210  0.35050  0.01630  1.0000
  H   H17       1.0  0.89310  0.88670  0.51900  1.0000
  H   H18       1.0  0.89310  0.61330  0.01900  1.0000
  H   H19       1.0  0.10690  0.11330  0.48100  1.0000
  H   H20       1.0  0.10690  0.38670  0.98100  1.0000
  H   H21       1.0  0.83890  0.82230  0.47890  1.0000
  H   H22       1.0  0.83890  0.67770  0.97890  1.0000
  H   H23       1.0  0.16110  0.17770  0.52110  1.0000
  H   H24       1.0  0.16110  0.32230  0.02110  1.0000
  C   C25       1.0  0.71200  0.80540  0.23360  1.0000
  C   C26       1.0  0.71200  0.69460  0.73360  1.0000
  C   C27       1.0  0.28800  0.19460  0.76640  1.0000
  C   C28       1.0  0.28800  0.30540  0.26640  1.0000
  C   C29       1.0  0.77850  0.86590  0.26850  1.0000
  C   C30       1.0  0.77850  0.63410  0.76850  1.0000
  C   C31       1.0  0.22150  0.13410  0.73150  1.0000
  C   C32       1.0  0.22150  0.36590  0.23150  1.0000
  H   H25       1.0  0.71380  0.88850  0.30410  1.0000
  H   H26       1.0  0.71380  0.61150  0.80410  1.0000
  H   H27       1.0  0.28620  0.11150  0.69590  1.0000
  H   H28       1.0  0.28620  0.38850  0.19590  1.0000
  H   H29       1.0  0.78470  0.88640  0.19640  1.0000
  H   H30       1.0  0.78470  0.61360  0.69640  1.0000
  H   H31       1.0  0.21530  0.11360  0.80360  1.0000
  H   H32       1.0  0.21530  0.38640  0.30360  1.0000
  C   C33       1.0  0.08360  0.91880  0.25070  1.0000
  C   C34       1.0  0.08360  0.58120  0.75070  1.0000
  C   C35       1.0  0.91640  0.08120  0.74930  1.0000
  C   C36       1.0  0.91640  0.41880  0.24930  1.0000
  H   H33       1.0  0.13800  0.95530  0.25160  1.0000
  H   H34       1.0  0.13800  0.54470  0.75160  1.0000
  H   H35       1.0  0.86200  0.04470  0.74840  1.0000
  H   H36       1.0  0.86200  0.45530  0.24840  1.0000
  H   H37       1.0  0.00560  0.91720  0.17590  1.0000
  H   H38       1.0  0.00560  0.58280  0.67590  1.0000
  H   H39       1.0  0.99440  0.08280  0.82410  1.0000
  H   H40       1.0  0.99440  0.41720  0.32410  1.0000
  C   C37       1.0  0.01580  0.91880  0.35420  1.0000
  C   C38       1.0  0.01580  0.58120  0.85420  1.0000
  C   C39       1.0  0.98420  0.08120  0.64580  1.0000
  C   C40       1.0  0.98420  0.41880  0.14580  1.0000
  H   H41       1.0  0.95130  0.95280  0.34820  1.0000
  H   H42       1.0  0.95130  0.54720  0.84820  1.0000
  H   H43       1.0  0.04870  0.04720  0.65180  1.0000
  H   H44       1.0  0.04870  0.45280  0.15180  1.0000
  H   H45       1.0  0.09340  0.92190  0.42890  1.0000
  H   H46       1.0  0.09340  0.57810  0.92890  1.0000
  H   H47       1.0  0.90660  0.07810  0.57110  1.0000
  H   H48       1.0  0.90660  0.42190  0.07110  1.0000
