data_image0
_chemical_formula_structural       Bi4O32N8C8H8C8H8C4H8C4H8C8H8C8H8
_chemical_formula_sum              "Bi4 O32 N8 C40 H48"
_cell_length_a       9.291
_cell_length_b       22.275
_cell_length_c       11.402
_cell_angle_alpha    90
_cell_angle_beta     105.79
_cell_angle_gamma    90

_space_group_name_H-M_alt    "P 1"
_space_group_IT_number       1

loop_
  _space_group_symop_operation_xyz
  'x, y, z'

loop_
  _atom_site_type_symbol
  _atom_site_label
  _atom_site_symmetry_multiplicity
  _atom_site_fract_x
  _atom_site_fract_y
  _atom_site_fract_z
  _atom_site_occupancy
  Bi  Bi1       1.0  0.06651  0.27541  0.80593  1.0000
  Bi  Bi2       1.0  0.93349  0.77541  0.69407  1.0000
  Bi  Bi3       1.0  0.93349  0.72459  0.19407  1.0000
  Bi  Bi4       1.0  0.06651  0.22459  0.30593  1.0000
  O   O1        1.0  0.98025  0.30173  0.59719  1.0000
  O   O2        1.0  0.01975  0.80173  0.90281  1.0000
  O   O3        1.0  0.01975  0.69827  0.40281  1.0000
  O   O4        1.0  0.98025  0.19827  0.09719  1.0000
  O   O5        1.0  0.06313  0.32792  0.43900  1.0000
  O   O6        1.0  0.93687  0.82792  0.06100  1.0000
  O   O7        1.0  0.93687  0.67208  0.56100  1.0000
  O   O8        1.0  0.06313  0.17208  0.93900  1.0000
  O   O9        1.0  0.34082  0.26796  0.85951  1.0000
  O   O10       1.0  0.65918  0.76796  0.64049  1.0000
  O   O11       1.0  0.65918  0.73204  0.14049  1.0000
  O   O12       1.0  0.34082  0.23204  0.35951  1.0000
  O   O13       1.0  0.53664  0.32015  0.96834  1.0000
  O   O14       1.0  0.46336  0.82015  0.53166  1.0000
  O   O15       1.0  0.46336  0.67985  0.03166  1.0000
  O   O16       1.0  0.53664  0.17985  0.46834  1.0000
  O   O17       1.0  0.79782  0.26020  0.75224  1.0000
  O   O18       1.0  0.20218  0.76020  0.74776  1.0000
  O   O19       1.0  0.20218  0.73980  0.24776  1.0000
  O   O20       1.0  0.79782  0.23980  0.25224  1.0000
  O   O21       1.0  0.57387  0.30194  0.68143  1.0000
  O   O22       1.0  0.42613  0.80194  0.81857  1.0000
  O   O23       1.0  0.42613  0.69806  0.31857  1.0000
  O   O24       1.0  0.57387  0.19806  0.18143  1.0000
  O   O25       1.0  0.15414  0.30347  0.01357  1.0000
  O   O26       1.0  0.84586  0.80347  0.48643  1.0000
  O   O27       1.0  0.84586  0.69653  0.98643  1.0000
  O   O28       1.0  0.15414  0.19653  0.51357  1.0000
  O   O29       1.0  0.07633  0.32635  0.17504  1.0000
  O   O30       1.0  0.92367  0.82635  0.32496  1.0000
  O   O31       1.0  0.92367  0.67365  0.82496  1.0000
  O   O32       1.0  0.07633  0.17365  0.67504  1.0000
  N   N1        1.0  0.18693  0.36601  0.75745  1.0000
  N   N2        1.0  0.81307  0.86601  0.74255  1.0000
  N   N3        1.0  0.81307  0.63399  0.24255  1.0000
  N   N4        1.0  0.18693  0.13399  0.25745  1.0000
  N   N5        1.0  0.92786  0.36218  0.85574  1.0000
  N   N6        1.0  0.07214  0.86218  0.64426  1.0000
  N   N7        1.0  0.07214  0.63782  0.14426  1.0000
  N   N8        1.0  0.92786  0.13782  0.35574  1.0000
  C   C1        1.0  0.07536  0.32663  0.54897  1.0000
  C   C2        1.0  0.92464  0.82663  0.95103  1.0000
  C   C3        1.0  0.92464  0.67337  0.45103  1.0000
  C   C4        1.0  0.07536  0.17337  0.04897  1.0000
  C   C5        1.0  0.21138  0.35523  0.63693  1.0000
  C   C6        1.0  0.78862  0.85523  0.86307  1.0000
  C   C7        1.0  0.78862  0.64477  0.36307  1.0000
  C   C8        1.0  0.21138  0.14477  0.13693  1.0000
  H   H1        1.0  0.29985  0.32826  0.64634  1.0000
  H   H2        1.0  0.70015  0.82826  0.85366  1.0000
  H   H3        1.0  0.70015  0.67174  0.35366  1.0000
  H   H4        1.0  0.29985  0.17174  0.14634  1.0000
  H   H5        1.0  0.23391  0.39429  0.60245  1.0000
  H   H6        1.0  0.76609  0.89429  0.89755  1.0000
  H   H7        1.0  0.76609  0.60571  0.39755  1.0000
  H   H8        1.0  0.23391  0.10571  0.10245  1.0000
  C   C9        1.0  0.41148  0.31665  0.89578  1.0000
  C   C10       1.0  0.58852  0.81665  0.60422  1.0000
  C   C11       1.0  0.58852  0.68335  0.10422  1.0000
  C   C12       1.0  0.41148  0.18335  0.39578  1.0000
  C   C13       1.0  0.33139  0.37502  0.85042  1.0000
  C   C14       1.0  0.66861  0.87502  0.64958  1.0000
  C   C15       1.0  0.66861  0.62498  0.14958  1.0000
  C   C16       1.0  0.33139  0.12498  0.35042  1.0000
  H   H9        1.0  0.31307  0.39594  0.92262  1.0000
  H   H10       1.0  0.68693  0.89594  0.57738  1.0000
  H   H11       1.0  0.68693  0.60406  0.07738  1.0000
  H   H12       1.0  0.31307  0.10406  0.42262  1.0000
  H   H13       1.0  0.39669  0.40142  0.81580  1.0000
  H   H14       1.0  0.60331  0.90142  0.68420  1.0000
  H   H15       1.0  0.60331  0.59858  0.18420  1.0000
  H   H16       1.0  0.39669  0.09858  0.31580  1.0000
  C   C17       1.0  0.08597  0.41876  0.75004  1.0000
  C   C18       1.0  0.91403  0.91876  0.74996  1.0000
  C   C19       1.0  0.91403  0.58124  0.24996  1.0000
  C   C20       1.0  0.08597  0.08124  0.25004  1.0000
  H   H17       1.0  0.00650  0.41842  0.67072  1.0000
  H   H18       1.0  0.99350  0.91842  0.82928  1.0000
  H   H19       1.0  0.99350  0.58158  0.32928  1.0000
  H   H20       1.0  0.00650  0.08158  0.17072  1.0000
  H   H21       1.0  0.14548  0.45647  0.75390  1.0000
  H   H22       1.0  0.85452  0.95647  0.74610  1.0000
  H   H23       1.0  0.85452  0.54353  0.24610  1.0000
  H   H24       1.0  0.14548  0.04353  0.25390  1.0000
  C   C21       1.0  0.01563  0.41815  0.85577  1.0000
  C   C22       1.0  0.98437  0.91815  0.64423  1.0000
  C   C23       1.0  0.98437  0.58185  0.14423  1.0000
  C   C24       1.0  0.01563  0.08185  0.35577  1.0000
  H   H25       1.0  0.09468  0.42204  0.93488  1.0000
  H   H26       1.0  0.90532  0.92204  0.56512  1.0000
  H   H27       1.0  0.90532  0.57796  0.06512  1.0000
  H   H28       1.0  0.09468  0.07796  0.43488  1.0000
  H   H29       1.0  0.94654  0.45325  0.84791  1.0000
  H   H30       1.0  0.05346  0.95325  0.65209  1.0000
  H   H31       1.0  0.05346  0.54675  0.15209  1.0000
  H   H32       1.0  0.94654  0.04675  0.34791  1.0000
  C   C25       1.0  0.70945  0.30496  0.73070  1.0000
  C   C26       1.0  0.29055  0.80496  0.76930  1.0000
  C   C27       1.0  0.29055  0.69504  0.26930  1.0000
  C   C28       1.0  0.70945  0.19504  0.23070  1.0000
  C   C29       1.0  0.77852  0.36622  0.76740  1.0000
  C   C30       1.0  0.22148  0.86622  0.73260  1.0000
  C   C31       1.0  0.22148  0.63378  0.23260  1.0000
  C   C32       1.0  0.77852  0.13378  0.26740  1.0000
  H   H33       1.0  0.78741  0.38706  0.69201  1.0000
  H   H34       1.0  0.21259  0.88706  0.80799  1.0000
  H   H35       1.0  0.21259  0.61294  0.30799  1.0000
  H   H36       1.0  0.78741  0.11294  0.19201  1.0000
  H   H37       1.0  0.71100  0.39068  0.80350  1.0000
  H   H38       1.0  0.28900  0.89068  0.69650  1.0000
  H   H39       1.0  0.28900  0.60932  0.19650  1.0000
  H   H40       1.0  0.71100  0.10932  0.30350  1.0000
  C   C33       1.0  0.05941  0.32540  0.06428  1.0000
  C   C34       1.0  0.94059  0.82540  0.43572  1.0000
  C   C35       1.0  0.94059  0.67460  0.93572  1.0000
  C   C36       1.0  0.05941  0.17460  0.56428  1.0000
  C   C37       1.0  0.91610  0.35125  0.98121  1.0000
  C   C38       1.0  0.08390  0.85125  0.51879  1.0000
  C   C39       1.0  0.08390  0.64875  0.01879  1.0000
  C   C40       1.0  0.91610  0.14875  0.48121  1.0000
  H   H41       1.0  0.83194  0.32267  0.97736  1.0000
  H   H42       1.0  0.16806  0.82267  0.52264  1.0000
  H   H43       1.0  0.16806  0.67733  0.02264  1.0000
  H   H44       1.0  0.83194  0.17733  0.47736  1.0000
  H   H45       1.0  0.89212  0.38991  0.01631  1.0000
  H   H46       1.0  0.10788  0.88991  0.48369  1.0000
  H   H47       1.0  0.10788  0.61009  0.98369  1.0000
  H   H48       1.0  0.89212  0.11009  0.51631  1.0000
