data_image0
_chemical_formula_structural       C6H2C2H2C10H2C2H2C10H2C2H2C10H2C2H2C4O40Zn6
_chemical_formula_sum              "C48 H16 O40 Zn6"
_cell_length_a       12.5412
_cell_length_b       12.9653
_cell_length_c       14.9803
_cell_angle_alpha    113.869
_cell_angle_beta     95.216
_cell_angle_gamma    90.096

_space_group_name_H-M_alt    "P 1"
_space_group_IT_number       1

loop_
  _space_group_symop_operation_xyz
  'x, y, z'

loop_
  _atom_site_type_symbol
  _atom_site_label
  _atom_site_symmetry_multiplicity
  _atom_site_fract_x
  _atom_site_fract_y
  _atom_site_fract_z
  _atom_site_occupancy
  C   C1        1.0  0.31940  0.54400  0.64170  1.0000
  C   C2        1.0  0.68060  0.45600  0.35830  1.0000
  C   C3        1.0  0.24370  0.63640  0.68170  1.0000
  C   C4        1.0  0.75630  0.36360  0.31830  1.0000
  C   C5        1.0  0.20820  0.71610  0.65340  1.0000
  C   C6        1.0  0.79180  0.28390  0.34660  1.0000
  H   H1        1.0  0.22800  0.72850  0.60010  1.0000
  H   H2        1.0  0.77200  0.27150  0.39990  1.0000
  C   C7        1.0  0.13440  0.77860  0.71940  1.0000
  C   C8        1.0  0.86560  0.22140  0.28060  1.0000
  H   H3        1.0  0.09710  0.83980  0.71760  1.0000
  H   H4        1.0  0.90290  0.16020  0.28240  1.0000
  C   C9        1.0  0.12840  0.73330  0.78440  1.0000
  C   C10       1.0  0.87160  0.26670  0.21560  1.0000
  C   C11       1.0  0.07210  0.76690  0.87310  1.0000
  C   C12       1.0  0.92790  0.23310  0.12690  1.0000
  C   C13       1.0  0.84110  0.89010  0.08660  1.0000
  C   C14       1.0  0.15890  0.10990  0.91340  1.0000
  C   C15       1.0  0.74630  0.91470  0.14310  1.0000
  C   C16       1.0  0.25370  0.08530  0.85690  1.0000
  C   C17       1.0  0.67540  0.99500  0.16250  1.0000
  C   C18       1.0  0.32460  0.00500  0.83750  1.0000
  H   H5        1.0  0.67190  0.05180  0.13950  1.0000
  H   H6        1.0  0.32810  0.94820  0.86050  1.0000
  C   C19       1.0  0.60510  0.97710  0.22560  1.0000
  C   C20       1.0  0.39490  0.02290  0.77440  1.0000
  H   H7        1.0  0.54700  0.01970  0.25140  1.0000
  H   H8        1.0  0.45300  0.98030  0.74860  1.0000
  C   C21       1.0  0.63940  0.88800  0.23980  1.0000
  C   C22       1.0  0.36060  0.11200  0.76020  1.0000
  C   C23       1.0  0.60190  0.82640  0.29810  1.0000
  C   C24       1.0  0.39810  0.17360  0.70190  1.0000
  C   C25       1.0  0.11540  0.00980  0.18980  1.0000
  C   C26       1.0  0.88460  0.99020  0.81020  1.0000
  C   C27       1.0  0.20990  0.08770  0.21960  1.0000
  C   C28       1.0  0.79010  0.91230  0.78040  1.0000
  C   C29       1.0  0.28130  0.11600  0.17070  1.0000
  C   C30       1.0  0.71870  0.88400  0.82930  1.0000
  H   H9        1.0  0.27870  0.09260  0.10310  1.0000
  H   H10       1.0  0.72130  0.90740  0.89690  1.0000
  C   C31       1.0  0.36150  0.18820  0.24170  1.0000
  C   C32       1.0  0.63850  0.81180  0.75830  1.0000
  H   H11       1.0  0.42210  0.21990  0.22940  1.0000
  H   H12       1.0  0.57790  0.78010  0.77060  1.0000
  C   C33       1.0  0.33330  0.20180  0.32890  1.0000
  C   C34       1.0  0.66670  0.79820  0.67110  1.0000
  C   C35       1.0  0.38420  0.26640  0.42940  1.0000
  C   C36       1.0  0.61580  0.73360  0.57060  1.0000
  C   C37       1.0  0.38600  0.55280  0.33020  1.0000
  C   C38       1.0  0.61400  0.44720  0.66980  1.0000
  C   C39       1.0  0.28650  0.53120  0.26500  1.0000
  C   C40       1.0  0.71350  0.46880  0.73500  1.0000
  C   C41       1.0  0.21750  0.44200  0.22160  1.0000
  C   C42       1.0  0.78250  0.55800  0.77840  1.0000
  H   H13       1.0  0.22000  0.37380  0.22840  1.0000
  H   H14       1.0  0.78000  0.62620  0.77160  1.0000
  C   C43       1.0  0.13840  0.47360  0.16200  1.0000
  C   C44       1.0  0.86160  0.52640  0.83800  1.0000
  H   H15       1.0  0.07870  0.43010  0.12380  1.0000
  H   H16       1.0  0.92130  0.56990  0.87620  1.0000
  C   C45       1.0  0.16710  0.57590  0.17230  1.0000
  C   C46       1.0  0.83290  0.42410  0.82770  1.0000
  C   C47       1.0  0.11630  0.65360  0.13180  1.0000
  C   C48       1.0  0.88370  0.34640  0.86820  1.0000
  O   O1        1.0  0.35840  0.53840  0.56700  1.0000
  O   O2        1.0  0.64160  0.46160  0.43300  1.0000
  O   O3        1.0  0.33420  0.48020  0.68560  1.0000
  O   O4        1.0  0.66580  0.51980  0.31440  1.0000
  O   O5        1.0  0.19570  0.64530  0.76400  1.0000
  O   O6        1.0  0.80430  0.35470  0.23600  1.0000
  O   O7        1.0  0.09240  0.71810  0.93000  1.0000
  O   O8        1.0  0.90760  0.28190  0.07000  1.0000
  O   O9        1.0  0.00850  0.84360  0.88650  1.0000
  O   O10       1.0  0.99150  0.15640  0.11350  1.0000
  O   O11       1.0  0.89270  0.80430  0.08230  1.0000
  O   O12       1.0  0.10730  0.19570  0.91770  1.0000
  O   O13       1.0  0.86230  0.95730  0.04990  1.0000
  O   O14       1.0  0.13770  0.04270  0.95010  1.0000
  O   O15       1.0  0.72630  0.84550  0.19000  1.0000
  O   O16       1.0  0.27370  0.15450  0.81000  1.0000
  O   O17       1.0  0.64990  0.73850  0.29140  1.0000
  O   O18       1.0  0.35010  0.26150  0.70860  1.0000
  O   O19       1.0  0.52740  0.86650  0.34820  1.0000
  O   O20       1.0  0.47260  0.13350  0.65180  1.0000
  O   O21       1.0  0.09910  0.94850  0.09590  1.0000
  O   O22       1.0  0.90090  0.05150  0.90410  1.0000
  O   O23       1.0  0.06100  0.00120  0.25110  1.0000
  O   O24       1.0  0.93900  0.99880  0.74890  1.0000
  O   O25       1.0  0.24150  0.14070  0.31870  1.0000
  O   O26       1.0  0.75850  0.85930  0.68130  1.0000
  O   O27       1.0  0.34040  0.24990  0.49600  1.0000
  O   O28       1.0  0.65960  0.75010  0.50400  1.0000
  O   O29       1.0  0.46690  0.32560  0.44150  1.0000
  O   O30       1.0  0.53310  0.67440  0.55850  1.0000
  O   O31       1.0  0.40850  0.48910  0.37070  1.0000
  O   O32       1.0  0.59150  0.51090  0.62930  1.0000
  O   O33       1.0  0.44190  0.64050  0.33860  1.0000
  O   O34       1.0  0.55810  0.35950  0.66140  1.0000
  O   O35       1.0  0.25870  0.61480  0.23360  1.0000
  O   O36       1.0  0.74130  0.38520  0.76640  1.0000
  O   O37       1.0  0.03280  0.62110  0.07620  1.0000
  O   O38       1.0  0.96720  0.37890  0.92380  1.0000
  O   O39       1.0  0.15900  0.74700  0.15340  1.0000
  O   O40       1.0  0.84100  0.25300  0.84660  1.0000
  Zn  Zn1       1.0  0.00000  0.00000  0.00000  1.0000
  Zn  Zn2       1.0  0.04561  0.78938  0.06299  1.0000
  Zn  Zn3       1.0  0.95439  0.21062  0.93701  1.0000
  Zn  Zn4       1.0  0.50000  0.50000  0.50000  1.0000
  Zn  Zn5       1.0  0.59599  0.66358  0.36991  1.0000
  Zn  Zn6       1.0  0.40401  0.33642  0.63009  1.0000
