data_image0
_chemical_formula_structural       Ag8C16H8C8H8C8H8C32N8O48
_chemical_formula_sum              "Ag8 C64 H24 N8 O48"
_cell_length_a       13.132
_cell_length_b       6.9261
_cell_length_c       24.512
_cell_angle_alpha    90
_cell_angle_beta     90
_cell_angle_gamma    90

_space_group_name_H-M_alt    "P 1"
_space_group_IT_number       1

loop_
  _space_group_symop_operation_xyz
  'x, y, z'

loop_
  _atom_site_type_symbol
  _atom_site_label
  _atom_site_symmetry_multiplicity
  _atom_site_fract_x
  _atom_site_fract_y
  _atom_site_fract_z
  _atom_site_occupancy
  Ag  Ag1       1.0  0.74147  0.52582  0.23787  1.0000
  Ag  Ag2       1.0  0.75853  0.47418  0.73787  1.0000
  Ag  Ag3       1.0  0.25853  0.02582  0.26213  1.0000
  Ag  Ag4       1.0  0.24147  0.97418  0.76213  1.0000
  Ag  Ag5       1.0  0.25853  0.47418  0.76213  1.0000
  Ag  Ag6       1.0  0.24147  0.52582  0.26213  1.0000
  Ag  Ag7       1.0  0.74147  0.97418  0.73787  1.0000
  Ag  Ag8       1.0  0.75853  0.02582  0.23787  1.0000
  C   C1        1.0  0.62800  0.21900  0.42182  1.0000
  C   C2        1.0  0.87200  0.78100  0.92182  1.0000
  C   C3        1.0  0.37200  0.71900  0.07818  1.0000
  C   C4        1.0  0.12800  0.28100  0.57818  1.0000
  C   C5        1.0  0.37200  0.78100  0.57818  1.0000
  C   C6        1.0  0.12800  0.21900  0.07818  1.0000
  C   C7        1.0  0.62800  0.28100  0.92182  1.0000
  C   C8        1.0  0.87200  0.71900  0.42182  1.0000
  C   C9        1.0  0.59090  0.21960  0.47501  1.0000
  C   C10       1.0  0.90910  0.78040  0.97501  1.0000
  C   C11       1.0  0.40910  0.71960  0.02499  1.0000
  C   C12       1.0  0.09090  0.28040  0.52499  1.0000
  C   C13       1.0  0.40910  0.78040  0.52499  1.0000
  C   C14       1.0  0.09090  0.21960  0.02499  1.0000
  C   C15       1.0  0.59090  0.28040  0.97501  1.0000
  C   C16       1.0  0.90910  0.71960  0.47501  1.0000
  H   H1        1.0  0.63530  0.19720  0.50490  1.0000
  H   H2        1.0  0.86470  0.80280  0.00490  1.0000
  H   H3        1.0  0.36470  0.69720  0.99510  1.0000
  H   H4        1.0  0.13530  0.30280  0.49510  1.0000
  H   H5        1.0  0.36470  0.80280  0.49510  1.0000
  H   H6        1.0  0.13530  0.19720  0.99510  1.0000
  H   H7        1.0  0.63530  0.30280  0.00490  1.0000
  H   H8        1.0  0.86470  0.69720  0.50490  1.0000
  C   C17       1.0  0.48840  0.25320  0.48358  1.0000
  C   C18       1.0  0.01160  0.74680  0.98358  1.0000
  C   C19       1.0  0.51160  0.75320  0.01642  1.0000
  C   C20       1.0  0.98840  0.24680  0.51642  1.0000
  C   C21       1.0  0.51160  0.74680  0.51642  1.0000
  C   C22       1.0  0.98840  0.25320  0.01642  1.0000
  C   C23       1.0  0.48840  0.24680  0.98358  1.0000
  C   C24       1.0  0.01160  0.75320  0.48358  1.0000
  H   H9        1.0  0.46200  0.25660  0.51960  1.0000
  H   H10       1.0  0.03800  0.74340  0.01960  1.0000
  H   H11       1.0  0.53800  0.75660  0.98040  1.0000
  H   H12       1.0  0.96200  0.24340  0.48040  1.0000
  H   H13       1.0  0.53800  0.74340  0.48040  1.0000
  H   H14       1.0  0.96200  0.25660  0.98040  1.0000
  H   H15       1.0  0.46200  0.24340  0.01960  1.0000
  H   H16       1.0  0.03800  0.75660  0.51960  1.0000
  C   C25       1.0  0.42480  0.28180  0.43962  1.0000
  C   C26       1.0  0.07520  0.71820  0.93962  1.0000
  C   C27       1.0  0.57520  0.78180  0.06038  1.0000
  C   C28       1.0  0.92480  0.21820  0.56038  1.0000
  C   C29       1.0  0.57520  0.71820  0.56038  1.0000
  C   C30       1.0  0.92480  0.28180  0.06038  1.0000
  C   C31       1.0  0.42480  0.21820  0.93962  1.0000
  C   C32       1.0  0.07520  0.78180  0.43962  1.0000
  H   H17       1.0  0.35450  0.30610  0.44560  1.0000
  H   H18       1.0  0.14550  0.69390  0.94560  1.0000
  H   H19       1.0  0.64550  0.80610  0.05440  1.0000
  H   H20       1.0  0.85450  0.19390  0.55440  1.0000
  H   H21       1.0  0.64550  0.69390  0.55440  1.0000
  H   H22       1.0  0.85450  0.30610  0.05440  1.0000
  H   H23       1.0  0.35450  0.19390  0.94560  1.0000
  H   H24       1.0  0.14550  0.80610  0.44560  1.0000
  C   C33       1.0  0.46230  0.27540  0.38633  1.0000
  C   C34       1.0  0.03770  0.72460  0.88633  1.0000
  C   C35       1.0  0.53770  0.77540  0.11367  1.0000
  C   C36       1.0  0.96230  0.22460  0.61367  1.0000
  C   C37       1.0  0.53770  0.72460  0.61367  1.0000
  C   C38       1.0  0.96230  0.27540  0.11367  1.0000
  C   C39       1.0  0.46230  0.22460  0.88633  1.0000
  C   C40       1.0  0.03770  0.77540  0.38633  1.0000
  C   C41       1.0  0.56530  0.24290  0.37633  1.0000
  C   C42       1.0  0.93470  0.75710  0.87633  1.0000
  C   C43       1.0  0.43470  0.74290  0.12367  1.0000
  C   C44       1.0  0.06530  0.25710  0.62367  1.0000
  C   C45       1.0  0.43470  0.75710  0.62367  1.0000
  C   C46       1.0  0.06530  0.24290  0.12367  1.0000
  C   C47       1.0  0.56530  0.25710  0.87633  1.0000
  C   C48       1.0  0.93470  0.74290  0.37633  1.0000
  C   C49       1.0  0.38730  0.28830  0.33976  1.0000
  C   C50       1.0  0.11270  0.71170  0.83976  1.0000
  C   C51       1.0  0.61270  0.78830  0.16024  1.0000
  C   C52       1.0  0.88730  0.21170  0.66024  1.0000
  C   C53       1.0  0.61270  0.71170  0.66024  1.0000
  C   C54       1.0  0.88730  0.28830  0.16024  1.0000
  C   C55       1.0  0.38730  0.21170  0.83976  1.0000
  C   C56       1.0  0.11270  0.78830  0.33976  1.0000
  C   C57       1.0  0.60680  0.23790  0.31883  1.0000
  C   C58       1.0  0.89320  0.76210  0.81883  1.0000
  C   C59       1.0  0.39320  0.73790  0.18117  1.0000
  C   C60       1.0  0.10680  0.26210  0.68117  1.0000
  C   C61       1.0  0.39320  0.76210  0.68117  1.0000
  C   C62       1.0  0.10680  0.23790  0.18117  1.0000
  C   C63       1.0  0.60680  0.26210  0.81883  1.0000
  C   C64       1.0  0.89320  0.73790  0.31883  1.0000
  N   N1        1.0  0.73860  0.19810  0.41528  1.0000
  N   N2        1.0  0.76140  0.80190  0.91528  1.0000
  N   N3        1.0  0.26140  0.69810  0.08472  1.0000
  N   N4        1.0  0.23860  0.30190  0.58472  1.0000
  N   N5        1.0  0.26140  0.80190  0.58472  1.0000
  N   N6        1.0  0.23860  0.19810  0.08472  1.0000
  N   N7        1.0  0.73860  0.30190  0.91528  1.0000
  N   N8        1.0  0.76140  0.69810  0.41528  1.0000
  O   O1        1.0  0.39880  0.17560  0.30053  1.0000
  O   O2        1.0  0.10120  0.82440  0.80053  1.0000
  O   O3        1.0  0.60120  0.67560  0.19947  1.0000
  O   O4        1.0  0.89880  0.32440  0.69947  1.0000
  O   O5        1.0  0.60120  0.82440  0.69947  1.0000
  O   O6        1.0  0.89880  0.17560  0.19947  1.0000
  O   O7        1.0  0.39880  0.32440  0.80053  1.0000
  O   O8        1.0  0.10120  0.67560  0.30053  1.0000
  O   O9        1.0  0.31630  0.41270  0.34443  1.0000
  O   O10       1.0  0.18370  0.58730  0.84443  1.0000
  O   O11       1.0  0.68370  0.91270  0.15557  1.0000
  O   O12       1.0  0.81630  0.08730  0.65557  1.0000
  O   O13       1.0  0.68370  0.58730  0.65557  1.0000
  O   O14       1.0  0.81630  0.41270  0.15557  1.0000
  O   O15       1.0  0.31630  0.08730  0.84443  1.0000
  O   O16       1.0  0.18370  0.91270  0.34443  1.0000
  O   O17       1.0  0.60310  0.39080  0.29147  1.0000
  O   O18       1.0  0.89690  0.60920  0.79147  1.0000
  O   O19       1.0  0.39690  0.89080  0.20853  1.0000
  O   O20       1.0  0.10310  0.10920  0.70853  1.0000
  O   O21       1.0  0.39690  0.60920  0.70853  1.0000
  O   O22       1.0  0.10310  0.39080  0.20853  1.0000
  O   O23       1.0  0.60310  0.10920  0.79147  1.0000
  O   O24       1.0  0.89690  0.89080  0.29147  1.0000
  O   O25       1.0  0.64050  0.07780  0.30223  1.0000
  O   O26       1.0  0.85950  0.92220  0.80223  1.0000
  O   O27       1.0  0.35950  0.57780  0.19777  1.0000
  O   O28       1.0  0.14050  0.42220  0.69777  1.0000
  O   O29       1.0  0.35950  0.92220  0.69777  1.0000
  O   O30       1.0  0.14050  0.07780  0.19777  1.0000
  O   O31       1.0  0.64050  0.42220  0.80223  1.0000
  O   O32       1.0  0.85950  0.57780  0.30223  1.0000
  O   O33       1.0  0.77810  0.26950  0.37476  1.0000
  O   O34       1.0  0.72190  0.73050  0.87476  1.0000
  O   O35       1.0  0.22190  0.76950  0.12524  1.0000
  O   O36       1.0  0.27810  0.23050  0.62524  1.0000
  O   O37       1.0  0.22190  0.73050  0.62524  1.0000
  O   O38       1.0  0.27810  0.26950  0.12524  1.0000
  O   O39       1.0  0.77810  0.23050  0.87476  1.0000
  O   O40       1.0  0.72190  0.76950  0.37476  1.0000
  O   O41       1.0  0.78570  0.11380  0.45139  1.0000
  O   O42       1.0  0.71430  0.88620  0.95139  1.0000
  O   O43       1.0  0.21430  0.61380  0.04861  1.0000
  O   O44       1.0  0.28570  0.38620  0.54861  1.0000
  O   O45       1.0  0.21430  0.88620  0.54861  1.0000
  O   O46       1.0  0.28570  0.11380  0.04861  1.0000
  O   O47       1.0  0.78570  0.38620  0.95139  1.0000
  O   O48       1.0  0.71430  0.61380  0.45139  1.0000
