data_image0
_chemical_formula_structural       In4O32C24H8C16
_chemical_formula_sum              "In4 O32 C40 H8"
_cell_length_a       12.5808
_cell_length_b       12.5808
_cell_length_c       12.9625
_cell_angle_alpha    90
_cell_angle_beta     90
_cell_angle_gamma    90

_space_group_name_H-M_alt    "P 1"
_space_group_IT_number       1

loop_
  _space_group_symop_operation_xyz
  'x, y, z'

loop_
  _atom_site_type_symbol
  _atom_site_label
  _atom_site_symmetry_multiplicity
  _atom_site_fract_x
  _atom_site_fract_y
  _atom_site_fract_z
  _atom_site_occupancy
  In  In1       1.0  0.25000  0.75000  0.75000  1.0000
  In  In2       1.0  0.75000  0.25000  0.25000  1.0000
  In  In3       1.0  0.75000  0.25000  0.75000  1.0000
  In  In4       1.0  0.25000  0.75000  0.25000  1.0000
  O   O1        1.0  0.23790  0.63530  0.90280  1.0000
  O   O2        1.0  0.86470  0.23790  0.40280  1.0000
  O   O3        1.0  0.26210  0.86470  0.90280  1.0000
  O   O4        1.0  0.63530  0.26210  0.40280  1.0000
  O   O5        1.0  0.73790  0.36470  0.59720  1.0000
  O   O6        1.0  0.13530  0.73790  0.09720  1.0000
  O   O7        1.0  0.76210  0.13530  0.59720  1.0000
  O   O8        1.0  0.36470  0.76210  0.09720  1.0000
  O   O9        1.0  0.76210  0.36470  0.09720  1.0000
  O   O10       1.0  0.13530  0.76210  0.59720  1.0000
  O   O11       1.0  0.73790  0.13530  0.09720  1.0000
  O   O12       1.0  0.36470  0.73790  0.59720  1.0000
  O   O13       1.0  0.26210  0.63530  0.40280  1.0000
  O   O14       1.0  0.86470  0.26210  0.90280  1.0000
  O   O15       1.0  0.23790  0.86470  0.40280  1.0000
  O   O16       1.0  0.63530  0.23790  0.90280  1.0000
  O   O17       1.0  0.10290  0.68900  0.81020  1.0000
  O   O18       1.0  0.81100  0.10290  0.31020  1.0000
  O   O19       1.0  0.39710  0.81100  0.81020  1.0000
  O   O20       1.0  0.68900  0.39710  0.31020  1.0000
  O   O21       1.0  0.60290  0.31100  0.68980  1.0000
  O   O22       1.0  0.18900  0.60290  0.18980  1.0000
  O   O23       1.0  0.89710  0.18900  0.68980  1.0000
  O   O24       1.0  0.31100  0.89710  0.18980  1.0000
  O   O25       1.0  0.89710  0.31100  0.18980  1.0000
  O   O26       1.0  0.18900  0.89710  0.68980  1.0000
  O   O27       1.0  0.60290  0.18900  0.18980  1.0000
  O   O28       1.0  0.31100  0.60290  0.68980  1.0000
  O   O29       1.0  0.39710  0.68900  0.31020  1.0000
  O   O30       1.0  0.81100  0.39710  0.81020  1.0000
  O   O31       1.0  0.10290  0.81100  0.31020  1.0000
  O   O32       1.0  0.68900  0.10290  0.81020  1.0000
  C   C1        1.0  0.06530  0.56960  0.94580  1.0000
  C   C2        1.0  0.93040  0.06530  0.44580  1.0000
  C   C3        1.0  0.43470  0.93040  0.94580  1.0000
  C   C4        1.0  0.56960  0.43470  0.44580  1.0000
  C   C5        1.0  0.56530  0.43040  0.55420  1.0000
  C   C6        1.0  0.06960  0.56530  0.05420  1.0000
  C   C7        1.0  0.93470  0.06960  0.55420  1.0000
  C   C8        1.0  0.43040  0.93470  0.05420  1.0000
  C   C9        1.0  0.93470  0.43040  0.05420  1.0000
  C   C10       1.0  0.06960  0.93470  0.55420  1.0000
  C   C11       1.0  0.56530  0.06960  0.05420  1.0000
  C   C12       1.0  0.43040  0.56530  0.55420  1.0000
  C   C13       1.0  0.43470  0.56960  0.44580  1.0000
  C   C14       1.0  0.93040  0.43470  0.94580  1.0000
  C   C15       1.0  0.06530  0.93040  0.44580  1.0000
  C   C16       1.0  0.56960  0.06530  0.94580  1.0000
  C   C17       1.0  0.99670  0.50330  0.89330  1.0000
  C   C18       1.0  0.99670  0.99670  0.39330  1.0000
  C   C19       1.0  0.50330  0.99670  0.89330  1.0000
  C   C20       1.0  0.50330  0.50330  0.39330  1.0000
  C   C21       1.0  0.49670  0.49670  0.60670  1.0000
  C   C22       1.0  0.00330  0.49670  0.10670  1.0000
  C   C23       1.0  0.00330  0.00330  0.60670  1.0000
  C   C24       1.0  0.49670  0.00330  0.10670  1.0000
  H   H1        1.0  0.99510  0.50490  0.82010  1.0000
  H   H2        1.0  0.99510  0.99510  0.32010  1.0000
  H   H3        1.0  0.50490  0.99510  0.82010  1.0000
  H   H4        1.0  0.50490  0.50490  0.32010  1.0000
  H   H5        1.0  0.49510  0.49510  0.67990  1.0000
  H   H6        1.0  0.00490  0.49510  0.17990  1.0000
  H   H7        1.0  0.00490  0.00490  0.67990  1.0000
  H   H8        1.0  0.49510  0.00490  0.17990  1.0000
  C   C25       1.0  0.14150  0.63580  0.88450  1.0000
  C   C26       1.0  0.86420  0.14150  0.38450  1.0000
  C   C27       1.0  0.35850  0.86420  0.88450  1.0000
  C   C28       1.0  0.63580  0.35850  0.38450  1.0000
  C   C29       1.0  0.64150  0.36420  0.61550  1.0000
  C   C30       1.0  0.13580  0.64150  0.11550  1.0000
  C   C31       1.0  0.85850  0.13580  0.61550  1.0000
  C   C32       1.0  0.36420  0.85850  0.11550  1.0000
  C   C33       1.0  0.85850  0.36420  0.11550  1.0000
  C   C34       1.0  0.13580  0.85850  0.61550  1.0000
  C   C35       1.0  0.64150  0.13580  0.11550  1.0000
  C   C36       1.0  0.36420  0.64150  0.61550  1.0000
  C   C37       1.0  0.35850  0.63580  0.38450  1.0000
  C   C38       1.0  0.86420  0.35850  0.88450  1.0000
  C   C39       1.0  0.14150  0.86420  0.38450  1.0000
  C   C40       1.0  0.63580  0.14150  0.88450  1.0000
