data_image0
_chemical_formula_structural       In2O16C16H2C2H2C2H2C4H4C2H2C2H4C4S2C2S2C4S2C4S2C14S4H2C4H2S4H2C4H2C6H4C6H4C28O4H2C2H2C2H2C2H2C4H2C2H2C2H2C2H2In2C2H4C2H4C2H4C2H4C8O12
_chemical_formula_sum              "In4 O32 C136 H64 S16"
_cell_length_a       14.611
_cell_length_b       14.811
_cell_length_c       30.363
_cell_angle_alpha    93.057
_cell_angle_beta     93.057
_cell_angle_gamma    117.98

_space_group_name_H-M_alt    "P 1"
_space_group_IT_number       1

loop_
  _space_group_symop_operation_xyz
  'x, y, z'

loop_
  _atom_site_type_symbol
  _atom_site_label
  _atom_site_symmetry_multiplicity
  _atom_site_fract_x
  _atom_site_fract_y
  _atom_site_fract_z
  _atom_site_occupancy
  In  In1       1.0  0.46886  0.96103  0.30684  1.0000
  In  In2       1.0  0.53114  0.03897  0.69316  1.0000
  O   O1        1.0  0.52790  0.89360  0.36150  1.0000
  O   O2        1.0  0.47210  0.10640  0.63850  1.0000
  O   O3        1.0  0.36660  0.81330  0.33470  1.0000
  O   O4        1.0  0.63340  0.18670  0.66530  1.0000
  O   O5        1.0  0.30940  0.92520  0.26640  1.0000
  O   O6        1.0  0.69060  0.07480  0.73360  1.0000
  O   O7        1.0  0.45570  0.04960  0.24920  1.0000
  O   O8        1.0  0.54430  0.95040  0.75080  1.0000
  O   O9        1.0  0.58410  0.12190  0.33620  1.0000
  O   O10       1.0  0.41590  0.87810  0.66380  1.0000
  O   O11       1.0  0.47450  0.85060  0.25040  1.0000
  O   O12       1.0  0.52550  0.14940  0.74960  1.0000
  O   O13       1.0  0.42530  0.05090  0.36000  1.0000
  O   O14       1.0  0.57470  0.94910  0.64000  1.0000
  O   O15       1.0  0.61940  0.98840  0.27530  1.0000
  O   O16       1.0  0.38060  0.01160  0.72470  1.0000
  C   C1        1.0  0.42990  0.81440  0.36090  1.0000
  C   C2        1.0  0.57010  0.18560  0.63910  1.0000
  C   C3        1.0  0.35830  0.99370  0.24210  1.0000
  C   C4        1.0  0.64170  0.00630  0.75790  1.0000
  C   C5        1.0  0.41110  0.72990  0.39190  1.0000
  C   C6        1.0  0.58890  0.27010  0.60810  1.0000
  C   C7        1.0  0.30110  0.01450  0.20520  1.0000
  C   C8        1.0  0.69890  0.98550  0.79480  1.0000
  C   C9        1.0  0.48850  0.72590  0.41790  1.0000
  C   C10       1.0  0.51150  0.27410  0.58210  1.0000
  C   C11       1.0  0.30850  0.65210  0.39120  1.0000
  C   C12       1.0  0.69150  0.34790  0.60880  1.0000
  C   C13       1.0  0.19240  0.97440  0.20180  1.0000
  C   C14       1.0  0.80760  0.02560  0.79820  1.0000
  C   C15       1.0  0.36320  0.07140  0.17370  1.0000
  C   C16       1.0  0.63680  0.92860  0.82630  1.0000
  H   H1        1.0  0.55750  0.77490  0.41670  1.0000
  H   H2        1.0  0.44250  0.22510  0.58330  1.0000
  C   C17       1.0  0.46240  0.64680  0.44660  1.0000
  C   C18       1.0  0.53760  0.35320  0.55340  1.0000
  H   H3        1.0  0.25620  0.65220  0.37250  1.0000
  H   H4        1.0  0.74380  0.34780  0.62750  1.0000
  C   C19       1.0  0.28550  0.57180  0.42020  1.0000
  C   C20       1.0  0.71450  0.42820  0.57980  1.0000
  H   H5        1.0  0.15170  0.93310  0.22260  1.0000
  H   H6        1.0  0.84830  0.06690  0.77740  1.0000
  C   C21       1.0  0.14850  0.99970  0.16560  1.0000
  C   C22       1.0  0.85150  0.00030  0.83440  1.0000
  C   C23       1.0  0.31480  0.09590  0.13530  1.0000
  C   C24       1.0  0.68520  0.90410  0.86470  1.0000
  H   H7        1.0  0.43450  0.09400  0.17660  1.0000
  H   H8        1.0  0.56550  0.90600  0.82340  1.0000
  H   H9        1.0  0.51500  0.64730  0.46550  1.0000
  H   H10       1.0  0.48500  0.35270  0.53450  1.0000
  C   C25       1.0  0.36550  0.57160  0.44760  1.0000
  C   C26       1.0  0.63450  0.42840  0.55240  1.0000
  H   H11       1.0  0.21740  0.52010  0.42070  1.0000
  H   H12       1.0  0.78260  0.47990  0.57930  1.0000
  C   C27       1.0  0.20840  0.05660  0.13260  1.0000
  C   C28       1.0  0.79160  0.94340  0.86740  1.0000
  H   H13       1.0  0.07740  0.97830  0.16330  1.0000
  H   H14       1.0  0.92260  0.02170  0.83670  1.0000
  H   H15       1.0  0.35440  0.13590  0.11390  1.0000
  H   H16       1.0  0.64560  0.86410  0.88610  1.0000
  C   C29       1.0  0.33610  0.48620  0.47900  1.0000
  C   C30       1.0  0.66390  0.51380  0.52100  1.0000
  C   C31       1.0  0.15990  0.08570  0.09450  1.0000
  C   C32       1.0  0.84010  0.91430  0.90550  1.0000
  S   S1        1.0  0.27420  0.35790  0.45050  1.0000
  S   S2        1.0  0.72580  0.64210  0.54950  1.0000
  C   C33       1.0  0.34730  0.49620  0.52150  1.0000
  C   C34       1.0  0.65270  0.50380  0.47850  1.0000
  S   S3        1.0  0.18240  0.04400  0.04104  1.0000
  S   S4        1.0  0.81760  0.95600  0.95896  1.0000
  C   C35       1.0  0.10330  0.13250  0.09430  1.0000
  C   C36       1.0  0.89670  0.86750  0.90570  1.0000
  C   C37       1.0  0.25650  0.29160  0.49950  1.0000
  C   C38       1.0  0.74350  0.70840  0.50050  1.0000
  S   S5        1.0  0.28980  0.37740  0.54850  1.0000
  S   S6        1.0  0.71020  0.62260  0.45150  1.0000
  C   C39       1.0  0.38060  0.59110  0.55220  1.0000
  C   C40       1.0  0.61940  0.40890  0.44780  1.0000
  C   C41       1.0  0.13340  0.11340  0.01200  1.0000
  C   C42       1.0  0.86660  0.88660  0.98800  1.0000
  S   S7        1.0  0.05240  0.14940  0.04292  1.0000
  S   S8        1.0  0.94760  0.85060  0.95708  1.0000
  C   C43       1.0  0.07460  0.17730  0.13360  1.0000
  C   C44       1.0  0.92540  0.82270  0.86640  1.0000
  C   C45       1.0  0.22280  0.18960  0.49950  1.0000
  C   C46       1.0  0.77720  0.81040  0.50050  1.0000
  C   C47       1.0  0.31350  0.60450  0.57830  1.0000
  C   C48       1.0  0.68650  0.39550  0.42170  1.0000
  C   C49       1.0  0.48350  0.66980  0.55570  1.0000
  C   C50       1.0  0.51650  0.33020  0.44430  1.0000
  C   C51       1.0  0.13860  0.12710  0.96960  1.0000
  C   C52       1.0  0.86140  0.87290  0.03040  1.0000
  C   C53       1.0  0.97480  0.16540  0.13530  1.0000
  C   C54       1.0  0.02520  0.83460  0.86470  1.0000
  C   C55       1.0  0.15990  0.24920  0.16600  1.0000
  C   C56       1.0  0.84010  0.75080  0.83400  1.0000
  S   S9        1.0  0.20100  0.12430  0.54823  1.0000
  S   S10       1.0  0.79900  0.87570  0.45177  1.0000
  S   S11       1.0  0.18630  0.10530  0.45018  1.0000
  S   S12       1.0  0.81370  0.89470  0.54982  1.0000
  H   H17       1.0  0.24540  0.55220  0.57760  1.0000
  H   H18       1.0  0.75460  0.44780  0.42240  1.0000
  C   C57       1.0  0.34520  0.69710  0.60670  1.0000
  C   C58       1.0  0.65480  0.30290  0.39330  1.0000
  C   C59       1.0  0.51840  0.76100  0.58390  1.0000
  C   C60       1.0  0.48160  0.23900  0.41610  1.0000
  H   H19       1.0  0.53080  0.66190  0.53870  1.0000
  H   H20       1.0  0.46920  0.33810  0.46130  1.0000
  S   S13       1.0  0.22050  0.09230  0.93834  1.0000
  S   S14       1.0  0.77950  0.90770  0.06166  1.0000
  S   S15       1.0  0.09110  0.19790  0.94099  1.0000
  S   S16       1.0  0.90890  0.80210  0.05901  1.0000
  H   H21       1.0  0.92140  0.12440  0.11370  1.0000
  H   H22       1.0  0.07860  0.87560  0.88630  1.0000
  C   C61       1.0  0.95760  0.21970  0.17210  1.0000
  C   C62       1.0  0.04240  0.78030  0.82790  1.0000
  C   C63       1.0  0.13130  0.30150  0.20050  1.0000
  C   C64       1.0  0.86870  0.69850  0.79950  1.0000
  H   H23       1.0  0.22790  0.26070  0.16460  1.0000
  H   H24       1.0  0.77210  0.73930  0.83540  1.0000
  C   C65       1.0  0.15710  0.99650  0.52040  1.0000
  C   C66       1.0  0.84290  0.00350  0.47960  1.0000
  C   C67       1.0  0.14850  0.98660  0.47690  1.0000
  C   C68       1.0  0.85150  0.01340  0.52310  1.0000
  C   C69       1.0  0.44700  0.77410  0.60920  1.0000
  C   C70       1.0  0.55300  0.22590  0.39080  1.0000
  H   H25       1.0  0.29730  0.70500  0.62330  1.0000
  H   H26       1.0  0.70270  0.29500  0.37670  1.0000
  H   H27       1.0  0.58760  0.81150  0.58570  1.0000
  H   H28       1.0  0.41240  0.18850  0.41430  1.0000
  C   C71       1.0  0.22560  0.16760  0.89470  1.0000
  C   C72       1.0  0.77440  0.83240  0.10530  1.0000
  C   C73       1.0  0.15800  0.20930  0.89460  1.0000
  C   C74       1.0  0.84200  0.79070  0.10540  1.0000
  C   C75       1.0  0.03820  0.28810  0.20330  1.0000
  C   C76       1.0  0.96180  0.71190  0.79670  1.0000
  H   H29       1.0  0.89030  0.20900  0.17530  1.0000
  H   H30       1.0  0.10970  0.79100  0.82470  1.0000
  H   H31       1.0  0.18330  0.34700  0.22170  1.0000
  H   H32       1.0  0.81670  0.65300  0.77830  1.0000
  C   C77       1.0  0.13670  0.91460  0.55180  1.0000
  C   C78       1.0  0.86330  0.08540  0.44820  1.0000
  C   C79       1.0  0.12380  0.89550  0.44570  1.0000
  C   C80       1.0  0.87620  0.10450  0.55430  1.0000
  C   C81       1.0  0.48340  0.87380  0.64030  1.0000
  C   C82       1.0  0.51660  0.12620  0.35970  1.0000
  C   C83       1.0  0.27470  0.15040  0.85440  1.0000
  C   C84       1.0  0.72530  0.84960  0.14560  1.0000
  C   C85       1.0  0.14570  0.27670  0.86060  1.0000
  C   C86       1.0  0.85430  0.72330  0.13940  1.0000
  C   C87       1.0  0.01650  0.35070  0.24090  1.0000
  C   C88       1.0  0.98350  0.64930  0.75910  1.0000
  C   C89       1.0  0.04580  0.83330  0.55380  1.0000
  C   C90       1.0  0.95420  0.16670  0.44620  1.0000
  C   C91       1.0  0.21700  0.92540  0.58220  1.0000
  C   C92       1.0  0.78300  0.07460  0.41780  1.0000
  C   C93       1.0  0.18860  0.89190  0.41670  1.0000
  C   C94       1.0  0.81140  0.10810  0.58330  1.0000
  C   C95       1.0  0.02340  0.80920  0.44220  1.0000
  C   C96       1.0  0.97660  0.19080  0.55780  1.0000
  C   C97       1.0  0.38020  0.19990  0.85860  1.0000
  C   C98       1.0  0.61980  0.80010  0.14140  1.0000
  C   C99       1.0  0.22090  0.08620  0.81730  1.0000
  C   C100      1.0  0.77910  0.91380  0.18270  1.0000
  C   C101      1.0  0.22130  0.33500  0.83390  1.0000
  C   C102      1.0  0.77870  0.66500  0.16610  1.0000
  C   C103      1.0  0.05110  0.27240  0.85520  1.0000
  C   C104      1.0  0.94890  0.72760  0.14480  1.0000
  O   O17       1.0  0.09310  0.42610  0.26200  1.0000
  O   O18       1.0  0.90690  0.57390  0.73800  1.0000
  O   O19       1.0  0.92750  0.32680  0.24310  1.0000
  O   O20       1.0  0.07250  0.67320  0.75690  1.0000
  H   H33       1.0  0.99190  0.82570  0.53370  1.0000
  H   H34       1.0  0.00810  0.17430  0.46630  1.0000
  C   C105      1.0  0.02210  0.75710  0.58330  1.0000
  C   C106      1.0  0.97790  0.24290  0.41670  1.0000
  H   H35       1.0  0.28270  0.98170  0.58240  1.0000
  H   H36       1.0  0.71730  0.01830  0.41760  1.0000
  C   C107      1.0  0.19860  0.85050  0.61280  1.0000
  C   C108      1.0  0.80140  0.14950  0.38720  1.0000
  H   H37       1.0  0.25310  0.94940  0.41620  1.0000
  H   H38       1.0  0.74690  0.05060  0.58380  1.0000
  C   C109      1.0  0.16330  0.80420  0.38680  1.0000
  C   C110      1.0  0.83670  0.19580  0.61320  1.0000
  H   H39       1.0  0.97460  0.81000  0.46040  1.0000
  H   H40       1.0  0.02540  0.19000  0.53960  1.0000
  C   C111      1.0  0.99440  0.72320  0.41260  1.0000
  C   C112      1.0  0.00560  0.27680  0.58740  1.0000
  C   C113      1.0  0.43680  0.18500  0.82150  1.0000
  C   C114      1.0  0.56320  0.81500  0.17850  1.0000
  H   H41       1.0  0.41680  0.24220  0.88410  1.0000
  H   H42       1.0  0.58320  0.75780  0.11590  1.0000
  C   C115      1.0  0.27250  0.06740  0.78370  1.0000
  C   C116      1.0  0.72750  0.93260  0.21630  1.0000
  H   H43       1.0  0.14860  0.05470  0.81450  1.0000
  H   H44       1.0  0.85140  0.94530  0.18550  1.0000
  C   C117      1.0  0.20530  0.40150  0.80280  1.0000
  C   C118      1.0  0.79470  0.59850  0.19720  1.0000
  H   H45       1.0  0.28390  0.33270  0.83540  1.0000
  H   H46       1.0  0.71610  0.66730  0.16460  1.0000
  C   C119      1.0  0.02760  0.32970  0.82580  1.0000
  C   C120      1.0  0.97240  0.67030  0.17420  1.0000
  H   H47       1.0  0.99900  0.22900  0.87190  1.0000
  H   H48       1.0  0.00100  0.77100  0.12810  1.0000
  In  In3       1.0  0.96913  0.45752  0.29818  1.0000
  In  In4       1.0  0.03087  0.54248  0.70182  1.0000
  C   C121      1.0  0.10130  0.76530  0.61350  1.0000
  C   C122      1.0  0.89870  0.23470  0.38650  1.0000
  H   H49       1.0  0.95520  0.70250  0.58260  1.0000
  H   H50       1.0  0.04480  0.29750  0.41740  1.0000
  H   H51       1.0  0.25290  0.85870  0.63290  1.0000
  H   H52       1.0  0.74710  0.14130  0.36710  1.0000
  C   C123      1.0  0.06860  0.72150  0.38540  1.0000
  C   C124      1.0  0.93140  0.27850  0.61460  1.0000
  H   H53       1.0  0.21210  0.80410  0.36830  1.0000
  H   H54       1.0  0.78790  0.19590  0.63170  1.0000
  H   H55       1.0  0.92750  0.66820  0.41090  1.0000
  H   H56       1.0  0.07250  0.33180  0.58910  1.0000
  C   C125      1.0  0.37830  0.11930  0.78690  1.0000
  C   C126      1.0  0.62170  0.88070  0.21310  1.0000
  H   H57       1.0  0.50900  0.21970  0.82250  1.0000
  H   H58       1.0  0.49100  0.78030  0.17750  1.0000
  H   H59       1.0  0.23540  0.02030  0.75960  1.0000
  H   H60       1.0  0.76460  0.97970  0.24040  1.0000
  C   C127      1.0  0.10640  0.39120  0.79840  1.0000
  C   C128      1.0  0.89360  0.60880  0.20160  1.0000
  H   H61       1.0  0.25860  0.44720  0.78730  1.0000
  H   H62       1.0  0.74140  0.55280  0.21270  1.0000
  H   H63       1.0  0.96310  0.32790  0.82420  1.0000
  H   H64       1.0  0.03690  0.67210  0.17580  1.0000
  C   C129      1.0  0.08120  0.68480  0.64540  1.0000
  C   C130      1.0  0.91880  0.31520  0.35460  1.0000
  C   C131      1.0  0.03340  0.62490  0.35220  1.0000
  C   C132      1.0  0.96660  0.37510  0.64780  1.0000
  C   C133      1.0  0.42930  0.09100  0.75000  1.0000
  C   C134      1.0  0.57070  0.90900  0.25000  1.0000
  C   C135      1.0  0.08620  0.45350  0.76210  1.0000
  C   C136      1.0  0.91380  0.54650  0.23790  1.0000
  O   O21       1.0  0.15260  0.68550  0.67000  1.0000
  O   O22       1.0  0.84740  0.31450  0.33000  1.0000
  O   O23       1.0  0.98560  0.61630  0.64790  1.0000
  O   O24       1.0  0.01440  0.38370  0.35210  1.0000
  O   O25       1.0  0.10200  0.61640  0.32980  1.0000
  O   O26       1.0  0.89800  0.38360  0.67020  1.0000
  O   O27       1.0  0.93870  0.55380  0.34940  1.0000
  O   O28       1.0  0.06130  0.44620  0.65060  1.0000
  O   O29       1.0  0.16270  0.52320  0.74430  1.0000
  O   O30       1.0  0.83730  0.47680  0.25570  1.0000
  O   O31       1.0  0.99120  0.43510  0.75880  1.0000
  O   O32       1.0  0.00880  0.56490  0.24120  1.0000
