data_image0
_chemical_formula_structural       Cu8S4O16S4O16S4O16N4C12N4C8N4C12N8C12N4C8N4C12N4O4H56
_chemical_formula_sum              "Cu8 S12 O52 N32 C64 H56"
_cell_length_a       9.944
_cell_length_b       13.928
_cell_length_c       26.275
_cell_angle_alpha    90
_cell_angle_beta     99.59
_cell_angle_gamma    90

_space_group_name_H-M_alt    "P 1"
_space_group_IT_number       1

loop_
  _space_group_symop_operation_xyz
  'x, y, z'

loop_
  _atom_site_type_symbol
  _atom_site_label
  _atom_site_symmetry_multiplicity
  _atom_site_fract_x
  _atom_site_fract_y
  _atom_site_fract_z
  _atom_site_occupancy
  Cu  Cu1       1.0  0.56580  0.35910  0.33610  1.0000
  Cu  Cu2       1.0  0.43420  0.85910  0.16390  1.0000
  Cu  Cu3       1.0  0.43420  0.64090  0.66390  1.0000
  Cu  Cu4       1.0  0.56580  0.14090  0.83610  1.0000
  Cu  Cu5       1.0  0.06350  0.17830  0.35270  1.0000
  Cu  Cu6       1.0  0.93650  0.67830  0.14730  1.0000
  Cu  Cu7       1.0  0.93650  0.82170  0.64730  1.0000
  Cu  Cu8       1.0  0.06350  0.32170  0.85270  1.0000
  S   S1        1.0  0.34080  0.42680  0.24220  1.0000
  S   S2        1.0  0.65920  0.92680  0.25780  1.0000
  S   S3        1.0  0.65920  0.57320  0.75780  1.0000
  S   S4        1.0  0.34080  0.07320  0.74220  1.0000
  O   O1        1.0  0.30400  0.52080  0.21700  1.0000
  O   O2        1.0  0.69600  0.02080  0.28300  1.0000
  O   O3        1.0  0.69600  0.47920  0.78300  1.0000
  O   O4        1.0  0.30400  0.97920  0.71700  1.0000
  O   O5        1.0  0.46420  0.44510  0.28190  1.0000
  O   O6        1.0  0.53580  0.94510  0.21810  1.0000
  O   O7        1.0  0.53580  0.55490  0.71810  1.0000
  O   O8        1.0  0.46420  0.05490  0.78190  1.0000
  O   O9        1.0  0.23010  0.39160  0.26690  1.0000
  O   O10       1.0  0.76990  0.89160  0.23310  1.0000
  O   O11       1.0  0.76990  0.60840  0.73310  1.0000
  O   O12       1.0  0.23010  0.10840  0.76690  1.0000
  O   O13       1.0  0.37440  0.35710  0.20440  1.0000
  O   O14       1.0  0.62560  0.85710  0.29560  1.0000
  O   O15       1.0  0.62560  0.64290  0.79560  1.0000
  O   O16       1.0  0.37440  0.14290  0.70440  1.0000
  S   S5        1.0  0.79540  0.50300  0.40630  1.0000
  S   S6        1.0  0.20460  0.00300  0.09370  1.0000
  S   S7        1.0  0.20460  0.49700  0.59370  1.0000
  S   S8        1.0  0.79540  0.99700  0.90630  1.0000
  O   O17       1.0  0.66190  0.49750  0.37050  1.0000
  O   O18       1.0  0.33810  0.99750  0.12950  1.0000
  O   O19       1.0  0.33810  0.50250  0.62950  1.0000
  O   O20       1.0  0.66190  0.00250  0.87050  1.0000
  O   O21       1.0  0.83470  0.60510  0.41140  1.0000
  O   O22       1.0  0.16530  0.10510  0.08860  1.0000
  O   O23       1.0  0.16530  0.39490  0.58860  1.0000
  O   O24       1.0  0.83470  0.89490  0.91140  1.0000
  O   O25       1.0  0.77640  0.46500  0.45600  1.0000
  O   O26       1.0  0.22360  0.96500  0.04400  1.0000
  O   O27       1.0  0.22360  0.53500  0.54400  1.0000
  O   O28       1.0  0.77640  0.03500  0.95600  1.0000
  O   O29       1.0  0.89640  0.44860  0.38440  1.0000
  O   O30       1.0  0.10360  0.94860  0.11560  1.0000
  O   O31       1.0  0.10360  0.55140  0.61560  1.0000
  O   O32       1.0  0.89640  0.05140  0.88440  1.0000
  S   S9        1.0  0.29730  0.05190  0.41850  1.0000
  S   S10       1.0  0.70270  0.55190  0.08150  1.0000
  S   S11       1.0  0.70270  0.94810  0.58150  1.0000
  S   S12       1.0  0.29730  0.44810  0.91850  1.0000
  O   O33       1.0  0.15940  0.09570  0.41050  1.0000
  O   O34       1.0  0.84060  0.59570  0.08950  1.0000
  O   O35       1.0  0.84060  0.90430  0.58950  1.0000
  O   O36       1.0  0.15940  0.40430  0.91050  1.0000
  O   O37       1.0  0.30700  0.98910  0.46370  1.0000
  O   O38       1.0  0.69300  0.48910  0.03630  1.0000
  O   O39       1.0  0.69300  0.01090  0.53630  1.0000
  O   O40       1.0  0.30700  0.51090  0.96370  1.0000
  O   O41       1.0  0.31680  0.99710  0.37330  1.0000
  O   O42       1.0  0.68320  0.49710  0.12670  1.0000
  O   O43       1.0  0.68320  0.00290  0.62670  1.0000
  O   O44       1.0  0.31680  0.50290  0.87330  1.0000
  O   O45       1.0  0.39980  0.12760  0.42700  1.0000
  O   O46       1.0  0.60020  0.62760  0.07300  1.0000
  O   O47       1.0  0.60020  0.87240  0.57300  1.0000
  O   O48       1.0  0.39980  0.37240  0.92700  1.0000
  N   N1        1.0  0.69890  0.27630  0.38880  1.0000
  N   N2        1.0  0.30110  0.77630  0.11120  1.0000
  N   N3        1.0  0.30110  0.72370  0.61120  1.0000
  N   N4        1.0  0.69890  0.22370  0.88880  1.0000
  C   C1        1.0  0.69410  0.24920  0.43690  1.0000
  C   C2        1.0  0.30590  0.74920  0.06310  1.0000
  C   C3        1.0  0.30590  0.75080  0.56310  1.0000
  C   C4        1.0  0.69410  0.25080  0.93690  1.0000
  C   C5        1.0  0.79670  0.19590  0.46490  1.0000
  C   C6        1.0  0.20330  0.69590  0.03510  1.0000
  C   C7        1.0  0.20330  0.80410  0.53510  1.0000
  C   C8        1.0  0.79670  0.30410  0.96490  1.0000
  C   C9        1.0  0.90670  0.17130  0.44230  1.0000
  C   C10       1.0  0.09330  0.67130  0.05770  1.0000
  C   C11       1.0  0.09330  0.82870  0.55770  1.0000
  C   C12       1.0  0.90670  0.32870  0.94230  1.0000
  N   N5        1.0  0.91330  0.20020  0.39390  1.0000
  N   N6        1.0  0.08670  0.70020  0.10610  1.0000
  N   N7        1.0  0.08670  0.79980  0.60610  1.0000
  N   N8        1.0  0.91330  0.29980  0.89390  1.0000
  C   C13       1.0  0.80850  0.25050  0.36960  1.0000
  C   C14       1.0  0.19150  0.75050  0.13040  1.0000
  C   C15       1.0  0.19150  0.74950  0.63040  1.0000
  C   C16       1.0  0.80850  0.24950  0.86960  1.0000
  C   C17       1.0  0.81880  0.28370  0.31730  1.0000
  C   C18       1.0  0.18120  0.78370  0.18270  1.0000
  C   C19       1.0  0.18120  0.71630  0.68270  1.0000
  C   C20       1.0  0.81880  0.21630  0.81730  1.0000
  N   N9        1.0  0.71400  0.33520  0.29330  1.0000
  N   N10       1.0  0.28600  0.83520  0.20670  1.0000
  N   N11       1.0  0.28600  0.66480  0.70670  1.0000
  N   N12       1.0  0.71400  0.16480  0.79330  1.0000
  C   C21       1.0  0.72490  0.36850  0.24620  1.0000
  C   C22       1.0  0.27510  0.86850  0.25380  1.0000
  C   C23       1.0  0.27510  0.63150  0.75380  1.0000
  C   C24       1.0  0.72490  0.13150  0.74620  1.0000
  C   C25       1.0  0.83910  0.35060  0.22460  1.0000
  C   C26       1.0  0.16090  0.85060  0.27540  1.0000
  C   C27       1.0  0.16090  0.64940  0.77540  1.0000
  C   C28       1.0  0.83910  0.14940  0.72460  1.0000
  C   C29       1.0  0.94140  0.29490  0.25190  1.0000
  C   C30       1.0  0.05860  0.79490  0.24810  1.0000
  C   C31       1.0  0.05860  0.70510  0.74810  1.0000
  C   C32       1.0  0.94140  0.20510  0.75190  1.0000
  N   N13       1.0  0.93090  0.26090  0.29890  1.0000
  N   N14       1.0  0.06910  0.76090  0.20110  1.0000
  N   N15       1.0  0.06910  0.73910  0.70110  1.0000
  N   N16       1.0  0.93090  0.23910  0.79890  1.0000
  N   N17       1.0  0.21170  0.17560  0.31020  1.0000
  N   N18       1.0  0.78830  0.67560  0.18980  1.0000
  N   N19       1.0  0.78830  0.82440  0.68980  1.0000
  N   N20       1.0  0.21170  0.32440  0.81020  1.0000
  C   C33       1.0  0.21600  0.11580  0.27080  1.0000
  C   C34       1.0  0.78400  0.61580  0.22920  1.0000
  C   C35       1.0  0.78400  0.88420  0.72920  1.0000
  C   C36       1.0  0.21600  0.38420  0.77080  1.0000
  C   C37       1.0  0.32810  0.11210  0.24650  1.0000
  C   C38       1.0  0.67190  0.61210  0.25350  1.0000
  C   C39       1.0  0.67190  0.88790  0.75350  1.0000
  C   C40       1.0  0.32810  0.38790  0.74650  1.0000
  C   C41       1.0  0.43710  0.16930  0.26570  1.0000
  C   C42       1.0  0.56290  0.66930  0.23430  1.0000
  C   C43       1.0  0.56290  0.83070  0.73430  1.0000
  C   C44       1.0  0.43710  0.33070  0.76570  1.0000
  N   N21       1.0  0.43280  0.22950  0.30520  1.0000
  N   N22       1.0  0.56720  0.72950  0.19480  1.0000
  N   N23       1.0  0.56720  0.77050  0.69480  1.0000
  N   N24       1.0  0.43280  0.27050  0.80520  1.0000
  C   C45       1.0  0.31830  0.23160  0.32490  1.0000
  C   C46       1.0  0.68170  0.73160  0.17510  1.0000
  C   C47       1.0  0.68170  0.76840  0.67510  1.0000
  C   C48       1.0  0.31830  0.26840  0.82490  1.0000
  C   C49       1.0  0.31080  0.30310  0.36640  1.0000
  C   C50       1.0  0.68920  0.80310  0.13360  1.0000
  C   C51       1.0  0.68920  0.69690  0.63360  1.0000
  C   C52       1.0  0.31080  0.19690  0.86640  1.0000
  N   N25       1.0  0.41770  0.36120  0.38000  1.0000
  N   N26       1.0  0.58230  0.86120  0.12000  1.0000
  N   N27       1.0  0.58230  0.63880  0.62000  1.0000
  N   N28       1.0  0.41770  0.13880  0.88000  1.0000
  C   C53       1.0  0.41140  0.42260  0.41900  1.0000
  C   C54       1.0  0.58860  0.92260  0.08100  1.0000
  C   C55       1.0  0.58860  0.57740  0.58100  1.0000
  C   C56       1.0  0.41140  0.07740  0.91900  1.0000
  C   C57       1.0  0.29930  0.42600  0.44330  1.0000
  C   C58       1.0  0.70070  0.92600  0.05670  1.0000
  C   C59       1.0  0.70070  0.57400  0.55670  1.0000
  C   C60       1.0  0.29930  0.07400  0.94330  1.0000
  C   C61       1.0  0.19130  0.36690  0.42480  1.0000
  C   C62       1.0  0.80870  0.86690  0.07520  1.0000
  C   C63       1.0  0.80870  0.63310  0.57520  1.0000
  C   C64       1.0  0.19130  0.13310  0.92480  1.0000
  N   N29       1.0  0.19700  0.30420  0.38630  1.0000
  N   N30       1.0  0.80300  0.80420  0.11370  1.0000
  N   N31       1.0  0.80300  0.69580  0.61370  1.0000
  N   N32       1.0  0.19700  0.19580  0.88630  1.0000
  O   O49       1.0  0.97550  0.03840  0.32020  1.0000
  O   O50       1.0  0.02450  0.53840  0.17980  1.0000
  O   O51       1.0  0.02450  0.96160  0.67980  1.0000
  O   O52       1.0  0.97550  0.46160  0.82020  1.0000
  H   H1        1.0  0.61700  0.26700  0.45200  1.0000
  H   H2        1.0  0.38300  0.76700  0.04800  1.0000
  H   H3        1.0  0.38300  0.73300  0.54800  1.0000
  H   H4        1.0  0.61700  0.23300  0.95200  1.0000
  H   H5        1.0  0.79200  0.17600  0.50000  1.0000
  H   H6        1.0  0.20800  0.67600  0.00000  1.0000
  H   H7        1.0  0.20800  0.82400  0.50000  1.0000
  H   H8        1.0  0.79200  0.32400  0.00000  1.0000
  H   H9        1.0  0.97900  0.13300  0.46100  1.0000
  H   H10       1.0  0.02100  0.63300  0.03900  1.0000
  H   H11       1.0  0.02100  0.86700  0.53900  1.0000
  H   H12       1.0  0.97900  0.36700  0.96100  1.0000
  H   H13       1.0  0.65200  0.40500  0.22700  1.0000
  H   H14       1.0  0.34800  0.90500  0.27300  1.0000
  H   H15       1.0  0.34800  0.59500  0.77300  1.0000
  H   H16       1.0  0.65200  0.09500  0.72700  1.0000
  H   H17       1.0  0.84700  0.37600  0.19100  1.0000
  H   H18       1.0  0.15300  0.87600  0.30900  1.0000
  H   H19       1.0  0.15300  0.62400  0.80900  1.0000
  H   H20       1.0  0.84700  0.12400  0.69100  1.0000
  H   H21       1.0  0.02100  0.28000  0.23700  1.0000
  H   H22       1.0  0.97900  0.78000  0.26300  1.0000
  H   H23       1.0  0.97900  0.72000  0.76300  1.0000
  H   H24       1.0  0.02100  0.22000  0.73700  1.0000
  H   H25       1.0  0.14000  0.07500  0.25900  1.0000
  H   H26       1.0  0.86000  0.57500  0.24100  1.0000
  H   H27       1.0  0.86000  0.92500  0.74100  1.0000
  H   H28       1.0  0.14000  0.42500  0.75900  1.0000
  H   H29       1.0  0.33000  0.07100  0.21700  1.0000
  H   H30       1.0  0.67000  0.57100  0.28300  1.0000
  H   H31       1.0  0.67000  0.92900  0.78300  1.0000
  H   H32       1.0  0.33000  0.42900  0.71700  1.0000
  H   H33       1.0  0.51800  0.16600  0.25000  1.0000
  H   H34       1.0  0.48200  0.66600  0.25000  1.0000
  H   H35       1.0  0.48200  0.83400  0.75000  1.0000
  H   H36       1.0  0.51800  0.33400  0.75000  1.0000
  H   H37       1.0  0.48700  0.46500  0.43000  1.0000
  H   H38       1.0  0.51300  0.96500  0.07000  1.0000
  H   H39       1.0  0.51300  0.53500  0.57000  1.0000
  H   H40       1.0  0.48700  0.03500  0.93000  1.0000
  H   H41       1.0  0.29600  0.46800  0.47200  1.0000
  H   H42       1.0  0.70400  0.96800  0.02800  1.0000
  H   H43       1.0  0.70400  0.53200  0.52800  1.0000
  H   H44       1.0  0.29600  0.03200  0.97200  1.0000
  H   H45       1.0  0.11000  0.37100  0.44000  1.0000
  H   H46       1.0  0.89000  0.87100  0.06000  1.0000
  H   H47       1.0  0.89000  0.62900  0.56000  1.0000
  H   H48       1.0  0.11000  0.12900  0.94000  1.0000
  H   H49       1.0  0.99600  0.99100  0.34700  1.0000
  H   H50       1.0  0.00400  0.49100  0.15300  1.0000
  H   H51       1.0  0.00400  0.00900  0.65300  1.0000
  H   H52       1.0  0.99600  0.50900  0.84700  1.0000
  H   H53       1.0  0.87900  0.03200  0.31000  1.0000
  H   H54       1.0  0.12100  0.53200  0.19000  1.0000
  H   H55       1.0  0.12100  0.96800  0.69000  1.0000
  H   H56       1.0  0.87900  0.46800  0.81000  1.0000
