data_image0
_chemical_formula_structural       Eu8O72C32H16
_chemical_formula_sum              "Eu8 O72 C32 H16"
_cell_length_a       10.444
_cell_length_b       17.261
_cell_length_c       14.598
_cell_angle_alpha    90
_cell_angle_beta     98.461
_cell_angle_gamma    90

_space_group_name_H-M_alt    "P 1"
_space_group_IT_number       1

loop_
  _space_group_symop_operation_xyz
  'x, y, z'

loop_
  _atom_site_type_symbol
  _atom_site_label
  _atom_site_symmetry_multiplicity
  _atom_site_fract_x
  _atom_site_fract_y
  _atom_site_fract_z
  _atom_site_occupancy
  Eu  Eu1       1.0  0.49692  0.12735  0.15665  1.0000
  Eu  Eu2       1.0  0.00308  0.62735  0.34335  1.0000
  Eu  Eu3       1.0  0.50308  0.87265  0.84335  1.0000
  Eu  Eu4       1.0  0.99692  0.37265  0.65665  1.0000
  Eu  Eu5       1.0  0.98010  0.33497  0.09083  1.0000
  Eu  Eu6       1.0  0.51990  0.83497  0.40917  1.0000
  Eu  Eu7       1.0  0.01990  0.66503  0.90917  1.0000
  Eu  Eu8       1.0  0.48010  0.16503  0.59083  1.0000
  O   O1        1.0  0.61040  0.00221  0.20200  1.0000
  O   O2        1.0  0.88960  0.50221  0.29800  1.0000
  O   O3        1.0  0.38960  0.99779  0.79800  1.0000
  O   O4        1.0  0.11040  0.49779  0.70200  1.0000
  O   O5        1.0  0.59700  0.16820  0.31370  1.0000
  O   O6        1.0  0.90300  0.66820  0.18630  1.0000
  O   O7        1.0  0.40300  0.83180  0.68630  1.0000
  O   O8        1.0  0.09700  0.33180  0.81370  1.0000
  O   O9        1.0  0.39000  0.05118  0.26260  1.0000
  O   O10       1.0  0.11000  0.55118  0.23740  1.0000
  O   O11       1.0  0.61000  0.94882  0.73740  1.0000
  O   O12       1.0  0.89000  0.44882  0.76260  1.0000
  O   O13       1.0  0.87160  0.29760  0.93650  1.0000
  O   O14       1.0  0.62840  0.79760  0.56350  1.0000
  O   O15       1.0  0.12840  0.70240  0.06350  1.0000
  O   O16       1.0  0.37160  0.20240  0.43650  1.0000
  O   O17       1.0  0.61650  0.98815  0.92670  1.0000
  O   O18       1.0  0.88350  0.48815  0.57330  1.0000
  O   O19       1.0  0.38350  0.01185  0.07330  1.0000
  O   O20       1.0  0.11650  0.51185  0.42670  1.0000
  O   O21       1.0  0.56920  0.09254  0.00800  1.0000
  O   O22       1.0  0.93080  0.59254  0.49200  1.0000
  O   O23       1.0  0.43080  0.90746  0.99200  1.0000
  O   O24       1.0  0.06920  0.40746  0.50800  1.0000
  O   O25       1.0  0.73670  0.13643  0.16310  1.0000
  O   O26       1.0  0.76330  0.63643  0.33690  1.0000
  O   O27       1.0  0.26330  0.86357  0.83690  1.0000
  O   O28       1.0  0.23670  0.36357  0.66310  1.0000
  O   O29       1.0  0.31850  0.18244  0.04560  1.0000
  O   O30       1.0  0.18150  0.68244  0.45440  1.0000
  O   O31       1.0  0.68150  0.81756  0.95440  1.0000
  O   O32       1.0  0.81850  0.31756  0.54560  1.0000
  O   O33       1.0  0.33920  0.20760  0.22850  1.0000
  O   O34       1.0  0.16080  0.70760  0.27150  1.0000
  O   O35       1.0  0.66080  0.79240  0.77150  1.0000
  O   O36       1.0  0.83920  0.29240  0.72850  1.0000
  O   O37       1.0  0.14120  0.25845  0.02340  1.0000
  O   O38       1.0  0.35880  0.75845  0.47660  1.0000
  O   O39       1.0  0.85880  0.74155  0.97660  1.0000
  O   O40       1.0  0.64120  0.24155  0.52340  1.0000
  O   O41       1.0  0.15190  0.27467  0.20610  1.0000
  O   O42       1.0  0.34810  0.77467  0.29390  1.0000
  O   O43       1.0  0.84810  0.72533  0.79390  1.0000
  O   O44       1.0  0.65190  0.22533  0.70610  1.0000
  O   O45       1.0  0.90140  0.20919  0.12940  1.0000
  O   O46       1.0  0.59860  0.70919  0.37060  1.0000
  O   O47       1.0  0.09860  0.79081  0.87060  1.0000
  O   O48       1.0  0.40140  0.29081  0.62940  1.0000
  O   O49       1.0  0.74100  0.32879  0.09060  1.0000
  O   O50       1.0  0.75900  0.82879  0.40940  1.0000
  O   O51       1.0  0.25900  0.67121  0.90940  1.0000
  O   O52       1.0  0.24100  0.17121  0.59060  1.0000
  O   O53       1.0  0.87690  0.46346  0.05740  1.0000
  O   O54       1.0  0.62310  0.96346  0.44260  1.0000
  O   O55       1.0  0.12310  0.53654  0.94260  1.0000
  O   O56       1.0  0.37690  0.03654  0.55740  1.0000
  O   O57       1.0  0.92120  0.58638  0.02250  1.0000
  O   O58       1.0  0.57880  0.08638  0.47750  1.0000
  O   O59       1.0  0.07880  0.41362  0.97750  1.0000
  O   O60       1.0  0.42120  0.91362  0.52250  1.0000
  O   O61       1.0  0.37330  0.93565  0.33030  1.0000
  O   O62       1.0  0.12670  0.43565  0.16970  1.0000
  O   O63       1.0  0.62670  0.06435  0.66970  1.0000
  O   O64       1.0  0.87330  0.56435  0.83030  1.0000
  O   O65       1.0  0.57870  0.88296  0.25880  1.0000
  O   O66       1.0  0.92130  0.38296  0.24120  1.0000
  O   O67       1.0  0.42130  0.11704  0.74120  1.0000
  O   O68       1.0  0.07870  0.61704  0.75880  1.0000
  O   O69       1.0  0.57340  0.25670  0.12360  1.0000
  O   O70       1.0  0.92660  0.75670  0.37640  1.0000
  O   O71       1.0  0.42660  0.74330  0.87640  1.0000
  O   O72       1.0  0.07340  0.24330  0.62360  1.0000
  C   C1        1.0  0.42610  0.98320  0.28090  1.0000
  C   C2        1.0  0.07390  0.48320  0.21910  1.0000
  C   C3        1.0  0.57390  0.01680  0.71910  1.0000
  C   C4        1.0  0.92610  0.51680  0.78090  1.0000
  C   C5        1.0  0.55390  0.02310  0.98100  1.0000
  C   C6        1.0  0.94610  0.52310  0.51900  1.0000
  C   C7        1.0  0.44610  0.97690  0.01900  1.0000
  C   C8        1.0  0.05390  0.47690  0.48100  1.0000
  C   C9        1.0  0.23300  0.22490  0.07340  1.0000
  C   C10       1.0  0.26700  0.72490  0.42660  1.0000
  C   C11       1.0  0.76700  0.77510  0.92660  1.0000
  C   C12       1.0  0.73300  0.27510  0.57340  1.0000
  C   C13       1.0  0.24290  0.23670  0.17920  1.0000
  C   C14       1.0  0.25710  0.73670  0.32080  1.0000
  C   C15       1.0  0.75710  0.76330  0.82080  1.0000
  C   C16       1.0  0.74290  0.26330  0.67920  1.0000
  C   C17       1.0  0.78490  0.19850  0.13780  1.0000
  C   C18       1.0  0.71510  0.69850  0.36220  1.0000
  C   C19       1.0  0.21510  0.80150  0.86220  1.0000
  C   C20       1.0  0.28490  0.30150  0.63780  1.0000
  C   C21       1.0  0.69070  0.26780  0.11510  1.0000
  C   C22       1.0  0.80930  0.76780  0.38490  1.0000
  C   C23       1.0  0.30930  0.73220  0.88490  1.0000
  C   C24       1.0  0.19070  0.23220  0.61510  1.0000
  C   C25       1.0  0.54970  0.95350  0.24300  1.0000
  C   C26       1.0  0.95030  0.45350  0.25700  1.0000
  C   C27       1.0  0.45030  0.04650  0.75700  1.0000
  C   C28       1.0  0.04970  0.54650  0.74300  1.0000
  C   C29       1.0  0.94140  0.51430  0.02300  1.0000
  C   C30       1.0  0.55860  0.01430  0.47700  1.0000
  C   C31       1.0  0.05860  0.48570  0.97700  1.0000
  C   C32       1.0  0.44140  0.98570  0.52300  1.0000
  H   H1        1.0  0.80500  0.27200  0.93100  1.0000
  H   H2        1.0  0.69500  0.77200  0.56900  1.0000
  H   H3        1.0  0.19500  0.72800  0.06900  1.0000
  H   H4        1.0  0.30500  0.22800  0.43100  1.0000
  H   H5        1.0  0.65800  0.19900  0.32700  1.0000
  H   H6        1.0  0.84200  0.69900  0.17300  1.0000
  H   H7        1.0  0.34200  0.80100  0.67300  1.0000
  H   H8        1.0  0.15800  0.30100  0.82700  1.0000
  H   H9        1.0  0.59500  0.14800  0.35900  1.0000
  H   H10       1.0  0.90500  0.64800  0.14100  1.0000
  H   H11       1.0  0.40500  0.85200  0.64100  1.0000
  H   H12       1.0  0.09500  0.35200  0.85900  1.0000
  H   H13       1.0  0.88800  0.29900  0.89400  1.0000
  H   H14       1.0  0.61200  0.79900  0.60600  1.0000
  H   H15       1.0  0.11200  0.70100  0.10600  1.0000
  H   H16       1.0  0.38800  0.20100  0.39400  1.0000
