data_image0
_chemical_formula_structural       Tb4Cl16N8C16H8C8H8C8H8C8H8
_chemical_formula_sum              "Tb4 Cl16 N8 C40 H32"
_cell_length_a       14.5387
_cell_length_b       12.2326
_cell_length_c       13.1136
_cell_angle_alpha    90
_cell_angle_beta     107.701
_cell_angle_gamma    90

_space_group_name_H-M_alt    "P 1"
_space_group_IT_number       1

loop_
  _space_group_symop_operation_xyz
  'x, y, z'

loop_
  _atom_site_type_symbol
  _atom_site_label
  _atom_site_symmetry_multiplicity
  _atom_site_fract_x
  _atom_site_fract_y
  _atom_site_fract_z
  _atom_site_occupancy
  Tb  Tb1       1.0  0.50000  0.76661  0.25000  1.0000
  Tb  Tb2       1.0  0.00000  0.26661  0.25000  1.0000
  Tb  Tb3       1.0  0.50000  0.23339  0.75000  1.0000
  Tb  Tb4       1.0  0.00000  0.73339  0.75000  1.0000
  Cl  Cl1       1.0  0.68538  0.76649  0.27022  1.0000
  Cl  Cl2       1.0  0.31462  0.76649  0.22978  1.0000
  Cl  Cl3       1.0  0.18538  0.26649  0.27022  1.0000
  Cl  Cl4       1.0  0.81462  0.26649  0.22978  1.0000
  Cl  Cl5       1.0  0.31462  0.23351  0.72978  1.0000
  Cl  Cl6       1.0  0.68538  0.23351  0.77022  1.0000
  Cl  Cl7       1.0  0.81462  0.73351  0.72978  1.0000
  Cl  Cl8       1.0  0.18538  0.73351  0.77022  1.0000
  Cl  Cl9       1.0  0.52951  0.76173  0.45743  1.0000
  Cl  Cl10      1.0  0.47049  0.76173  0.04257  1.0000
  Cl  Cl11      1.0  0.02951  0.26173  0.45743  1.0000
  Cl  Cl12      1.0  0.97049  0.26173  0.04257  1.0000
  Cl  Cl13      1.0  0.47049  0.23827  0.54257  1.0000
  Cl  Cl14      1.0  0.52951  0.23827  0.95743  1.0000
  Cl  Cl15      1.0  0.97049  0.73827  0.54257  1.0000
  Cl  Cl16      1.0  0.02951  0.73827  0.95743  1.0000
  N   N1        1.0  0.50000  0.55921  0.25000  1.0000
  N   N2        1.0  0.00000  0.05921  0.25000  1.0000
  N   N3        1.0  0.50000  0.44079  0.75000  1.0000
  N   N4        1.0  0.00000  0.94079  0.75000  1.0000
  N   N5        1.0  0.50000  0.97444  0.25000  1.0000
  N   N6        1.0  0.00000  0.47444  0.25000  1.0000
  N   N7        1.0  0.50000  0.02556  0.75000  1.0000
  N   N8        1.0  0.00000  0.52556  0.75000  1.0000
  C   C1        1.0  0.50000  0.20605  0.25000  1.0000
  C   C2        1.0  0.00000  0.70605  0.25000  1.0000
  C   C3        1.0  0.50000  0.79395  0.75000  1.0000
  C   C4        1.0  0.00000  0.29395  0.75000  1.0000
  C   C5        1.0  0.50000  0.32788  0.25000  1.0000
  C   C6        1.0  0.00000  0.82788  0.25000  1.0000
  C   C7        1.0  0.50000  0.67212  0.75000  1.0000
  C   C8        1.0  0.00000  0.17212  0.75000  1.0000
  C   C9        1.0  0.42609  0.38754  0.27139  1.0000
  C   C10       1.0  0.57391  0.38754  0.22861  1.0000
  C   C11       1.0  0.92609  0.88754  0.27139  1.0000
  C   C12       1.0  0.07391  0.88754  0.22861  1.0000
  C   C13       1.0  0.57391  0.61246  0.72861  1.0000
  C   C14       1.0  0.42609  0.61246  0.77139  1.0000
  C   C15       1.0  0.07391  0.11246  0.72861  1.0000
  C   C16       1.0  0.92609  0.11246  0.77139  1.0000
  H   H1        1.0  0.37450  0.35070  0.28710  1.0000
  H   H2        1.0  0.62550  0.35070  0.21290  1.0000
  H   H3        1.0  0.87450  0.85070  0.28710  1.0000
  H   H4        1.0  0.12550  0.85070  0.21290  1.0000
  H   H5        1.0  0.62550  0.64930  0.71290  1.0000
  H   H6        1.0  0.37450  0.64930  0.78710  1.0000
  H   H7        1.0  0.12550  0.14930  0.71290  1.0000
  H   H8        1.0  0.87450  0.14930  0.78710  1.0000
  C   C17       1.0  0.41711  0.14599  0.24573  1.0000
  C   C18       1.0  0.58289  0.14599  0.25427  1.0000
  C   C19       1.0  0.91711  0.64599  0.24573  1.0000
  C   C20       1.0  0.08289  0.64599  0.25427  1.0000
  C   C21       1.0  0.58289  0.85401  0.75427  1.0000
  C   C22       1.0  0.41711  0.85401  0.74573  1.0000
  C   C23       1.0  0.08289  0.35401  0.75427  1.0000
  C   C24       1.0  0.91711  0.35401  0.74573  1.0000
  H   H9        1.0  0.35890  0.18270  0.24330  1.0000
  H   H10       1.0  0.64110  0.18270  0.25670  1.0000
  H   H11       1.0  0.85890  0.68270  0.24330  1.0000
  H   H12       1.0  0.14110  0.68270  0.25670  1.0000
  H   H13       1.0  0.64110  0.81730  0.75670  1.0000
  H   H14       1.0  0.35890  0.81730  0.74330  1.0000
  H   H15       1.0  0.14110  0.31730  0.75670  1.0000
  H   H16       1.0  0.85890  0.31730  0.74330  1.0000
  C   C25       1.0  0.42832  0.50109  0.26952  1.0000
  C   C26       1.0  0.57168  0.50109  0.23048  1.0000
  C   C27       1.0  0.92832  0.00109  0.26952  1.0000
  C   C28       1.0  0.07168  0.00109  0.23048  1.0000
  C   C29       1.0  0.57168  0.49891  0.73048  1.0000
  C   C30       1.0  0.42832  0.49891  0.76952  1.0000
  C   C31       1.0  0.07168  0.99891  0.73048  1.0000
  C   C32       1.0  0.92832  0.99891  0.76952  1.0000
  H   H17       1.0  0.37650  0.53990  0.28270  1.0000
  H   H18       1.0  0.62350  0.53990  0.21730  1.0000
  H   H19       1.0  0.87650  0.03990  0.28270  1.0000
  H   H20       1.0  0.12350  0.03990  0.21730  1.0000
  H   H21       1.0  0.62350  0.46010  0.71730  1.0000
  H   H22       1.0  0.37650  0.46010  0.78270  1.0000
  H   H23       1.0  0.12350  0.96010  0.71730  1.0000
  H   H24       1.0  0.87650  0.96010  0.78270  1.0000
  C   C33       1.0  0.42006  0.03267  0.24506  1.0000
  C   C34       1.0  0.57994  0.03267  0.25494  1.0000
  C   C35       1.0  0.92006  0.53267  0.24506  1.0000
  C   C36       1.0  0.07994  0.53267  0.25494  1.0000
  C   C37       1.0  0.57994  0.96733  0.75494  1.0000
  C   C38       1.0  0.42006  0.96733  0.74506  1.0000
  C   C39       1.0  0.07994  0.46733  0.75494  1.0000
  C   C40       1.0  0.92006  0.46733  0.74506  1.0000
  H   H25       1.0  0.36240  0.99390  0.24090  1.0000
  H   H26       1.0  0.63760  0.99390  0.25910  1.0000
  H   H27       1.0  0.86240  0.49390  0.24090  1.0000
  H   H28       1.0  0.13760  0.49390  0.25910  1.0000
  H   H29       1.0  0.63760  0.00610  0.75910  1.0000
  H   H30       1.0  0.36240  0.00610  0.74090  1.0000
  H   H31       1.0  0.13760  0.50610  0.75910  1.0000
  H   H32       1.0  0.86240  0.50610  0.74090  1.0000
