data_image0
_chemical_formula_structural       Mo8C2H2C2N2H2N4H4N2O26Ag2
_chemical_formula_sum              "Mo8 C4 H8 N8 O26 Ag2"
_cell_length_a       8.2465
_cell_length_b       10.8172
_cell_length_c       10.9336
_cell_angle_alpha    71.101
_cell_angle_beta     82.03
_cell_angle_gamma    87.775

_space_group_name_H-M_alt    "P 1"
_space_group_IT_number       1

loop_
  _space_group_symop_operation_xyz
  'x, y, z'

loop_
  _atom_site_type_symbol
  _atom_site_label
  _atom_site_symmetry_multiplicity
  _atom_site_fract_x
  _atom_site_fract_y
  _atom_site_fract_z
  _atom_site_occupancy
  Mo  Mo1       1.0  0.06106  0.34397  0.52829  1.0000
  Mo  Mo2       1.0  0.93894  0.65603  0.47171  1.0000
  Mo  Mo3       1.0  0.26444  0.55918  0.24593  1.0000
  Mo  Mo4       1.0  0.73556  0.44082  0.75407  1.0000
  Mo  Mo5       1.0  0.46253  0.34271  0.51069  1.0000
  Mo  Mo6       1.0  0.53747  0.65729  0.48931  1.0000
  Mo  Mo7       1.0  0.33804  0.42244  0.76527  1.0000
  Mo  Mo8       1.0  0.66196  0.57756  0.23473  1.0000
  C   C1        1.0  0.02330  0.72410  0.92100  1.0000
  C   C2        1.0  0.97670  0.27590  0.07900  1.0000
  H   H1        1.0  0.96590  0.64710  0.96760  1.0000
  H   H2        1.0  0.03410  0.35290  0.03240  1.0000
  C   C3        1.0  0.18230  0.86650  0.77170  1.0000
  C   C4        1.0  0.81770  0.13350  0.22830  1.0000
  N   N1        1.0  0.11710  0.74510  0.80510  1.0000
  N   N2        1.0  0.88290  0.25490  0.19490  1.0000
  H   H3        1.0  0.13260  0.69180  0.76080  1.0000
  H   H4        1.0  0.86740  0.30820  0.23920  1.0000
  N   N3        1.0  0.13010  0.91890  0.86280  1.0000
  N   N4        1.0  0.86990  0.08110  0.13720  1.0000
  N   N5        1.0  0.27500  0.92500  0.65690  1.0000
  N   N6        1.0  0.72500  0.07500  0.34310  1.0000
  H   H5        1.0  0.30600  0.00490  0.63740  1.0000
  H   H6        1.0  0.69400  0.99510  0.36260  1.0000
  H   H7        1.0  0.30320  0.88240  0.60320  1.0000
  H   H8        1.0  0.69680  0.11760  0.39680  1.0000
  N   N7        1.0  0.02420  0.82550  0.95880  1.0000
  N   N8        1.0  0.97580  0.17450  0.04120  1.0000
  O   O1        1.0  0.06230  0.19700  0.64970  1.0000
  O   O2        1.0  0.93770  0.80300  0.35030  1.0000
  O   O3        1.0  0.26110  0.72230  0.16640  1.0000
  O   O4        1.0  0.73890  0.27770  0.83360  1.0000
  O   O5        1.0  0.95420  0.30590  0.42310  1.0000
  O   O6        1.0  0.04580  0.69410  0.57690  1.0000
  O   O7        1.0  0.16020  0.48920  0.16230  1.0000
  O   O8        1.0  0.83980  0.51080  0.83770  1.0000
  O   O9        1.0  0.34800  0.25970  0.85530  1.0000
  O   O10       1.0  0.65200  0.74030  0.14470  1.0000
  O   O11       1.0  0.25900  0.40370  0.61460  1.0000
  O   O12       1.0  0.74100  0.59630  0.38540  1.0000
  O   O13       1.0  0.27590  0.35180  0.40940  1.0000
  O   O14       1.0  0.72410  0.64820  0.59060  1.0000
  O   O15       1.0  0.90910  0.44500  0.60470  1.0000
  O   O16       1.0  0.09090  0.55500  0.39530  1.0000
  O   O17       1.0  0.47760  0.51520  0.17680  1.0000
  O   O18       1.0  0.52240  0.48480  0.82320  1.0000
  O   O19       1.0  0.17520  0.48160  0.84110  1.0000
  O   O20       1.0  0.82480  0.51840  0.15890  1.0000
  O   O21       1.0  0.61690  0.36290  0.37800  1.0000
  O   O22       1.0  0.38310  0.63710  0.62200  1.0000
  O   O23       1.0  0.46270  0.17950  0.59260  1.0000
  O   O24       1.0  0.53730  0.82050  0.40740  1.0000
  O   O25       1.0  0.43940  0.57690  0.38610  1.0000
  O   O26       1.0  0.56060  0.42310  0.61390  1.0000
  Ag  Ag1       1.0  0.12352  0.11116  0.88766  1.0000
  Ag  Ag2       1.0  0.87648  0.88884  0.11234  1.0000
