data_image0
_chemical_formula_structural       C8H8C8H8C16H8C8H8C8H8C8H8C16H8C8H8C8H8C8H8C16H8C8H8C8H8C8H8C16H8C8H8Cu24I12N32O8S24W8
_chemical_formula_sum              "C160 H128 Cu24 I12 N32 O8 S24 W8"
_cell_length_a       17.927
_cell_length_b       24.839
_cell_length_c       16.881
_cell_angle_alpha    90
_cell_angle_beta     103.615
_cell_angle_gamma    90

_space_group_name_H-M_alt    "P 1"
_space_group_IT_number       1

loop_
  _space_group_symop_operation_xyz
  'x, y, z'

loop_
  _atom_site_type_symbol
  _atom_site_label
  _atom_site_symmetry_multiplicity
  _atom_site_fract_x
  _atom_site_fract_y
  _atom_site_fract_z
  _atom_site_occupancy
  C   C1        1.0  0.04970  0.76600  0.35620  1.0000
  C   C2        1.0  0.54970  0.26600  0.35620  1.0000
  C   C3        1.0  0.95030  0.76600  0.14380  1.0000
  C   C4        1.0  0.45030  0.26600  0.14380  1.0000
  C   C5        1.0  0.95030  0.23400  0.64380  1.0000
  C   C6        1.0  0.45030  0.73400  0.64380  1.0000
  C   C7        1.0  0.04970  0.23400  0.85620  1.0000
  C   C8        1.0  0.54970  0.73400  0.85620  1.0000
  H   H1        1.0  0.02210  0.79260  0.32310  1.0000
  H   H2        1.0  0.52210  0.29260  0.32310  1.0000
  H   H3        1.0  0.97790  0.79260  0.17690  1.0000
  H   H4        1.0  0.47790  0.29260  0.17690  1.0000
  H   H5        1.0  0.97790  0.20740  0.67690  1.0000
  H   H6        1.0  0.47790  0.70740  0.67690  1.0000
  H   H7        1.0  0.02210  0.20740  0.82310  1.0000
  H   H8        1.0  0.52210  0.70740  0.82310  1.0000
  C   C9        1.0  0.12260  0.76230  0.36020  1.0000
  C   C10       1.0  0.62260  0.26230  0.36020  1.0000
  C   C11       1.0  0.87740  0.76230  0.13980  1.0000
  C   C12       1.0  0.37740  0.26230  0.13980  1.0000
  C   C13       1.0  0.87740  0.23770  0.63980  1.0000
  C   C14       1.0  0.37740  0.73770  0.63980  1.0000
  C   C15       1.0  0.12260  0.23770  0.86020  1.0000
  C   C16       1.0  0.62260  0.73770  0.86020  1.0000
  H   H9        1.0  0.14670  0.78860  0.33600  1.0000
  H   H10       1.0  0.64670  0.28860  0.33600  1.0000
  H   H11       1.0  0.85330  0.78860  0.16400  1.0000
  H   H12       1.0  0.35330  0.28860  0.16400  1.0000
  H   H13       1.0  0.85330  0.21140  0.66400  1.0000
  H   H14       1.0  0.35330  0.71140  0.66400  1.0000
  H   H15       1.0  0.14670  0.21140  0.83600  1.0000
  H   H16       1.0  0.64670  0.71140  0.83600  1.0000
  C   C17       1.0  0.16510  0.71930  0.40020  1.0000
  C   C18       1.0  0.66510  0.21930  0.40020  1.0000
  C   C19       1.0  0.83490  0.71930  0.09980  1.0000
  C   C20       1.0  0.33490  0.21930  0.09980  1.0000
  C   C21       1.0  0.83490  0.28070  0.59980  1.0000
  C   C22       1.0  0.33490  0.78070  0.59980  1.0000
  C   C23       1.0  0.16510  0.28070  0.90020  1.0000
  C   C24       1.0  0.66510  0.78070  0.90020  1.0000
  C   C25       1.0  0.12460  0.68740  0.44160  1.0000
  C   C26       1.0  0.62460  0.18740  0.44160  1.0000
  C   C27       1.0  0.87540  0.68740  0.05840  1.0000
  C   C28       1.0  0.37540  0.18740  0.05840  1.0000
  C   C29       1.0  0.87540  0.31260  0.55840  1.0000
  C   C30       1.0  0.37540  0.81260  0.55840  1.0000
  C   C31       1.0  0.12460  0.31260  0.94160  1.0000
  C   C32       1.0  0.62460  0.81260  0.94160  1.0000
  H   H17       1.0  0.14900  0.66110  0.47760  1.0000
  H   H18       1.0  0.64900  0.16110  0.47760  1.0000
  H   H19       1.0  0.85100  0.66110  0.02240  1.0000
  H   H20       1.0  0.35100  0.16110  0.02240  1.0000
  H   H21       1.0  0.85100  0.33890  0.52240  1.0000
  H   H22       1.0  0.35100  0.83890  0.52240  1.0000
  H   H23       1.0  0.14900  0.33890  0.97760  1.0000
  H   H24       1.0  0.64900  0.83890  0.97760  1.0000
  C   C33       1.0  0.04750  0.69540  0.42860  1.0000
  C   C34       1.0  0.54750  0.19540  0.42860  1.0000
  C   C35       1.0  0.95250  0.69540  0.07140  1.0000
  C   C36       1.0  0.45250  0.19540  0.07140  1.0000
  C   C37       1.0  0.95250  0.30460  0.57140  1.0000
  C   C38       1.0  0.45250  0.80460  0.57140  1.0000
  C   C39       1.0  0.04750  0.30460  0.92860  1.0000
  C   C40       1.0  0.54750  0.80460  0.92860  1.0000
  H   H25       1.0  0.01880  0.66880  0.44630  1.0000
  H   H26       1.0  0.51880  0.16880  0.44630  1.0000
  H   H27       1.0  0.98120  0.66880  0.05370  1.0000
  H   H28       1.0  0.48120  0.16880  0.05370  1.0000
  H   H29       1.0  0.98120  0.33120  0.55370  1.0000
  H   H30       1.0  0.48120  0.83120  0.55370  1.0000
  H   H31       1.0  0.01880  0.33120  0.94630  1.0000
  H   H32       1.0  0.51880  0.83120  0.94630  1.0000
  C   C41       1.0  0.86430  0.65770  0.29550  1.0000
  C   C42       1.0  0.36430  0.15770  0.29550  1.0000
  C   C43       1.0  0.13570  0.65770  0.20450  1.0000
  C   C44       1.0  0.63570  0.15770  0.20450  1.0000
  C   C45       1.0  0.13570  0.34230  0.70450  1.0000
  C   C46       1.0  0.63570  0.84230  0.70450  1.0000
  C   C47       1.0  0.86430  0.34230  0.79550  1.0000
  C   C48       1.0  0.36430  0.84230  0.79550  1.0000
  H   H33       1.0  0.91420  0.66170  0.28950  1.0000
  H   H34       1.0  0.41420  0.16170  0.28950  1.0000
  H   H35       1.0  0.08580  0.66170  0.21050  1.0000
  H   H36       1.0  0.58580  0.16170  0.21050  1.0000
  H   H37       1.0  0.08580  0.33830  0.71050  1.0000
  H   H38       1.0  0.58580  0.83830  0.71050  1.0000
  H   H39       1.0  0.91420  0.33830  0.78950  1.0000
  H   H40       1.0  0.41420  0.83830  0.78950  1.0000
  C   C49       1.0  0.82000  0.61630  0.25330  1.0000
  C   C50       1.0  0.32000  0.11630  0.25330  1.0000
  C   C51       1.0  0.18000  0.61630  0.24670  1.0000
  C   C52       1.0  0.68000  0.11630  0.24670  1.0000
  C   C53       1.0  0.18000  0.38370  0.74670  1.0000
  C   C54       1.0  0.68000  0.88370  0.74670  1.0000
  C   C55       1.0  0.82000  0.38370  0.75330  1.0000
  C   C56       1.0  0.32000  0.88370  0.75330  1.0000
  H   H41       1.0  0.83980  0.59440  0.21850  1.0000
  H   H42       1.0  0.33980  0.09440  0.21850  1.0000
  H   H43       1.0  0.16020  0.59440  0.28150  1.0000
  H   H44       1.0  0.66020  0.09440  0.28150  1.0000
  H   H45       1.0  0.16020  0.40560  0.78150  1.0000
  H   H46       1.0  0.66020  0.90560  0.78150  1.0000
  H   H47       1.0  0.83980  0.40560  0.71850  1.0000
  H   H48       1.0  0.33980  0.90560  0.71850  1.0000
  C   C57       1.0  0.74850  0.60790  0.26260  1.0000
  C   C58       1.0  0.24850  0.10790  0.26260  1.0000
  C   C59       1.0  0.25150  0.60790  0.23740  1.0000
  C   C60       1.0  0.75150  0.10790  0.23740  1.0000
  C   C61       1.0  0.25150  0.39210  0.73740  1.0000
  C   C62       1.0  0.75150  0.89210  0.73740  1.0000
  C   C63       1.0  0.74850  0.39210  0.76260  1.0000
  C   C64       1.0  0.24850  0.89210  0.76260  1.0000
  C   C65       1.0  0.72390  0.64390  0.31170  1.0000
  C   C66       1.0  0.22390  0.14390  0.31170  1.0000
  C   C67       1.0  0.27610  0.64390  0.18830  1.0000
  C   C68       1.0  0.77610  0.14390  0.18830  1.0000
  C   C69       1.0  0.27610  0.35610  0.68830  1.0000
  C   C70       1.0  0.77610  0.85610  0.68830  1.0000
  C   C71       1.0  0.72390  0.35610  0.81170  1.0000
  C   C72       1.0  0.22390  0.85610  0.81170  1.0000
  H   H49       1.0  0.67400  0.64090  0.31840  1.0000
  H   H50       1.0  0.17400  0.14090  0.31840  1.0000
  H   H51       1.0  0.32600  0.64090  0.18160  1.0000
  H   H52       1.0  0.82600  0.14090  0.18160  1.0000
  H   H53       1.0  0.32600  0.35910  0.68160  1.0000
  H   H54       1.0  0.82600  0.85910  0.68160  1.0000
  H   H55       1.0  0.67400  0.35910  0.81840  1.0000
  H   H56       1.0  0.17400  0.85910  0.81840  1.0000
  C   C73       1.0  0.76680  0.68220  0.34940  1.0000
  C   C74       1.0  0.26680  0.18220  0.34940  1.0000
  C   C75       1.0  0.23320  0.68220  0.15060  1.0000
  C   C76       1.0  0.73320  0.18220  0.15060  1.0000
  C   C77       1.0  0.23320  0.31780  0.65060  1.0000
  C   C78       1.0  0.73320  0.81780  0.65060  1.0000
  C   C79       1.0  0.76680  0.31780  0.84940  1.0000
  C   C80       1.0  0.26680  0.81780  0.84940  1.0000
  H   H57       1.0  0.74630  0.70480  0.38270  1.0000
  H   H58       1.0  0.24630  0.20480  0.38270  1.0000
  H   H59       1.0  0.25370  0.70480  0.11730  1.0000
  H   H60       1.0  0.75370  0.20480  0.11730  1.0000
  H   H61       1.0  0.25370  0.29520  0.61730  1.0000
  H   H62       1.0  0.75370  0.79520  0.61730  1.0000
  H   H63       1.0  0.74630  0.29520  0.88270  1.0000
  H   H64       1.0  0.24630  0.79520  0.88270  1.0000
  C   C81       1.0  0.36900  0.66580  0.44870  1.0000
  C   C82       1.0  0.86900  0.16580  0.44870  1.0000
  C   C83       1.0  0.63100  0.66580  0.05130  1.0000
  C   C84       1.0  0.13100  0.16580  0.05130  1.0000
  C   C85       1.0  0.63100  0.33420  0.55130  1.0000
  C   C86       1.0  0.13100  0.83420  0.55130  1.0000
  C   C87       1.0  0.36900  0.33420  0.94870  1.0000
  C   C88       1.0  0.86900  0.83420  0.94870  1.0000
  H   H65       1.0  0.39470  0.63650  0.47660  1.0000
  H   H66       1.0  0.89470  0.13650  0.47660  1.0000
  H   H67       1.0  0.60530  0.63650  0.02340  1.0000
  H   H68       1.0  0.10530  0.13650  0.02340  1.0000
  H   H69       1.0  0.60530  0.36350  0.52340  1.0000
  H   H70       1.0  0.10530  0.86350  0.52340  1.0000
  H   H71       1.0  0.39470  0.36350  0.97660  1.0000
  H   H72       1.0  0.89470  0.86350  0.97660  1.0000
  C   C89       1.0  0.29300  0.67470  0.44970  1.0000
  C   C90       1.0  0.79300  0.17470  0.44970  1.0000
  C   C91       1.0  0.70700  0.67470  0.05030  1.0000
  C   C92       1.0  0.20700  0.17470  0.05030  1.0000
  C   C93       1.0  0.70700  0.32530  0.55030  1.0000
  C   C94       1.0  0.20700  0.82530  0.55030  1.0000
  C   C95       1.0  0.29300  0.32530  0.94970  1.0000
  C   C96       1.0  0.79300  0.82530  0.94970  1.0000
  H   H73       1.0  0.27130  0.65360  0.48400  1.0000
  H   H74       1.0  0.77130  0.15360  0.48400  1.0000
  H   H75       1.0  0.72870  0.65360  0.01600  1.0000
  H   H76       1.0  0.22870  0.15360  0.01600  1.0000
  H   H77       1.0  0.72870  0.34640  0.51600  1.0000
  H   H78       1.0  0.22870  0.84640  0.51600  1.0000
  H   H79       1.0  0.27130  0.34640  0.98400  1.0000
  H   H80       1.0  0.77130  0.84640  0.98400  1.0000
  C   C97       1.0  0.24950  0.71160  0.40430  1.0000
  C   C98       1.0  0.74950  0.21160  0.40430  1.0000
  C   C99       1.0  0.75050  0.71160  0.09570  1.0000
  C   C100      1.0  0.25050  0.21160  0.09570  1.0000
  C   C101      1.0  0.75050  0.28840  0.59570  1.0000
  C   C102      1.0  0.25050  0.78840  0.59570  1.0000
  C   C103      1.0  0.24950  0.28840  0.90430  1.0000
  C   C104      1.0  0.74950  0.78840  0.90430  1.0000
  C   C105      1.0  0.28800  0.74970  0.36900  1.0000
  C   C106      1.0  0.78800  0.24970  0.36900  1.0000
  C   C107      1.0  0.71200  0.74970  0.13100  1.0000
  C   C108      1.0  0.21200  0.24970  0.13100  1.0000
  C   C109      1.0  0.71200  0.25030  0.63100  1.0000
  C   C110      1.0  0.21200  0.75030  0.63100  1.0000
  C   C111      1.0  0.28800  0.25030  0.86900  1.0000
  C   C112      1.0  0.78800  0.75030  0.86900  1.0000
  H   H81       1.0  0.26290  0.78050  0.34480  1.0000
  H   H82       1.0  0.76290  0.28050  0.34480  1.0000
  H   H83       1.0  0.73710  0.78050  0.15520  1.0000
  H   H84       1.0  0.23710  0.28050  0.15520  1.0000
  H   H85       1.0  0.73710  0.21950  0.65520  1.0000
  H   H86       1.0  0.23710  0.71950  0.65520  1.0000
  H   H87       1.0  0.26290  0.21950  0.84480  1.0000
  H   H88       1.0  0.76290  0.71950  0.84480  1.0000
  C   C113      1.0  0.36290  0.74130  0.37040  1.0000
  C   C114      1.0  0.86290  0.24130  0.37040  1.0000
  C   C115      1.0  0.63710  0.74130  0.12960  1.0000
  C   C116      1.0  0.13710  0.24130  0.12960  1.0000
  C   C117      1.0  0.63710  0.25870  0.62960  1.0000
  C   C118      1.0  0.13710  0.75870  0.62960  1.0000
  C   C119      1.0  0.36290  0.25870  0.87040  1.0000
  C   C120      1.0  0.86290  0.75870  0.87040  1.0000
  H   H89       1.0  0.38800  0.76570  0.34390  1.0000
  H   H90       1.0  0.88800  0.26570  0.34390  1.0000
  H   H91       1.0  0.61200  0.76570  0.15610  1.0000
  H   H92       1.0  0.11200  0.26570  0.15610  1.0000
  H   H93       1.0  0.61200  0.23430  0.65610  1.0000
  H   H94       1.0  0.11200  0.73430  0.65610  1.0000
  H   H95       1.0  0.38800  0.23430  0.84390  1.0000
  H   H96       1.0  0.88800  0.73430  0.84390  1.0000
  C   C121      1.0  0.58610  0.51490  0.17860  1.0000
  C   C122      1.0  0.08610  0.01490  0.17860  1.0000
  C   C123      1.0  0.41390  0.51490  0.32140  1.0000
  C   C124      1.0  0.91390  0.01490  0.32140  1.0000
  C   C125      1.0  0.41390  0.48510  0.82140  1.0000
  C   C126      1.0  0.91390  0.98510  0.82140  1.0000
  C   C127      1.0  0.58610  0.48510  0.67860  1.0000
  C   C128      1.0  0.08610  0.98510  0.67860  1.0000
  H   H97       1.0  0.53400  0.51420  0.17740  1.0000
  H   H98       1.0  0.03400  0.01420  0.17740  1.0000
  H   H99       1.0  0.46600  0.51420  0.32260  1.0000
  H   H100      1.0  0.96600  0.01420  0.32260  1.0000
  H   H101      1.0  0.46600  0.48580  0.82260  1.0000
  H   H102      1.0  0.96600  0.98580  0.82260  1.0000
  H   H103      1.0  0.53400  0.48580  0.67740  1.0000
  H   H104      1.0  0.03400  0.98580  0.67740  1.0000
  C   C129      1.0  0.62620  0.55800  0.21640  1.0000
  C   C130      1.0  0.12620  0.05800  0.21640  1.0000
  C   C131      1.0  0.37380  0.55800  0.28360  1.0000
  C   C132      1.0  0.87380  0.05800  0.28360  1.0000
  C   C133      1.0  0.37380  0.44200  0.78360  1.0000
  C   C134      1.0  0.87380  0.94200  0.78360  1.0000
  C   C135      1.0  0.62620  0.44200  0.71640  1.0000
  C   C136      1.0  0.12620  0.94200  0.71640  1.0000
  H   H105      1.0  0.60090  0.58480  0.23810  1.0000
  H   H106      1.0  0.10090  0.08480  0.23810  1.0000
  H   H107      1.0  0.39910  0.58480  0.26190  1.0000
  H   H108      1.0  0.89910  0.08480  0.26190  1.0000
  H   H109      1.0  0.39910  0.41520  0.76190  1.0000
  H   H110      1.0  0.89910  0.91520  0.76190  1.0000
  H   H111      1.0  0.60090  0.41520  0.73810  1.0000
  H   H112      1.0  0.10090  0.91520  0.73810  1.0000
  C   C137      1.0  0.70100  0.56200  0.22260  1.0000
  C   C138      1.0  0.20100  0.06200  0.22260  1.0000
  C   C139      1.0  0.29900  0.56200  0.27740  1.0000
  C   C140      1.0  0.79900  0.06200  0.27740  1.0000
  C   C141      1.0  0.29900  0.43800  0.77740  1.0000
  C   C142      1.0  0.79900  0.93800  0.77740  1.0000
  C   C143      1.0  0.70100  0.43800  0.72260  1.0000
  C   C144      1.0  0.20100  0.93800  0.72260  1.0000
  C   C145      1.0  0.73530  0.51740  0.19260  1.0000
  C   C146      1.0  0.23530  0.01740  0.19260  1.0000
  C   C147      1.0  0.26470  0.51740  0.30740  1.0000
  C   C148      1.0  0.76470  0.01740  0.30740  1.0000
  C   C149      1.0  0.26470  0.48260  0.80740  1.0000
  C   C150      1.0  0.76470  0.98260  0.80740  1.0000
  C   C151      1.0  0.73530  0.48260  0.69260  1.0000
  C   C152      1.0  0.23530  0.98260  0.69260  1.0000
  H   H113      1.0  0.78840  0.51640  0.20080  1.0000
  H   H114      1.0  0.28840  0.01640  0.20080  1.0000
  H   H115      1.0  0.21160  0.51640  0.29920  1.0000
  H   H116      1.0  0.71160  0.01640  0.29920  1.0000
  H   H117      1.0  0.21160  0.48360  0.79920  1.0000
  H   H118      1.0  0.71160  0.98360  0.79920  1.0000
  H   H119      1.0  0.78840  0.48360  0.70080  1.0000
  H   H120      1.0  0.28840  0.98360  0.70080  1.0000
  C   C153      1.0  0.69090  0.47360  0.15010  1.0000
  C   C154      1.0  0.19090  0.97360  0.15010  1.0000
  C   C155      1.0  0.30910  0.47360  0.34990  1.0000
  C   C156      1.0  0.80910  0.97360  0.34990  1.0000
  C   C157      1.0  0.30910  0.52640  0.84990  1.0000
  C   C158      1.0  0.80910  0.02640  0.84990  1.0000
  C   C159      1.0  0.69090  0.52640  0.65010  1.0000
  C   C160      1.0  0.19090  0.02640  0.65010  1.0000
  H   H121      1.0  0.71380  0.44580  0.12760  1.0000
  H   H122      1.0  0.21380  0.94580  0.12760  1.0000
  H   H123      1.0  0.28620  0.44580  0.37240  1.0000
  H   H124      1.0  0.78620  0.94580  0.37240  1.0000
  H   H125      1.0  0.28620  0.55420  0.87240  1.0000
  H   H126      1.0  0.78620  0.05420  0.87240  1.0000
  H   H127      1.0  0.71380  0.55420  0.62760  1.0000
  H   H128      1.0  0.21380  0.05420  0.62760  1.0000
  Cu  Cu1       1.0  0.90017  0.75436  0.39985  1.0000
  Cu  Cu2       1.0  0.40017  0.25436  0.39985  1.0000
  Cu  Cu3       1.0  0.09983  0.75436  0.10015  1.0000
  Cu  Cu4       1.0  0.59983  0.25436  0.10015  1.0000
  Cu  Cu5       1.0  0.09983  0.24564  0.60015  1.0000
  Cu  Cu6       1.0  0.59983  0.74564  0.60015  1.0000
  Cu  Cu7       1.0  0.90017  0.24564  0.89985  1.0000
  Cu  Cu8       1.0  0.40017  0.74564  0.89985  1.0000
  Cu  Cu9       1.0  0.55252  0.40646  0.09588  1.0000
  Cu  Cu10      1.0  0.05252  0.90646  0.09588  1.0000
  Cu  Cu11      1.0  0.44748  0.40646  0.40412  1.0000
  Cu  Cu12      1.0  0.94748  0.90646  0.40412  1.0000
  Cu  Cu13      1.0  0.44748  0.59354  0.90412  1.0000
  Cu  Cu14      1.0  0.94748  0.09354  0.90412  1.0000
  Cu  Cu15      1.0  0.55252  0.59354  0.59588  1.0000
  Cu  Cu16      1.0  0.05252  0.09354  0.59588  1.0000
  Cu  Cu17      1.0  0.51671  0.68255  0.40853  1.0000
  Cu  Cu18      1.0  0.01671  0.18255  0.40853  1.0000
  Cu  Cu19      1.0  0.48329  0.68255  0.09147  1.0000
  Cu  Cu20      1.0  0.98329  0.18255  0.09147  1.0000
  Cu  Cu21      1.0  0.48329  0.31745  0.59147  1.0000
  Cu  Cu22      1.0  0.98329  0.81745  0.59147  1.0000
  Cu  Cu23      1.0  0.51671  0.31745  0.90853  1.0000
  Cu  Cu24      1.0  0.01671  0.81745  0.90853  1.0000
  I   I1        1.0  0.42532  0.41939  0.13706  1.0000
  I   I2        1.0  0.92532  0.91939  0.13706  1.0000
  I   I3        1.0  0.57468  0.41939  0.36294  1.0000
  I   I4        1.0  0.07468  0.91939  0.36294  1.0000
  I   I5        1.0  0.57468  0.58061  0.86294  1.0000
  I   I6        1.0  0.07468  0.08061  0.86294  1.0000
  I   I7        1.0  0.42532  0.58061  0.63706  1.0000
  I   I8        1.0  0.92532  0.08061  0.63706  1.0000
  I   I9        1.0  0.50000  0.69209  0.25000  1.0000
  I   I10       1.0  0.00000  0.19209  0.25000  1.0000
  I   I11       1.0  0.50000  0.30791  0.75000  1.0000
  I   I12       1.0  0.00000  0.80791  0.75000  1.0000
  N   N1        1.0  0.01320  0.73500  0.39520  1.0000
  N   N2        1.0  0.51320  0.23500  0.39520  1.0000
  N   N3        1.0  0.98680  0.73500  0.10480  1.0000
  N   N4        1.0  0.48680  0.23500  0.10480  1.0000
  N   N5        1.0  0.98680  0.26500  0.60480  1.0000
  N   N6        1.0  0.48680  0.76500  0.60480  1.0000
  N   N7        1.0  0.01320  0.26500  0.89520  1.0000
  N   N8        1.0  0.51320  0.76500  0.89520  1.0000
  N   N9        1.0  0.40450  0.69720  0.41040  1.0000
  N   N10       1.0  0.90450  0.19720  0.41040  1.0000
  N   N11       1.0  0.59550  0.69720  0.08960  1.0000
  N   N12       1.0  0.09550  0.19720  0.08960  1.0000
  N   N13       1.0  0.59550  0.30280  0.58960  1.0000
  N   N14       1.0  0.09550  0.80280  0.58960  1.0000
  N   N15       1.0  0.40450  0.30280  0.91040  1.0000
  N   N16       1.0  0.90450  0.80280  0.91040  1.0000
  N   N17       1.0  0.61230  0.47460  0.14420  1.0000
  N   N18       1.0  0.11230  0.97460  0.14420  1.0000
  N   N19       1.0  0.38770  0.47460  0.35580  1.0000
  N   N20       1.0  0.88770  0.97460  0.35580  1.0000
  N   N21       1.0  0.38770  0.52540  0.85580  1.0000
  N   N22       1.0  0.88770  0.02540  0.85580  1.0000
  N   N23       1.0  0.61230  0.52540  0.64420  1.0000
  N   N24       1.0  0.11230  0.02540  0.64420  1.0000
  N   N25       1.0  0.83930  0.69150  0.34350  1.0000
  N   N26       1.0  0.33930  0.19150  0.34350  1.0000
  N   N27       1.0  0.16070  0.69150  0.15650  1.0000
  N   N28       1.0  0.66070  0.19150  0.15650  1.0000
  N   N29       1.0  0.16070  0.30850  0.65650  1.0000
  N   N30       1.0  0.66070  0.80850  0.65650  1.0000
  N   N31       1.0  0.83930  0.30850  0.84350  1.0000
  N   N32       1.0  0.33930  0.80850  0.84350  1.0000
  O   O1        1.0  0.76680  0.86010  0.47360  1.0000
  O   O2        1.0  0.26680  0.36010  0.47360  1.0000
  O   O3        1.0  0.23320  0.86010  0.02640  1.0000
  O   O4        1.0  0.73320  0.36010  0.02640  1.0000
  O   O5        1.0  0.23320  0.13990  0.52640  1.0000
  O   O6        1.0  0.73320  0.63990  0.52640  1.0000
  O   O7        1.0  0.76680  0.13990  0.97360  1.0000
  O   O8        1.0  0.26680  0.63990  0.97360  1.0000
  S   S1        1.0  0.55502  0.40099  0.96033  1.0000
  S   S2        1.0  0.05502  0.90099  0.96033  1.0000
  S   S3        1.0  0.44498  0.40099  0.53967  1.0000
  S   S4        1.0  0.94498  0.90099  0.53967  1.0000
  S   S5        1.0  0.44498  0.59901  0.03967  1.0000
  S   S6        1.0  0.94498  0.09901  0.03967  1.0000
  S   S7        1.0  0.55502  0.59901  0.46033  1.0000
  S   S8        1.0  0.05502  0.09901  0.46033  1.0000
  S   S9        1.0  0.86902  0.83724  0.34271  1.0000
  S   S10       1.0  0.36902  0.33724  0.34271  1.0000
  S   S11       1.0  0.13098  0.83724  0.15729  1.0000
  S   S12       1.0  0.63098  0.33724  0.15729  1.0000
  S   S13       1.0  0.13098  0.16276  0.65729  1.0000
  S   S14       1.0  0.63098  0.66276  0.65729  1.0000
  S   S15       1.0  0.86902  0.16276  0.84271  1.0000
  S   S16       1.0  0.36902  0.66276  0.84271  1.0000
  S   S17       1.0  0.88716  0.76015  0.53005  1.0000
  S   S18       1.0  0.38716  0.26015  0.53005  1.0000
  S   S19       1.0  0.11284  0.76015  0.96995  1.0000
  S   S20       1.0  0.61284  0.26015  0.96995  1.0000
  S   S21       1.0  0.11284  0.23985  0.46995  1.0000
  S   S22       1.0  0.61284  0.73985  0.46995  1.0000
  S   S23       1.0  0.88716  0.23985  0.03005  1.0000
  S   S24       1.0  0.38716  0.73985  0.03005  1.0000
  W   W1        1.0  0.85891  0.84163  0.47256  1.0000
  W   W2        1.0  0.35891  0.34163  0.47256  1.0000
  W   W3        1.0  0.14109  0.84163  0.02744  1.0000
  W   W4        1.0  0.64109  0.34163  0.02744  1.0000
  W   W5        1.0  0.14109  0.15837  0.52744  1.0000
  W   W6        1.0  0.64109  0.65837  0.52744  1.0000
  W   W7        1.0  0.85891  0.15837  0.97256  1.0000
  W   W8        1.0  0.35891  0.65837  0.97256  1.0000
