data_image0
_chemical_formula_structural       Cd4C24H8C24H8C8H8C24O32
_chemical_formula_sum              "Cd4 C80 H24 O32"
_cell_length_a       8.6602
_cell_length_b       16.035
_cell_length_c       21.649
_cell_angle_alpha    90
_cell_angle_beta     100.773
_cell_angle_gamma    90

_space_group_name_H-M_alt    "P 1"
_space_group_IT_number       1

loop_
  _space_group_symop_operation_xyz
  'x, y, z'

loop_
  _atom_site_type_symbol
  _atom_site_label
  _atom_site_symmetry_multiplicity
  _atom_site_fract_x
  _atom_site_fract_y
  _atom_site_fract_z
  _atom_site_occupancy
  Cd  Cd1       1.0  0.50000  0.95244  0.25000  1.0000
  Cd  Cd2       1.0  0.00000  0.45244  0.25000  1.0000
  Cd  Cd3       1.0  0.50000  0.04756  0.75000  1.0000
  Cd  Cd4       1.0  0.00000  0.54756  0.75000  1.0000
  C   C1        1.0  0.37250  0.84410  0.32416  1.0000
  C   C2        1.0  0.62750  0.84410  0.17584  1.0000
  C   C3        1.0  0.87250  0.34410  0.32416  1.0000
  C   C4        1.0  0.12750  0.34410  0.17584  1.0000
  C   C5        1.0  0.62750  0.15590  0.67584  1.0000
  C   C6        1.0  0.37250  0.15590  0.82416  1.0000
  C   C7        1.0  0.12750  0.65590  0.67584  1.0000
  C   C8        1.0  0.87250  0.65590  0.82416  1.0000
  C   C9        1.0  0.30400  0.78464  0.36610  1.0000
  C   C10       1.0  0.69600  0.78464  0.13390  1.0000
  C   C11       1.0  0.80400  0.28464  0.36610  1.0000
  C   C12       1.0  0.19600  0.28464  0.13390  1.0000
  C   C13       1.0  0.69600  0.21536  0.63390  1.0000
  C   C14       1.0  0.30400  0.21536  0.86610  1.0000
  C   C15       1.0  0.19600  0.71536  0.63390  1.0000
  C   C16       1.0  0.80400  0.71536  0.86610  1.0000
  C   C17       1.0  0.23250  0.71219  0.33965  1.0000
  C   C18       1.0  0.76750  0.71219  0.16035  1.0000
  C   C19       1.0  0.73250  0.21219  0.33965  1.0000
  C   C20       1.0  0.26750  0.21219  0.16035  1.0000
  C   C21       1.0  0.76750  0.28781  0.66035  1.0000
  C   C22       1.0  0.23250  0.28781  0.83965  1.0000
  C   C23       1.0  0.26750  0.78781  0.66035  1.0000
  C   C24       1.0  0.73250  0.78781  0.83965  1.0000
  H   H1        1.0  0.22650  0.70270  0.29690  1.0000
  H   H2        1.0  0.77350  0.70270  0.20310  1.0000
  H   H3        1.0  0.72650  0.20270  0.29690  1.0000
  H   H4        1.0  0.27350  0.20270  0.20310  1.0000
  H   H5        1.0  0.77350  0.29730  0.70310  1.0000
  H   H6        1.0  0.22650  0.29730  0.79690  1.0000
  H   H7        1.0  0.27350  0.79730  0.70310  1.0000
  H   H8        1.0  0.72650  0.79730  0.79690  1.0000
  C   C25       1.0  0.17010  0.65379  0.37494  1.0000
  C   C26       1.0  0.82990  0.65379  0.12506  1.0000
  C   C27       1.0  0.67010  0.15379  0.37494  1.0000
  C   C28       1.0  0.32990  0.15379  0.12506  1.0000
  C   C29       1.0  0.82990  0.34621  0.62506  1.0000
  C   C30       1.0  0.17010  0.34621  0.87494  1.0000
  C   C31       1.0  0.32990  0.84621  0.62506  1.0000
  C   C32       1.0  0.67010  0.84621  0.87494  1.0000
  C   C33       1.0  0.17540  0.66731  0.43958  1.0000
  C   C34       1.0  0.82460  0.66731  0.06042  1.0000
  C   C35       1.0  0.67540  0.16731  0.43958  1.0000
  C   C36       1.0  0.32460  0.16731  0.06042  1.0000
  C   C37       1.0  0.82460  0.33269  0.56042  1.0000
  C   C38       1.0  0.17540  0.33269  0.93958  1.0000
  C   C39       1.0  0.32460  0.83269  0.56042  1.0000
  C   C40       1.0  0.67540  0.83269  0.93958  1.0000
  C   C41       1.0  0.11440  0.60972  0.47941  1.0000
  C   C42       1.0  0.88560  0.60972  0.02059  1.0000
  C   C43       1.0  0.61440  0.10972  0.47941  1.0000
  C   C44       1.0  0.38560  0.10972  0.02059  1.0000
  C   C45       1.0  0.88560  0.39028  0.52059  1.0000
  C   C46       1.0  0.11440  0.39028  0.97941  1.0000
  C   C47       1.0  0.38560  0.89028  0.52059  1.0000
  C   C48       1.0  0.61440  0.89028  0.97941  1.0000
  H   H9        1.0  0.06870  0.56050  0.46210  1.0000
  H   H10       1.0  0.93130  0.56050  0.03790  1.0000
  H   H11       1.0  0.56870  0.06050  0.46210  1.0000
  H   H12       1.0  0.43130  0.06050  0.03790  1.0000
  H   H13       1.0  0.93130  0.43950  0.53790  1.0000
  H   H14       1.0  0.06870  0.43950  0.96210  1.0000
  H   H15       1.0  0.43130  0.93950  0.53790  1.0000
  H   H16       1.0  0.56870  0.93950  0.96210  1.0000
  C   C49       1.0  0.37930  0.87582  0.45934  1.0000
  C   C50       1.0  0.62070  0.87582  0.04066  1.0000
  C   C51       1.0  0.87930  0.37582  0.45934  1.0000
  C   C52       1.0  0.12070  0.37582  0.04066  1.0000
  C   C53       1.0  0.62070  0.12418  0.54066  1.0000
  C   C54       1.0  0.37930  0.12418  0.95934  1.0000
  C   C55       1.0  0.12070  0.62418  0.54066  1.0000
  C   C56       1.0  0.87930  0.62418  0.95934  1.0000
  H   H17       1.0  0.41930  0.91550  0.43520  1.0000
  H   H18       1.0  0.58070  0.91550  0.06480  1.0000
  H   H19       1.0  0.91930  0.41550  0.43520  1.0000
  H   H20       1.0  0.08070  0.41550  0.06480  1.0000
  H   H21       1.0  0.58070  0.08450  0.56480  1.0000
  H   H22       1.0  0.41930  0.08450  0.93520  1.0000
  H   H23       1.0  0.08070  0.58450  0.56480  1.0000
  H   H24       1.0  0.91930  0.58450  0.93520  1.0000
  C   C57       1.0  0.31230  0.80064  0.43002  1.0000
  C   C58       1.0  0.68770  0.80064  0.06998  1.0000
  C   C59       1.0  0.81230  0.30064  0.43002  1.0000
  C   C60       1.0  0.18770  0.30064  0.06998  1.0000
  C   C61       1.0  0.68770  0.19936  0.56998  1.0000
  C   C62       1.0  0.31230  0.19936  0.93002  1.0000
  C   C63       1.0  0.18770  0.69936  0.56998  1.0000
  C   C64       1.0  0.81230  0.69936  0.93002  1.0000
  C   C65       1.0  0.24730  0.74205  0.46754  1.0000
  C   C66       1.0  0.75270  0.74205  0.03246  1.0000
  C   C67       1.0  0.74730  0.24205  0.46754  1.0000
  C   C68       1.0  0.25270  0.24205  0.03246  1.0000
  C   C69       1.0  0.75270  0.25795  0.53246  1.0000
  C   C70       1.0  0.24730  0.25795  0.96754  1.0000
  C   C71       1.0  0.25270  0.75795  0.53246  1.0000
  C   C72       1.0  0.74730  0.75795  0.96754  1.0000
  C   C73       1.0  0.09480  0.57765  0.34048  1.0000
  C   C74       1.0  0.90520  0.57765  0.15952  1.0000
  C   C75       1.0  0.59480  0.07765  0.34048  1.0000
  C   C76       1.0  0.40520  0.07765  0.15952  1.0000
  C   C77       1.0  0.90520  0.42235  0.65952  1.0000
  C   C78       1.0  0.09480  0.42235  0.84048  1.0000
  C   C79       1.0  0.40520  0.92235  0.65952  1.0000
  C   C80       1.0  0.59480  0.92235  0.84048  1.0000
  O   O1        1.0  0.28520  0.87867  0.28142  1.0000
  O   O2        1.0  0.71480  0.87867  0.21858  1.0000
  O   O3        1.0  0.78520  0.37867  0.28142  1.0000
  O   O4        1.0  0.21480  0.37867  0.21858  1.0000
  O   O5        1.0  0.71480  0.12133  0.71858  1.0000
  O   O6        1.0  0.28520  0.12133  0.78142  1.0000
  O   O7        1.0  0.21480  0.62133  0.71858  1.0000
  O   O8        1.0  0.78520  0.62133  0.78142  1.0000
  O   O9        1.0  0.51520  0.85565  0.33407  1.0000
  O   O10       1.0  0.48480  0.85565  0.16593  1.0000
  O   O11       1.0  0.01520  0.35565  0.33407  1.0000
  O   O12       1.0  0.98480  0.35565  0.16593  1.0000
  O   O13       1.0  0.48480  0.14435  0.66593  1.0000
  O   O14       1.0  0.51520  0.14435  0.83407  1.0000
  O   O15       1.0  0.98480  0.64435  0.66593  1.0000
  O   O16       1.0  0.01520  0.64435  0.83407  1.0000
  O   O17       1.0  0.17020  0.54357  0.30427  1.0000
  O   O18       1.0  0.82980  0.54357  0.19573  1.0000
  O   O19       1.0  0.67020  0.04357  0.30427  1.0000
  O   O20       1.0  0.32980  0.04357  0.19573  1.0000
  O   O21       1.0  0.82980  0.45643  0.69573  1.0000
  O   O22       1.0  0.17020  0.45643  0.80427  1.0000
  O   O23       1.0  0.32980  0.95643  0.69573  1.0000
  O   O24       1.0  0.67020  0.95643  0.80427  1.0000
  O   O25       1.0  0.96540  0.55406  0.34824  1.0000
  O   O26       1.0  0.03460  0.55406  0.15176  1.0000
  O   O27       1.0  0.46540  0.05406  0.34824  1.0000
  O   O28       1.0  0.53460  0.05406  0.15176  1.0000
  O   O29       1.0  0.03460  0.44594  0.65176  1.0000
  O   O30       1.0  0.96540  0.44594  0.84824  1.0000
  O   O31       1.0  0.53460  0.94594  0.65176  1.0000
  O   O32       1.0  0.46540  0.94594  0.84824  1.0000
