data_image0
_chemical_formula_structural       Cd3O16C4H2C4H2C4H2C12H2C4H2C4H2C4
_chemical_formula_sum              "Cd3 O16 C36 H12"
_cell_length_a       9.899
_cell_length_b       10.362
_cell_length_c       13.18
_cell_angle_alpha    68.87
_cell_angle_beta     70.65
_cell_angle_gamma    80.77

_space_group_name_H-M_alt    "P 1"
_space_group_IT_number       1

loop_
  _space_group_symop_operation_xyz
  'x, y, z'

loop_
  _atom_site_type_symbol
  _atom_site_label
  _atom_site_symmetry_multiplicity
  _atom_site_fract_x
  _atom_site_fract_y
  _atom_site_fract_z
  _atom_site_occupancy
  Cd  Cd1       1.0  0.00000  0.00000  0.00000  1.0000
  Cd  Cd2       1.0  0.01405  0.30815  0.76365  1.0000
  Cd  Cd3       1.0  0.98595  0.69185  0.23635  1.0000
  O   O1        1.0  0.11640  0.20490  0.90580  1.0000
  O   O2        1.0  0.88360  0.79510  0.09420  1.0000
  O   O3        1.0  0.28500  0.31960  0.75810  1.0000
  O   O4        1.0  0.71500  0.68040  0.24190  1.0000
  O   O5        1.0  0.77950  0.28480  0.80050  1.0000
  O   O6        1.0  0.22050  0.71520  0.19950  1.0000
  O   O7        1.0  0.81290  0.15100  0.96510  1.0000
  O   O8        1.0  0.18710  0.84900  0.03490  1.0000
  O   O9        1.0  0.08760  0.15370  0.67740  1.0000
  O   O10       1.0  0.91240  0.84630  0.32260  1.0000
  O   O11       1.0  0.04490  0.96380  0.83180  1.0000
  O   O12       1.0  0.95510  0.03620  0.16820  1.0000
  O   O13       1.0  0.99190  0.52860  0.77490  1.0000
  O   O14       1.0  0.00810  0.47140  0.22510  1.0000
  O   O15       1.0  0.07780  0.50700  0.60580  1.0000
  O   O16       1.0  0.92220  0.49300  0.39420  1.0000
  C   C1        1.0  0.34280  0.20660  0.93240  1.0000
  C   C2        1.0  0.65720  0.79340  0.06760  1.0000
  C   C3        1.0  0.48710  0.22900  0.88380  1.0000
  C   C4        1.0  0.51290  0.77100  0.11620  1.0000
  H   H1        1.0  0.52370  0.27210  0.80560  1.0000
  H   H2        1.0  0.47630  0.72790  0.19440  1.0000
  C   C5        1.0  0.57780  0.18670  0.95210  1.0000
  C   C6        1.0  0.42220  0.81330  0.04790  1.0000
  C   C7        1.0  0.52140  0.12350  0.06950  1.0000
  C   C8        1.0  0.47860  0.87650  0.93050  1.0000
  H   H3        1.0  0.58230  0.09360  0.11500  1.0000
  H   H4        1.0  0.41770  0.90640  0.88500  1.0000
  C   C9        1.0  0.37600  0.10500  0.11880  1.0000
  C   C10       1.0  0.62400  0.89500  0.88120  1.0000
  C   C11       1.0  0.28650  0.14830  0.04920  1.0000
  C   C12       1.0  0.71350  0.85170  0.95080  1.0000
  H   H5        1.0  0.18820  0.13790  0.08140  1.0000
  H   H6        1.0  0.81180  0.86210  0.91860  1.0000
  C   C13       1.0  0.24390  0.24730  0.85850  1.0000
  C   C14       1.0  0.75610  0.75270  0.14150  1.0000
  C   C15       1.0  0.73390  0.20810  0.90190  1.0000
  C   C16       1.0  0.26610  0.79190  0.09810  1.0000
  C   C17       1.0  0.31590  0.04090  0.23950  1.0000
  C   C18       1.0  0.68410  0.95910  0.76050  1.0000
  C   C19       1.0  0.25870  0.98670  0.33930  1.0000
  C   C20       1.0  0.74130  0.01330  0.66070  1.0000
  C   C21       1.0  0.10210  0.94200  0.64840  1.0000
  C   C22       1.0  0.89790  0.05800  0.35160  1.0000
  C   C23       1.0  0.06270  0.80550  0.69220  1.0000
  C   C24       1.0  0.93730  0.19450  0.30780  1.0000
  H   H7        1.0  0.01980  0.76550  0.77000  1.0000
  H   H8        1.0  0.98020  0.23450  0.23000  1.0000
  C   C25       1.0  0.08720  0.72810  0.62000  1.0000
  C   C26       1.0  0.91280  0.27190  0.38000  1.0000
  C   C27       1.0  0.15090  0.78710  0.50340  1.0000
  C   C28       1.0  0.84910  0.21290  0.49660  1.0000
  H   H9        1.0  0.16680  0.73550  0.45520  1.0000
  H   H10       1.0  0.83320  0.26450  0.54480  1.0000
  C   C29       1.0  0.19070  0.92440  0.45940  1.0000
  C   C30       1.0  0.80930  0.07560  0.54060  1.0000
  C   C31       1.0  0.16380  0.99970  0.53260  1.0000
  C   C32       1.0  0.83620  0.00030  0.46740  1.0000
  H   H11       1.0  0.18810  0.09190  0.50280  1.0000
  H   H12       1.0  0.81190  0.90810  0.49720  1.0000
  C   C33       1.0  0.07560  0.02710  0.72640  1.0000
  C   C34       1.0  0.92440  0.97290  0.27360  1.0000
  C   C35       1.0  0.05070  0.57860  0.66980  1.0000
  C   C36       1.0  0.94930  0.42140  0.33020  1.0000
