data_image0
_chemical_formula_structural       Cd2O14N2C6H2C8H2C4H2C4H2C8H6C2H2C2H6C2H2C2H2C6H2C2H2C2H2C2H6
_chemical_formula_sum              "Cd2 O14 N2 C50 H38"
_cell_length_a       10.3296
_cell_length_b       12.0708
_cell_length_c       13.3106
_cell_angle_alpha    109.816
_cell_angle_beta     111.077
_cell_angle_gamma    98.627

_space_group_name_H-M_alt    "P 1"
_space_group_IT_number       1

loop_
  _space_group_symop_operation_xyz
  'x, y, z'

loop_
  _atom_site_type_symbol
  _atom_site_label
  _atom_site_symmetry_multiplicity
  _atom_site_fract_x
  _atom_site_fract_y
  _atom_site_fract_z
  _atom_site_occupancy
  Cd  Cd1       1.0  0.78379  0.26111  0.18828  1.0000
  Cd  Cd2       1.0  0.21621  0.73889  0.81172  1.0000
  O   O1        1.0  0.69675  0.04115  0.10375  1.0000
  O   O2        1.0  0.30325  0.95885  0.89625  1.0000
  O   O3        1.0  0.70451  0.25529  0.00578  1.0000
  O   O4        1.0  0.29549  0.74471  0.99422  1.0000
  O   O5        1.0  0.69089  0.24423  0.31929  1.0000
  O   O6        1.0  0.30911  0.75577  0.68071  1.0000
  O   O7        1.0  0.53327  0.26768  0.17158  1.0000
  O   O8        1.0  0.46673  0.73232  0.82842  1.0000
  O   O9        1.0  0.00217  0.26483  0.31394  1.0000
  O   O10       1.0  0.99783  0.73517  0.68606  1.0000
  O   O11       1.0  0.56590  0.05812  0.90171  1.0000
  O   O12       1.0  0.43410  0.94188  0.09829  1.0000
  O   O13       1.0  0.02768  0.25350  0.15580  1.0000
  O   O14       1.0  0.97232  0.74650  0.84420  1.0000
  N   N1        1.0  0.85280  0.47551  0.26904  1.0000
  N   N2        1.0  0.14720  0.52449  0.73096  1.0000
  C   C1        1.0  0.61070  0.16560  0.91176  1.0000
  C   C2        1.0  0.38930  0.83440  0.08824  1.0000
  C   C3        1.0  0.55270  0.18810  0.80182  1.0000
  C   C4        1.0  0.44730  0.81190  0.19818  1.0000
  C   C5        1.0  0.45970  0.09060  0.69286  1.0000
  C   C6        1.0  0.54030  0.90940  0.30714  1.0000
  H   H1        1.0  0.42820  0.01230  0.68910  1.0000
  H   H2        1.0  0.57180  0.98770  0.31090  1.0000
  C   C7        1.0  0.41240  0.10760  0.58879  1.0000
  C   C8        1.0  0.58760  0.89240  0.41121  1.0000
  C   C9        1.0  0.46080  0.22590  0.59571  1.0000
  C   C10       1.0  0.53920  0.77410  0.40429  1.0000
  C   C11       1.0  0.41490  0.24200  0.48258  1.0000
  C   C12       1.0  0.58510  0.75800  0.51742  1.0000
  C   C13       1.0  0.27620  0.24820  0.42586  1.0000
  C   C14       1.0  0.72380  0.75180  0.57414  1.0000
  H   H3        1.0  0.21360  0.24870  0.46160  1.0000
  H   H4        1.0  0.78640  0.75130  0.53840  1.0000
  C   C15       1.0  0.22920  0.25381  0.31616  1.0000
  C   C16       1.0  0.77080  0.74619  0.68384  1.0000
  C   C17       1.0  0.32290  0.25383  0.26363  1.0000
  C   C18       1.0  0.67710  0.74617  0.73637  1.0000
  H   H5        1.0  0.29130  0.25600  0.18970  1.0000
  H   H6        1.0  0.70870  0.74400  0.81030  1.0000
  C   C19       1.0  0.46340  0.25070  0.32003  1.0000
  C   C20       1.0  0.53660  0.74930  0.67997  1.0000
  C   C21       1.0  0.50810  0.24460  0.42915  1.0000
  C   C22       1.0  0.49190  0.75540  0.57085  1.0000
  H   H7        1.0  0.60210  0.24230  0.46720  1.0000
  H   H8        1.0  0.39790  0.75770  0.53280  1.0000
  C   C23       1.0  0.56870  0.25400  0.26622  1.0000
  C   C24       1.0  0.43130  0.74600  0.73378  1.0000
  C   C25       1.0  0.07650  0.25770  0.25776  1.0000
  C   C26       1.0  0.92350  0.74230  0.74224  1.0000
  C   C27       1.0  0.55220  0.32600  0.70550  1.0000
  C   C28       1.0  0.44780  0.67400  0.29450  1.0000
  C   C29       1.0  0.60170  0.45500  0.71580  1.0000
  C   C30       1.0  0.39830  0.54500  0.28420  1.0000
  H   H9        1.0  0.66230  0.51090  0.79790  1.0000
  H   H10       1.0  0.33770  0.48910  0.20210  1.0000
  H   H11       1.0  0.51800  0.48080  0.68540  1.0000
  H   H12       1.0  0.48200  0.51920  0.31460  1.0000
  H   H13       1.0  0.65620  0.45560  0.67080  1.0000
  H   H14       1.0  0.34380  0.54440  0.32920  1.0000
  C   C31       1.0  0.59650  0.30490  0.80736  1.0000
  C   C32       1.0  0.40350  0.69510  0.19264  1.0000
  H   H15       1.0  0.65690  0.37090  0.88090  1.0000
  H   H16       1.0  0.34310  0.62910  0.11910  1.0000
  C   C33       1.0  0.31410  0.99930  0.47112  1.0000
  C   C34       1.0  0.68590  0.00070  0.52888  1.0000
  H   H17       1.0  0.21950  0.00970  0.44040  1.0000
  H   H18       1.0  0.78050  0.99030  0.55960  1.0000
  H   H19       1.0  0.30500  0.92420  0.48190  1.0000
  H   H20       1.0  0.69500  0.07580  0.51810  1.0000
  H   H21       1.0  0.35490  0.99470  0.41600  1.0000
  H   H22       1.0  0.64510  0.00530  0.58400  1.0000
  C   C35       1.0  0.97700  0.54490  0.36810  1.0000
  C   C36       1.0  0.02300  0.45510  0.63190  1.0000
  H   H23       1.0  0.04000  0.50500  0.39950  1.0000
  H   H24       1.0  0.96000  0.49500  0.60050  1.0000
  C   C37       1.0  0.01640  0.67140  0.42550  1.0000
  C   C38       1.0  0.98360  0.32860  0.57450  1.0000
  H   H25       1.0  0.10430  0.71520  0.49350  1.0000
  H   H26       1.0  0.89570  0.28480  0.50650  1.0000
  C   C39       1.0  0.92420  0.73390  0.38154  1.0000
  C   C40       1.0  0.07580  0.26610  0.61846  1.0000
  C   C41       1.0  0.96190  0.87022  0.44247  1.0000
  C   C42       1.0  0.03810  0.12978  0.55753  1.0000
  C   C43       1.0  0.05050  0.93440  0.56495  1.0000
  C   C44       1.0  0.94950  0.06560  0.43505  1.0000
  H   H27       1.0  0.08460  0.89070  0.60910  1.0000
  H   H28       1.0  0.91540  0.10930  0.39090  1.0000
  C   C45       1.0  0.91210  0.93880  0.37901  1.0000
  C   C46       1.0  0.08790  0.06120  0.62099  1.0000
  H   H29       1.0  0.85260  0.89800  0.29750  1.0000
  H   H30       1.0  0.14740  0.10200  0.70250  1.0000
  C   C47       1.0  0.79520  0.66210  0.27900  1.0000
  C   C48       1.0  0.20480  0.33790  0.72100  1.0000
  H   H31       1.0  0.72990  0.69950  0.24580  1.0000
  H   H32       1.0  0.27010  0.30050  0.75420  1.0000
  C   C49       1.0  0.76430  0.53580  0.22670  1.0000
  C   C50       1.0  0.23570  0.46420  0.77330  1.0000
  H   H33       1.0  0.67730  0.48970  0.15820  1.0000
  H   H34       1.0  0.32270  0.51030  0.84180  1.0000
  H   H35       1.0  0.62700  0.02000  0.11600  1.0000
  H   H36       1.0  0.37300  0.98000  0.88400  1.0000
  H   H37       1.0  0.65900  0.03300  0.03510  1.0000
  H   H38       1.0  0.34100  0.96700  0.96490  1.0000
