data_image0
_chemical_formula_structural       Mn24Cl20N96C16H16C16H16C16H16C16H16C32H16C16H16C16H16C64H16
_chemical_formula_sum              "Mn24 Cl20 N96 C192 H128"
_cell_length_a       21.312
_cell_length_b       21.312
_cell_length_c       16.548
_cell_angle_alpha    90
_cell_angle_beta     90
_cell_angle_gamma    90

_space_group_name_H-M_alt    "P 1"
_space_group_IT_number       1

loop_
  _space_group_symop_operation_xyz
  'x, y, z'

loop_
  _atom_site_type_symbol
  _atom_site_label
  _atom_site_symmetry_multiplicity
  _atom_site_fract_x
  _atom_site_fract_y
  _atom_site_fract_z
  _atom_site_occupancy
  Mn  Mn1       1.0  0.00928  0.12472  0.97941  1.0000
  Mn  Mn2       1.0  0.12472  0.99072  0.02059  1.0000
  Mn  Mn3       1.0  0.99072  0.87528  0.97941  1.0000
  Mn  Mn4       1.0  0.87528  0.00928  0.02059  1.0000
  Mn  Mn5       1.0  0.00928  0.37528  0.27059  1.0000
  Mn  Mn6       1.0  0.37528  0.99072  0.72941  1.0000
  Mn  Mn7       1.0  0.99072  0.62472  0.27059  1.0000
  Mn  Mn8       1.0  0.62472  0.00928  0.72941  1.0000
  Mn  Mn9       1.0  0.50928  0.62472  0.47941  1.0000
  Mn  Mn10      1.0  0.62472  0.49072  0.52059  1.0000
  Mn  Mn11      1.0  0.49072  0.37528  0.47941  1.0000
  Mn  Mn12      1.0  0.37528  0.50928  0.52059  1.0000
  Mn  Mn13      1.0  0.50928  0.87528  0.77059  1.0000
  Mn  Mn14      1.0  0.87528  0.49072  0.22941  1.0000
  Mn  Mn15      1.0  0.49072  0.12472  0.77059  1.0000
  Mn  Mn16      1.0  0.12472  0.50928  0.22941  1.0000
  Mn  Mn17      1.0  0.01895  0.25000  0.12500  1.0000
  Mn  Mn18      1.0  0.25000  0.98105  0.87500  1.0000
  Mn  Mn19      1.0  0.98105  0.75000  0.12500  1.0000
  Mn  Mn20      1.0  0.75000  0.01895  0.87500  1.0000
  Mn  Mn21      1.0  0.51895  0.75000  0.62500  1.0000
  Mn  Mn22      1.0  0.75000  0.48105  0.37500  1.0000
  Mn  Mn23      1.0  0.48105  0.25000  0.62500  1.0000
  Mn  Mn24      1.0  0.25000  0.51895  0.37500  1.0000
  Cl  Cl1       1.0  0.00000  0.00000  0.00000  1.0000
  Cl  Cl2       1.0  0.00000  0.50000  0.25000  1.0000
  Cl  Cl3       1.0  0.50000  0.00000  0.75000  1.0000
  Cl  Cl4       1.0  0.50000  0.50000  0.50000  1.0000
  Cl  Cl5       1.0  0.02228  0.24001  0.97263  1.0000
  Cl  Cl6       1.0  0.24001  0.97772  0.02737  1.0000
  Cl  Cl7       1.0  0.97772  0.75999  0.97263  1.0000
  Cl  Cl8       1.0  0.75999  0.02228  0.02737  1.0000
  Cl  Cl9       1.0  0.02228  0.25999  0.27737  1.0000
  Cl  Cl10      1.0  0.25999  0.97772  0.72263  1.0000
  Cl  Cl11      1.0  0.97772  0.74001  0.27737  1.0000
  Cl  Cl12      1.0  0.74001  0.02228  0.72263  1.0000
  Cl  Cl13      1.0  0.52228  0.74001  0.47263  1.0000
  Cl  Cl14      1.0  0.74001  0.47772  0.52737  1.0000
  Cl  Cl15      1.0  0.47772  0.25999  0.47263  1.0000
  Cl  Cl16      1.0  0.25999  0.52228  0.52737  1.0000
  Cl  Cl17      1.0  0.52228  0.75999  0.77737  1.0000
  Cl  Cl18      1.0  0.75999  0.47772  0.22263  1.0000
  Cl  Cl19      1.0  0.47772  0.24001  0.77737  1.0000
  Cl  Cl20      1.0  0.24001  0.52228  0.22263  1.0000
  N   N1        1.0  0.12500  0.07690  0.09770  1.0000
  N   N2        1.0  0.07690  0.87500  0.90230  1.0000
  N   N3        1.0  0.87500  0.92310  0.09770  1.0000
  N   N4        1.0  0.92310  0.12500  0.90230  1.0000
  N   N5        1.0  0.12500  0.42310  0.15230  1.0000
  N   N6        1.0  0.42310  0.87500  0.84770  1.0000
  N   N7        1.0  0.87500  0.57690  0.15230  1.0000
  N   N8        1.0  0.57690  0.12500  0.84770  1.0000
  N   N9        1.0  0.62500  0.57690  0.59770  1.0000
  N   N10       1.0  0.57690  0.37500  0.40230  1.0000
  N   N11       1.0  0.37500  0.42310  0.59770  1.0000
  N   N12       1.0  0.42310  0.62500  0.40230  1.0000
  N   N13       1.0  0.62500  0.92310  0.65230  1.0000
  N   N14       1.0  0.92310  0.37500  0.34770  1.0000
  N   N15       1.0  0.37500  0.07690  0.65230  1.0000
  N   N16       1.0  0.07690  0.62500  0.34770  1.0000
  N   N17       1.0  0.08100  0.12080  0.08340  1.0000
  N   N18       1.0  0.12080  0.91900  0.91660  1.0000
  N   N19       1.0  0.91900  0.87920  0.08340  1.0000
  N   N20       1.0  0.87920  0.08100  0.91660  1.0000
  N   N21       1.0  0.08100  0.37920  0.16660  1.0000
  N   N22       1.0  0.37920  0.91900  0.83340  1.0000
  N   N23       1.0  0.91900  0.62080  0.16660  1.0000
  N   N24       1.0  0.62080  0.08100  0.83340  1.0000
  N   N25       1.0  0.58100  0.62080  0.58340  1.0000
  N   N26       1.0  0.62080  0.41900  0.41660  1.0000
  N   N27       1.0  0.41900  0.37920  0.58340  1.0000
  N   N28       1.0  0.37920  0.58100  0.41660  1.0000
  N   N29       1.0  0.58100  0.87920  0.66660  1.0000
  N   N30       1.0  0.87920  0.41900  0.33340  1.0000
  N   N31       1.0  0.41900  0.12080  0.66660  1.0000
  N   N32       1.0  0.12080  0.58100  0.33340  1.0000
  N   N33       1.0  0.09030  0.17280  0.12810  1.0000
  N   N34       1.0  0.17280  0.90970  0.87190  1.0000
  N   N35       1.0  0.90970  0.82720  0.12810  1.0000
  N   N36       1.0  0.82720  0.09030  0.87190  1.0000
  N   N37       1.0  0.09030  0.32720  0.12190  1.0000
  N   N38       1.0  0.32720  0.90970  0.87810  1.0000
  N   N39       1.0  0.90970  0.67280  0.12190  1.0000
  N   N40       1.0  0.67280  0.09030  0.87810  1.0000
  N   N41       1.0  0.59030  0.67280  0.62810  1.0000
  N   N42       1.0  0.67280  0.40970  0.37190  1.0000
  N   N43       1.0  0.40970  0.32720  0.62810  1.0000
  N   N44       1.0  0.32720  0.59030  0.37190  1.0000
  N   N45       1.0  0.59030  0.82720  0.62190  1.0000
  N   N46       1.0  0.82720  0.40970  0.37810  1.0000
  N   N47       1.0  0.40970  0.17280  0.62190  1.0000
  N   N48       1.0  0.17280  0.59030  0.37810  1.0000
  N   N49       1.0  0.08980  0.10820  0.89990  1.0000
  N   N50       1.0  0.10820  0.91020  0.10010  1.0000
  N   N51       1.0  0.91020  0.89180  0.89990  1.0000
  N   N52       1.0  0.89180  0.08980  0.10010  1.0000
  N   N53       1.0  0.08980  0.39180  0.35010  1.0000
  N   N54       1.0  0.39180  0.91020  0.64990  1.0000
  N   N55       1.0  0.91020  0.60820  0.35010  1.0000
  N   N56       1.0  0.60820  0.08980  0.64990  1.0000
  N   N57       1.0  0.58980  0.60820  0.39990  1.0000
  N   N58       1.0  0.60820  0.41020  0.60010  1.0000
  N   N59       1.0  0.41020  0.39180  0.39990  1.0000
  N   N60       1.0  0.39180  0.58980  0.60010  1.0000
  N   N61       1.0  0.58980  0.89180  0.85010  1.0000
  N   N62       1.0  0.89180  0.41020  0.14990  1.0000
  N   N63       1.0  0.41020  0.10820  0.85010  1.0000
  N   N64       1.0  0.10820  0.58980  0.14990  1.0000
  N   N65       1.0  0.12830  0.05920  0.91560  1.0000
  N   N66       1.0  0.05920  0.87170  0.08440  1.0000
  N   N67       1.0  0.87170  0.94080  0.91560  1.0000
  N   N68       1.0  0.94080  0.12830  0.08440  1.0000
  N   N69       1.0  0.12830  0.44080  0.33440  1.0000
  N   N70       1.0  0.44080  0.87170  0.66560  1.0000
  N   N71       1.0  0.87170  0.55920  0.33440  1.0000
  N   N72       1.0  0.55920  0.12830  0.66560  1.0000
  N   N73       1.0  0.62830  0.55920  0.41560  1.0000
  N   N74       1.0  0.55920  0.37170  0.58440  1.0000
  N   N75       1.0  0.37170  0.44080  0.41560  1.0000
  N   N76       1.0  0.44080  0.62830  0.58440  1.0000
  N   N77       1.0  0.62830  0.94080  0.83440  1.0000
  N   N78       1.0  0.94080  0.37170  0.16560  1.0000
  N   N79       1.0  0.37170  0.05920  0.83440  1.0000
  N   N80       1.0  0.05920  0.62830  0.16560  1.0000
  N   N81       1.0  0.17830  0.05820  0.86750  1.0000
  N   N82       1.0  0.05820  0.82170  0.13250  1.0000
  N   N83       1.0  0.82170  0.94180  0.86750  1.0000
  N   N84       1.0  0.94180  0.17830  0.13250  1.0000
  N   N85       1.0  0.17830  0.44180  0.38250  1.0000
  N   N86       1.0  0.44180  0.82170  0.61750  1.0000
  N   N87       1.0  0.82170  0.55820  0.38250  1.0000
  N   N88       1.0  0.55820  0.17830  0.61750  1.0000
  N   N89       1.0  0.67830  0.55820  0.36750  1.0000
  N   N90       1.0  0.55820  0.32170  0.63250  1.0000
  N   N91       1.0  0.32170  0.44180  0.36750  1.0000
  N   N92       1.0  0.44180  0.67830  0.63250  1.0000
  N   N93       1.0  0.67830  0.94180  0.88250  1.0000
  N   N94       1.0  0.94180  0.32170  0.11750  1.0000
  N   N95       1.0  0.32170  0.05820  0.88250  1.0000
  N   N96       1.0  0.05820  0.67830  0.11750  1.0000
  C   C1        1.0  0.19660  0.18570  0.71530  1.0000
  C   C2        1.0  0.18570  0.80340  0.28470  1.0000
  C   C3        1.0  0.80340  0.81430  0.71530  1.0000
  C   C4        1.0  0.81430  0.19660  0.28470  1.0000
  C   C5        1.0  0.19660  0.31430  0.53470  1.0000
  C   C6        1.0  0.31430  0.80340  0.46530  1.0000
  C   C7        1.0  0.80340  0.68570  0.53470  1.0000
  C   C8        1.0  0.68570  0.19660  0.46530  1.0000
  C   C9        1.0  0.69660  0.68570  0.21530  1.0000
  C   C10       1.0  0.68570  0.30340  0.78470  1.0000
  C   C11       1.0  0.30340  0.31430  0.21530  1.0000
  C   C12       1.0  0.31430  0.69660  0.78470  1.0000
  C   C13       1.0  0.69660  0.81430  0.03470  1.0000
  C   C14       1.0  0.81430  0.30340  0.96530  1.0000
  C   C15       1.0  0.30340  0.18570  0.03470  1.0000
  C   C16       1.0  0.18570  0.69660  0.96530  1.0000
  H   H1        1.0  0.22240  0.20170  0.67490  1.0000
  H   H2        1.0  0.20170  0.77760  0.32510  1.0000
  H   H3        1.0  0.77760  0.79830  0.67490  1.0000
  H   H4        1.0  0.79830  0.22240  0.32510  1.0000
  H   H5        1.0  0.22240  0.29830  0.57510  1.0000
  H   H6        1.0  0.29830  0.77760  0.42490  1.0000
  H   H7        1.0  0.77760  0.70170  0.57510  1.0000
  H   H8        1.0  0.70170  0.22240  0.42490  1.0000
  H   H9        1.0  0.72240  0.70170  0.17490  1.0000
  H   H10       1.0  0.70170  0.27760  0.82510  1.0000
  H   H11       1.0  0.27760  0.29830  0.17490  1.0000
  H   H12       1.0  0.29830  0.72240  0.82510  1.0000
  H   H13       1.0  0.72240  0.79830  0.07510  1.0000
  H   H14       1.0  0.79830  0.27760  0.92490  1.0000
  H   H15       1.0  0.27760  0.20170  0.07510  1.0000
  H   H16       1.0  0.20170  0.72240  0.92490  1.0000
  C   C17       1.0  0.14040  0.21770  0.73650  1.0000
  C   C18       1.0  0.21770  0.85960  0.26350  1.0000
  C   C19       1.0  0.85960  0.78230  0.73650  1.0000
  C   C20       1.0  0.78230  0.14040  0.26350  1.0000
  C   C21       1.0  0.14040  0.28230  0.51350  1.0000
  C   C22       1.0  0.28230  0.85960  0.48650  1.0000
  C   C23       1.0  0.85960  0.71770  0.51350  1.0000
  C   C24       1.0  0.71770  0.14040  0.48650  1.0000
  C   C25       1.0  0.64040  0.71770  0.23650  1.0000
  C   C26       1.0  0.71770  0.35960  0.76350  1.0000
  C   C27       1.0  0.35960  0.28230  0.23650  1.0000
  C   C28       1.0  0.28230  0.64040  0.76350  1.0000
  C   C29       1.0  0.64040  0.78230  0.01350  1.0000
  C   C30       1.0  0.78230  0.35960  0.98650  1.0000
  C   C31       1.0  0.35960  0.21770  0.01350  1.0000
  C   C32       1.0  0.21770  0.64040  0.98650  1.0000
  H   H17       1.0  0.13040  0.25470  0.70970  1.0000
  H   H18       1.0  0.25470  0.86960  0.29030  1.0000
  H   H19       1.0  0.86960  0.74530  0.70970  1.0000
  H   H20       1.0  0.74530  0.13040  0.29030  1.0000
  H   H21       1.0  0.13040  0.24530  0.54030  1.0000
  H   H22       1.0  0.24530  0.86960  0.45970  1.0000
  H   H23       1.0  0.86960  0.75470  0.54030  1.0000
  H   H24       1.0  0.75470  0.13040  0.45970  1.0000
  H   H25       1.0  0.63040  0.75470  0.20970  1.0000
  H   H26       1.0  0.75470  0.36960  0.79030  1.0000
  H   H27       1.0  0.36960  0.24530  0.20970  1.0000
  H   H28       1.0  0.24530  0.63040  0.79030  1.0000
  H   H29       1.0  0.63040  0.74530  0.04030  1.0000
  H   H30       1.0  0.74530  0.36960  0.95970  1.0000
  H   H31       1.0  0.36960  0.25470  0.04030  1.0000
  H   H32       1.0  0.25470  0.63040  0.95970  1.0000
  C   C33       1.0  0.21320  0.13050  0.75480  1.0000
  C   C34       1.0  0.13050  0.78680  0.24520  1.0000
  C   C35       1.0  0.78680  0.86950  0.75480  1.0000
  C   C36       1.0  0.86950  0.21320  0.24520  1.0000
  C   C37       1.0  0.21320  0.36950  0.49520  1.0000
  C   C38       1.0  0.36950  0.78680  0.50480  1.0000
  C   C39       1.0  0.78680  0.63050  0.49520  1.0000
  C   C40       1.0  0.63050  0.21320  0.50480  1.0000
  C   C41       1.0  0.71320  0.63050  0.25480  1.0000
  C   C42       1.0  0.63050  0.28680  0.74520  1.0000
  C   C43       1.0  0.28680  0.36950  0.25480  1.0000
  C   C44       1.0  0.36950  0.71320  0.74520  1.0000
  C   C45       1.0  0.71320  0.86950  0.99520  1.0000
  C   C46       1.0  0.86950  0.28680  0.00480  1.0000
  C   C47       1.0  0.28680  0.13050  0.99520  1.0000
  C   C48       1.0  0.13050  0.71320  0.00480  1.0000
  H   H33       1.0  0.24930  0.10850  0.74070  1.0000
  H   H34       1.0  0.10850  0.75070  0.25930  1.0000
  H   H35       1.0  0.75070  0.89150  0.74070  1.0000
  H   H36       1.0  0.89150  0.24930  0.25930  1.0000
  H   H37       1.0  0.24930  0.39150  0.50930  1.0000
  H   H38       1.0  0.39150  0.75070  0.49070  1.0000
  H   H39       1.0  0.75070  0.60850  0.50930  1.0000
  H   H40       1.0  0.60850  0.24930  0.49070  1.0000
  H   H41       1.0  0.74930  0.60850  0.24070  1.0000
  H   H42       1.0  0.60850  0.25070  0.75930  1.0000
  H   H43       1.0  0.25070  0.39150  0.24070  1.0000
  H   H44       1.0  0.39150  0.74930  0.75930  1.0000
  H   H45       1.0  0.74930  0.89150  0.00930  1.0000
  H   H46       1.0  0.89150  0.25070  0.99070  1.0000
  H   H47       1.0  0.25070  0.10850  0.00930  1.0000
  H   H48       1.0  0.10850  0.74930  0.99070  1.0000
  C   C49       1.0  0.17160  0.20090  0.23050  1.0000
  C   C50       1.0  0.20090  0.82840  0.76950  1.0000
  C   C51       1.0  0.82840  0.79910  0.23050  1.0000
  C   C52       1.0  0.79910  0.17160  0.76950  1.0000
  C   C53       1.0  0.17160  0.29910  0.01950  1.0000
  C   C54       1.0  0.29910  0.82840  0.98050  1.0000
  C   C55       1.0  0.82840  0.70090  0.01950  1.0000
  C   C56       1.0  0.70090  0.17160  0.98050  1.0000
  C   C57       1.0  0.67160  0.70090  0.73050  1.0000
  C   C58       1.0  0.70090  0.32840  0.26950  1.0000
  C   C59       1.0  0.32840  0.29910  0.73050  1.0000
  C   C60       1.0  0.29910  0.67160  0.26950  1.0000
  C   C61       1.0  0.67160  0.79910  0.51950  1.0000
  C   C62       1.0  0.79910  0.32840  0.48050  1.0000
  C   C63       1.0  0.32840  0.20090  0.51950  1.0000
  C   C64       1.0  0.20090  0.67160  0.48050  1.0000
  H   H49       1.0  0.15550  0.24000  0.24400  1.0000
  H   H50       1.0  0.24000  0.84450  0.75600  1.0000
  H   H51       1.0  0.84450  0.76000  0.24400  1.0000
  H   H52       1.0  0.76000  0.15550  0.75600  1.0000
  H   H53       1.0  0.15550  0.26000  0.00600  1.0000
  H   H54       1.0  0.26000  0.84450  0.99400  1.0000
  H   H55       1.0  0.84450  0.74000  0.00600  1.0000
  H   H56       1.0  0.74000  0.15550  0.99400  1.0000
  H   H57       1.0  0.65550  0.74000  0.74400  1.0000
  H   H58       1.0  0.74000  0.34450  0.25600  1.0000
  H   H59       1.0  0.34450  0.26000  0.74400  1.0000
  H   H60       1.0  0.26000  0.65550  0.25600  1.0000
  H   H61       1.0  0.65550  0.76000  0.50600  1.0000
  H   H62       1.0  0.76000  0.34450  0.49400  1.0000
  H   H63       1.0  0.34450  0.24000  0.50600  1.0000
  H   H64       1.0  0.24000  0.65550  0.49400  1.0000
  C   C65       1.0  0.11740  0.14050  0.83680  1.0000
  C   C66       1.0  0.14050  0.88260  0.16320  1.0000
  C   C67       1.0  0.88260  0.85950  0.83680  1.0000
  C   C68       1.0  0.85950  0.11740  0.16320  1.0000
  C   C69       1.0  0.11740  0.35950  0.41320  1.0000
  C   C70       1.0  0.35950  0.88260  0.58680  1.0000
  C   C71       1.0  0.88260  0.64050  0.41320  1.0000
  C   C72       1.0  0.64050  0.11740  0.58680  1.0000
  C   C73       1.0  0.61740  0.64050  0.33680  1.0000
  C   C74       1.0  0.64050  0.38260  0.66320  1.0000
  C   C75       1.0  0.38260  0.35950  0.33680  1.0000
  C   C76       1.0  0.35950  0.61740  0.66320  1.0000
  C   C77       1.0  0.61740  0.85950  0.91320  1.0000
  C   C78       1.0  0.85950  0.38260  0.08680  1.0000
  C   C79       1.0  0.38260  0.14050  0.91320  1.0000
  C   C80       1.0  0.14050  0.61740  0.08680  1.0000
  C   C81       1.0  0.22620  0.17870  0.26530  1.0000
  C   C82       1.0  0.17870  0.77380  0.73470  1.0000
  C   C83       1.0  0.77380  0.82130  0.26530  1.0000
  C   C84       1.0  0.82130  0.22620  0.73470  1.0000
  C   C85       1.0  0.22620  0.32130  0.98470  1.0000
  C   C86       1.0  0.32130  0.77380  0.01530  1.0000
  C   C87       1.0  0.77380  0.67870  0.98470  1.0000
  C   C88       1.0  0.67870  0.22620  0.01530  1.0000
  C   C89       1.0  0.72620  0.67870  0.76530  1.0000
  C   C90       1.0  0.67870  0.27380  0.23470  1.0000
  C   C91       1.0  0.27380  0.32130  0.76530  1.0000
  C   C92       1.0  0.32130  0.72620  0.23470  1.0000
  C   C93       1.0  0.72620  0.82130  0.48470  1.0000
  C   C94       1.0  0.82130  0.27380  0.51530  1.0000
  C   C95       1.0  0.27380  0.17870  0.48470  1.0000
  C   C96       1.0  0.17870  0.72620  0.51530  1.0000
  H   H65       1.0  0.24870  0.20430  0.30040  1.0000
  H   H66       1.0  0.20430  0.75130  0.69960  1.0000
  H   H67       1.0  0.75130  0.79570  0.30040  1.0000
  H   H68       1.0  0.79570  0.24870  0.69960  1.0000
  H   H69       1.0  0.24870  0.29570  0.94960  1.0000
  H   H70       1.0  0.29570  0.75130  0.05040  1.0000
  H   H71       1.0  0.75130  0.70430  0.94960  1.0000
  H   H72       1.0  0.70430  0.24870  0.05040  1.0000
  H   H73       1.0  0.74870  0.70430  0.80040  1.0000
  H   H74       1.0  0.70430  0.25130  0.19960  1.0000
  H   H75       1.0  0.25130  0.29570  0.80040  1.0000
  H   H76       1.0  0.29570  0.74870  0.19960  1.0000
  H   H77       1.0  0.74870  0.79570  0.44960  1.0000
  H   H78       1.0  0.79570  0.25130  0.55040  1.0000
  H   H79       1.0  0.25130  0.20430  0.44960  1.0000
  H   H80       1.0  0.20430  0.74870  0.55040  1.0000
  C   C97       1.0  0.24840  0.11710  0.24810  1.0000
  C   C98       1.0  0.11710  0.75160  0.75190  1.0000
  C   C99       1.0  0.75160  0.88290  0.24810  1.0000
  C   C100      1.0  0.88290  0.24840  0.75190  1.0000
  C   C101      1.0  0.24840  0.38290  0.00190  1.0000
  C   C102      1.0  0.38290  0.75160  0.99810  1.0000
  C   C103      1.0  0.75160  0.61710  0.00190  1.0000
  C   C104      1.0  0.61710  0.24840  0.99810  1.0000
  C   C105      1.0  0.74840  0.61710  0.74810  1.0000
  C   C106      1.0  0.61710  0.25160  0.25190  1.0000
  C   C107      1.0  0.25160  0.38290  0.74810  1.0000
  C   C108      1.0  0.38290  0.74840  0.25190  1.0000
  C   C109      1.0  0.74840  0.88290  0.50190  1.0000
  C   C110      1.0  0.88290  0.25160  0.49810  1.0000
  C   C111      1.0  0.25160  0.11710  0.50190  1.0000
  C   C112      1.0  0.11710  0.74840  0.49810  1.0000
  H   H81       1.0  0.28390  0.10250  0.27490  1.0000
  H   H82       1.0  0.10250  0.71610  0.72510  1.0000
  H   H83       1.0  0.71610  0.89750  0.27490  1.0000
  H   H84       1.0  0.89750  0.28390  0.72510  1.0000
  H   H85       1.0  0.28390  0.39750  0.97510  1.0000
  H   H86       1.0  0.39750  0.71610  0.02490  1.0000
  H   H87       1.0  0.71610  0.60250  0.97510  1.0000
  H   H88       1.0  0.60250  0.28390  0.02490  1.0000
  H   H89       1.0  0.78390  0.60250  0.77490  1.0000
  H   H90       1.0  0.60250  0.21610  0.22510  1.0000
  H   H91       1.0  0.21610  0.39750  0.77490  1.0000
  H   H92       1.0  0.39750  0.78390  0.22510  1.0000
  H   H93       1.0  0.78390  0.89750  0.47510  1.0000
  H   H94       1.0  0.89750  0.21610  0.52490  1.0000
  H   H95       1.0  0.21610  0.10250  0.47510  1.0000
  H   H96       1.0  0.10250  0.78390  0.52490  1.0000
  C   C113      1.0  0.09970  0.19550  0.79610  1.0000
  C   C114      1.0  0.19550  0.90030  0.20390  1.0000
  C   C115      1.0  0.90030  0.80450  0.79610  1.0000
  C   C116      1.0  0.80450  0.09970  0.20390  1.0000
  C   C117      1.0  0.09970  0.30450  0.45390  1.0000
  C   C118      1.0  0.30450  0.90030  0.54610  1.0000
  C   C119      1.0  0.90030  0.69550  0.45390  1.0000
  C   C120      1.0  0.69550  0.09970  0.54610  1.0000
  C   C121      1.0  0.59970  0.69550  0.29610  1.0000
  C   C122      1.0  0.69550  0.40030  0.70390  1.0000
  C   C123      1.0  0.40030  0.30450  0.29610  1.0000
  C   C124      1.0  0.30450  0.59970  0.70390  1.0000
  C   C125      1.0  0.59970  0.80450  0.95390  1.0000
  C   C126      1.0  0.80450  0.40030  0.04610  1.0000
  C   C127      1.0  0.40030  0.19550  0.95390  1.0000
  C   C128      1.0  0.19550  0.59970  0.04610  1.0000
  H   H97       1.0  0.06250  0.21620  0.80830  1.0000
  H   H98       1.0  0.21620  0.93750  0.19170  1.0000
  H   H99       1.0  0.93750  0.78380  0.80830  1.0000
  H   H100      1.0  0.78380  0.06250  0.19170  1.0000
  H   H101      1.0  0.06250  0.28380  0.44170  1.0000
  H   H102      1.0  0.28380  0.93750  0.55830  1.0000
  H   H103      1.0  0.93750  0.71620  0.44170  1.0000
  H   H104      1.0  0.71620  0.06250  0.55830  1.0000
  H   H105      1.0  0.56250  0.71620  0.30830  1.0000
  H   H106      1.0  0.71620  0.43750  0.69170  1.0000
  H   H107      1.0  0.43750  0.28380  0.30830  1.0000
  H   H108      1.0  0.28380  0.56250  0.69170  1.0000
  H   H109      1.0  0.56250  0.78380  0.94170  1.0000
  H   H110      1.0  0.78380  0.43750  0.05830  1.0000
  H   H111      1.0  0.43750  0.21620  0.94170  1.0000
  H   H112      1.0  0.21620  0.56250  0.05830  1.0000
  C   C129      1.0  0.14150  0.16200  0.17420  1.0000
  C   C130      1.0  0.16200  0.85850  0.82580  1.0000
  C   C131      1.0  0.85850  0.83800  0.17420  1.0000
  C   C132      1.0  0.83800  0.14150  0.82580  1.0000
  C   C133      1.0  0.14150  0.33800  0.07580  1.0000
  C   C134      1.0  0.33800  0.85850  0.92420  1.0000
  C   C135      1.0  0.85850  0.66200  0.07580  1.0000
  C   C136      1.0  0.66200  0.14150  0.92420  1.0000
  C   C137      1.0  0.64150  0.66200  0.67420  1.0000
  C   C138      1.0  0.66200  0.35850  0.32580  1.0000
  C   C139      1.0  0.35850  0.33800  0.67420  1.0000
  C   C140      1.0  0.33800  0.64150  0.32580  1.0000
  C   C141      1.0  0.64150  0.83800  0.57580  1.0000
  C   C142      1.0  0.83800  0.35850  0.42420  1.0000
  C   C143      1.0  0.35850  0.16200  0.57580  1.0000
  C   C144      1.0  0.16200  0.64150  0.42420  1.0000
  C   C145      1.0  0.17310  0.10910  0.81720  1.0000
  C   C146      1.0  0.10910  0.82690  0.18280  1.0000
  C   C147      1.0  0.82690  0.89090  0.81720  1.0000
  C   C148      1.0  0.89090  0.17310  0.18280  1.0000
  C   C149      1.0  0.17310  0.39090  0.43280  1.0000
  C   C150      1.0  0.39090  0.82690  0.56720  1.0000
  C   C151      1.0  0.82690  0.60910  0.43280  1.0000
  C   C152      1.0  0.60910  0.17310  0.56720  1.0000
  C   C153      1.0  0.67310  0.60910  0.31720  1.0000
  C   C154      1.0  0.60910  0.32690  0.68280  1.0000
  C   C155      1.0  0.32690  0.39090  0.31720  1.0000
  C   C156      1.0  0.39090  0.67310  0.68280  1.0000
  C   C157      1.0  0.67310  0.89090  0.93280  1.0000
  C   C158      1.0  0.89090  0.32690  0.06720  1.0000
  C   C159      1.0  0.32690  0.10910  0.93280  1.0000
  C   C160      1.0  0.10910  0.67310  0.06720  1.0000
  C   C161      1.0  0.16410  0.10270  0.15460  1.0000
  C   C162      1.0  0.10270  0.83590  0.84540  1.0000
  C   C163      1.0  0.83590  0.89730  0.15460  1.0000
  C   C164      1.0  0.89730  0.16410  0.84540  1.0000
  C   C165      1.0  0.16410  0.39730  0.09540  1.0000
  C   C166      1.0  0.39730  0.83590  0.90460  1.0000
  C   C167      1.0  0.83590  0.60270  0.09540  1.0000
  C   C168      1.0  0.60270  0.16410  0.90460  1.0000
  C   C169      1.0  0.66410  0.60270  0.65460  1.0000
  C   C170      1.0  0.60270  0.33590  0.34540  1.0000
  C   C171      1.0  0.33590  0.39730  0.65460  1.0000
  C   C172      1.0  0.39730  0.66410  0.34540  1.0000
  C   C173      1.0  0.66410  0.89730  0.59540  1.0000
  C   C174      1.0  0.89730  0.33590  0.40460  1.0000
  C   C175      1.0  0.33590  0.10270  0.59540  1.0000
  C   C176      1.0  0.10270  0.66410  0.40460  1.0000
  C   C177      1.0  0.21880  0.07770  0.19230  1.0000
  C   C178      1.0  0.07770  0.78120  0.80770  1.0000
  C   C179      1.0  0.78120  0.92230  0.19230  1.0000
  C   C180      1.0  0.92230  0.21880  0.80770  1.0000
  C   C181      1.0  0.21880  0.42230  0.05770  1.0000
  C   C182      1.0  0.42230  0.78120  0.94230  1.0000
  C   C183      1.0  0.78120  0.57770  0.05770  1.0000
  C   C184      1.0  0.57770  0.21880  0.94230  1.0000
  C   C185      1.0  0.71880  0.57770  0.69230  1.0000
  C   C186      1.0  0.57770  0.28120  0.30770  1.0000
  C   C187      1.0  0.28120  0.42230  0.69230  1.0000
  C   C188      1.0  0.42230  0.71880  0.30770  1.0000
  C   C189      1.0  0.71880  0.92230  0.55770  1.0000
  C   C190      1.0  0.92230  0.28120  0.44230  1.0000
  C   C191      1.0  0.28120  0.07770  0.55770  1.0000
  C   C192      1.0  0.07770  0.71880  0.44230  1.0000
  H   H113      1.0  0.23380  0.03770  0.18050  1.0000
  H   H114      1.0  0.03770  0.76620  0.81950  1.0000
  H   H115      1.0  0.76620  0.96230  0.18050  1.0000
  H   H116      1.0  0.96230  0.23380  0.81950  1.0000
  H   H117      1.0  0.23380  0.46230  0.06950  1.0000
  H   H118      1.0  0.46230  0.76620  0.93050  1.0000
  H   H119      1.0  0.76620  0.53770  0.06950  1.0000
  H   H120      1.0  0.53770  0.23380  0.93050  1.0000
  H   H121      1.0  0.73380  0.53770  0.68050  1.0000
  H   H122      1.0  0.53770  0.26620  0.31950  1.0000
  H   H123      1.0  0.26620  0.46230  0.68050  1.0000
  H   H124      1.0  0.46230  0.73380  0.31950  1.0000
  H   H125      1.0  0.73380  0.96230  0.56950  1.0000
  H   H126      1.0  0.96230  0.26620  0.43050  1.0000
  H   H127      1.0  0.26620  0.03770  0.56950  1.0000
  H   H128      1.0  0.03770  0.73380  0.43050  1.0000
