data_image0
_chemical_formula_structural       Cu8O20N4O8N8C4H4C4N4C8H4C4H4C4H4C4H8C8H8C4H4C4H4C4H4C4H4C8H4C4H4C4H4
_chemical_formula_sum              "Cu8 O28 N16 C68 H60"
_cell_length_a       6.8073
_cell_length_b       14.5179
_cell_length_c       26.7825
_cell_angle_alpha    90
_cell_angle_beta     90
_cell_angle_gamma    90

_space_group_name_H-M_alt    "P 1"
_space_group_IT_number       1

loop_
  _space_group_symop_operation_xyz
  'x, y, z'

loop_
  _atom_site_type_symbol
  _atom_site_label
  _atom_site_symmetry_multiplicity
  _atom_site_fract_x
  _atom_site_fract_y
  _atom_site_fract_z
  _atom_site_occupancy
  Cu  Cu1       1.0  0.30750  0.19504  0.29959  1.0000
  Cu  Cu2       1.0  0.19250  0.80496  0.79959  1.0000
  Cu  Cu3       1.0  0.80750  0.30496  0.70041  1.0000
  Cu  Cu4       1.0  0.69250  0.69504  0.20041  1.0000
  Cu  Cu5       1.0  0.20583  0.99193  0.24378  1.0000
  Cu  Cu6       1.0  0.29417  0.00807  0.74378  1.0000
  Cu  Cu7       1.0  0.70583  0.50807  0.75622  1.0000
  Cu  Cu8       1.0  0.79417  0.49193  0.25622  1.0000
  O   O1        1.0  0.55790  0.03519  0.35614  1.0000
  O   O2        1.0  0.94210  0.96481  0.85614  1.0000
  O   O3        1.0  0.05790  0.46481  0.64386  1.0000
  O   O4        1.0  0.44210  0.53519  0.14386  1.0000
  O   O5        1.0  0.39470  0.15295  0.44920  1.0000
  O   O6        1.0  0.10530  0.84705  0.94920  1.0000
  O   O7        1.0  0.89470  0.34705  0.55080  1.0000
  O   O8        1.0  0.60530  0.65295  0.05080  1.0000
  O   O9        1.0  0.34310  0.18832  0.14791  1.0000
  O   O10       1.0  0.15690  0.81168  0.64791  1.0000
  O   O11       1.0  0.84310  0.31168  0.85209  1.0000
  O   O12       1.0  0.65690  0.68832  0.35209  1.0000
  O   O13       1.0  0.15080  0.86725  0.37458  1.0000
  O   O14       1.0  0.34920  0.13275  0.87458  1.0000
  O   O15       1.0  0.65080  0.63275  0.62542  1.0000
  O   O16       1.0  0.84920  0.36725  0.12542  1.0000
  O   O17       1.0  0.21380  0.07166  0.30116  1.0000
  O   O18       1.0  0.28620  0.92834  0.80116  1.0000
  O   O19       1.0  0.71380  0.42834  0.69884  1.0000
  O   O20       1.0  0.78620  0.57166  0.19884  1.0000
  N   N1        1.0  0.32640  0.20773  0.37092  1.0000
  N   N2        1.0  0.17360  0.79227  0.87092  1.0000
  N   N3        1.0  0.82640  0.29227  0.62908  1.0000
  N   N4        1.0  0.67360  0.70773  0.12908  1.0000
  O   O21       1.0  0.19990  0.08152  0.19287  1.0000
  O   O22       1.0  0.30010  0.91848  0.69287  1.0000
  O   O23       1.0  0.69990  0.41848  0.80713  1.0000
  O   O24       1.0  0.80010  0.58152  0.30713  1.0000
  O   O25       1.0  0.36630  0.19577  0.22969  1.0000
  O   O26       1.0  0.13370  0.80423  0.72969  1.0000
  O   O27       1.0  0.86630  0.30423  0.77031  1.0000
  O   O28       1.0  0.63370  0.69577  0.27031  1.0000
  N   N5        1.0  0.19870  0.89641  0.29165  1.0000
  N   N6        1.0  0.30130  0.10359  0.79165  1.0000
  N   N7        1.0  0.69870  0.60359  0.70835  1.0000
  N   N8        1.0  0.80130  0.39641  0.20835  1.0000
  N   N9        1.0  0.31830  0.33263  0.30129  1.0000
  N   N10       1.0  0.18170  0.66737  0.80129  1.0000
  N   N11       1.0  0.81830  0.16737  0.69871  1.0000
  N   N12       1.0  0.68170  0.83263  0.19871  1.0000
  C   C1        1.0  0.20090  0.02365  0.34728  1.0000
  C   C2        1.0  0.29910  0.97635  0.84728  1.0000
  C   C3        1.0  0.70090  0.47635  0.65272  1.0000
  C   C4        1.0  0.79910  0.52365  0.15272  1.0000
  H   H1        1.0  0.08140  0.04410  0.36440  1.0000
  H   H2        1.0  0.41860  0.95590  0.86440  1.0000
  H   H3        1.0  0.58140  0.45590  0.63560  1.0000
  H   H4        1.0  0.91860  0.54410  0.13560  1.0000
  C   C5        1.0  0.31300  0.36909  0.34784  1.0000
  C   C6        1.0  0.18700  0.63091  0.84784  1.0000
  C   C7        1.0  0.81300  0.13091  0.65216  1.0000
  C   C8        1.0  0.68700  0.86909  0.15216  1.0000
  N   N13       1.0  0.18810  0.88558  0.19622  1.0000
  N   N14       1.0  0.31190  0.11442  0.69622  1.0000
  N   N15       1.0  0.68810  0.61442  0.80378  1.0000
  N   N16       1.0  0.81190  0.38558  0.30378  1.0000
  C   C9        1.0  0.18400  0.92006  0.33834  1.0000
  C   C10       1.0  0.31600  0.07994  0.83834  1.0000
  C   C11       1.0  0.68400  0.57994  0.66166  1.0000
  C   C12       1.0  0.81600  0.42006  0.16166  1.0000
  C   C13       1.0  0.30140  0.46420  0.35494  1.0000
  C   C14       1.0  0.19860  0.53580  0.85494  1.0000
  C   C15       1.0  0.80140  0.03580  0.64506  1.0000
  C   C16       1.0  0.69860  0.96420  0.14506  1.0000
  H   H5        1.0  0.29680  0.48860  0.38700  1.0000
  H   H6        1.0  0.20320  0.51140  0.88700  1.0000
  H   H7        1.0  0.79680  0.01140  0.61300  1.0000
  H   H8        1.0  0.70320  0.98860  0.11300  1.0000
  C   C17       1.0  0.31870  0.39030  0.26178  1.0000
  C   C18       1.0  0.18130  0.60970  0.76178  1.0000
  C   C19       1.0  0.81870  0.10970  0.73822  1.0000
  C   C20       1.0  0.68130  0.89030  0.23822  1.0000
  H   H9        1.0  0.32470  0.36520  0.22990  1.0000
  H   H10       1.0  0.17530  0.63480  0.72990  1.0000
  H   H11       1.0  0.82470  0.13480  0.77010  1.0000
  H   H12       1.0  0.67530  0.86520  0.27010  1.0000
  C   C21       1.0  0.18700  0.89260  0.14600  1.0000
  C   C22       1.0  0.31300  0.10740  0.64600  1.0000
  C   C23       1.0  0.68700  0.60740  0.85400  1.0000
  C   C24       1.0  0.81300  0.39260  0.35400  1.0000
  H   H13       1.0  0.19190  0.95050  0.13120  1.0000
  H   H14       1.0  0.30810  0.04950  0.63120  1.0000
  H   H15       1.0  0.69190  0.54950  0.86880  1.0000
  H   H16       1.0  0.80810  0.45050  0.36880  1.0000
  C   C25       1.0  0.18310  0.80200  0.27493  1.0000
  C   C26       1.0  0.31690  0.19800  0.77493  1.0000
  C   C27       1.0  0.68310  0.69800  0.72507  1.0000
  C   C28       1.0  0.81690  0.30200  0.22507  1.0000
  H   H17       1.0  0.06300  0.77450  0.28750  1.0000
  H   H18       1.0  0.43700  0.22550  0.78750  1.0000
  H   H19       1.0  0.56300  0.72550  0.71250  1.0000
  H   H20       1.0  0.93700  0.27450  0.21250  1.0000
  H   H21       1.0  0.29360  0.76630  0.28720  1.0000
  H   H22       1.0  0.20640  0.23370  0.78720  1.0000
  H   H23       1.0  0.79360  0.73370  0.71280  1.0000
  H   H24       1.0  0.70640  0.26630  0.21280  1.0000
  C   C29       1.0  0.36710  0.14140  0.40270  1.0000
  C   C30       1.0  0.13290  0.85860  0.90270  1.0000
  C   C31       1.0  0.86710  0.35860  0.59730  1.0000
  C   C32       1.0  0.63290  0.64140  0.09730  1.0000
  C   C33       1.0  0.32200  0.30197  0.39033  1.0000
  C   C34       1.0  0.17800  0.69803  0.89033  1.0000
  C   C35       1.0  0.82200  0.19803  0.60967  1.0000
  C   C36       1.0  0.67800  0.80197  0.10967  1.0000
  H   H25       1.0  0.43880  0.31340  0.41010  1.0000
  H   H26       1.0  0.06120  0.68660  0.91010  1.0000
  H   H27       1.0  0.93880  0.18660  0.58990  1.0000
  H   H28       1.0  0.56120  0.81340  0.08990  1.0000
  H   H29       1.0  0.20810  0.31000  0.41170  1.0000
  H   H30       1.0  0.29190  0.69000  0.91170  1.0000
  H   H31       1.0  0.70810  0.19000  0.58830  1.0000
  H   H32       1.0  0.79190  0.81000  0.08830  1.0000
  C   C37       1.0  0.31060  0.48420  0.26654  1.0000
  C   C38       1.0  0.18940  0.51580  0.76654  1.0000
  C   C39       1.0  0.81060  0.01580  0.73346  1.0000
  C   C40       1.0  0.68940  0.98420  0.23346  1.0000
  H   H33       1.0  0.31440  0.52230  0.23860  1.0000
  H   H34       1.0  0.18560  0.47770  0.73860  1.0000
  H   H35       1.0  0.81440  0.97770  0.76140  1.0000
  H   H36       1.0  0.68560  0.02230  0.26140  1.0000
  C   C41       1.0  0.37650  0.04419  0.38147  1.0000
  C   C42       1.0  0.12350  0.95581  0.88147  1.0000
  C   C43       1.0  0.87650  0.45581  0.61853  1.0000
  C   C44       1.0  0.62350  0.54419  0.11853  1.0000
  H   H37       1.0  0.37450  0.00040  0.40930  1.0000
  H   H38       1.0  0.12550  0.99960  0.90930  1.0000
  H   H39       1.0  0.87450  0.49960  0.59070  1.0000
  H   H40       1.0  0.62550  0.50040  0.09070  1.0000
  C   C45       1.0  0.17420  0.72300  0.18994  1.0000
  C   C46       1.0  0.32580  0.27700  0.68994  1.0000
  C   C47       1.0  0.67420  0.77700  0.81006  1.0000
  C   C48       1.0  0.82580  0.22300  0.31006  1.0000
  H   H41       1.0  0.16780  0.66590  0.20560  1.0000
  H   H42       1.0  0.33220  0.33410  0.70560  1.0000
  H   H43       1.0  0.66780  0.83410  0.79440  1.0000
  H   H44       1.0  0.83220  0.16590  0.29440  1.0000
  C   C49       1.0  0.17630  0.72860  0.13854  1.0000
  C   C50       1.0  0.32370  0.27140  0.63854  1.0000
  C   C51       1.0  0.67630  0.77140  0.86146  1.0000
  C   C52       1.0  0.82370  0.22860  0.36146  1.0000
  H   H45       1.0  0.17610  0.67530  0.11930  1.0000
  H   H46       1.0  0.32390  0.32470  0.61930  1.0000
  H   H47       1.0  0.67610  0.82470  0.88070  1.0000
  H   H48       1.0  0.82390  0.17530  0.38070  1.0000
  C   C53       1.0  0.30320  0.15482  0.19050  1.0000
  C   C54       1.0  0.19680  0.84518  0.69050  1.0000
  C   C55       1.0  0.80320  0.34518  0.80950  1.0000
  C   C56       1.0  0.69680  0.65482  0.30950  1.0000
  C   C57       1.0  0.29670  0.52100  0.31439  1.0000
  C   C58       1.0  0.20330  0.47900  0.81439  1.0000
  C   C59       1.0  0.79670  0.97900  0.68561  1.0000
  C   C60       1.0  0.70330  0.02100  0.18561  1.0000
  H   H49       1.0  0.28430  0.58430  0.31870  1.0000
  H   H50       1.0  0.21570  0.41570  0.81870  1.0000
  H   H51       1.0  0.78430  0.91570  0.68130  1.0000
  H   H52       1.0  0.71570  0.08430  0.18130  1.0000
  C   C61       1.0  0.17860  0.81400  0.11607  1.0000
  C   C62       1.0  0.32140  0.18600  0.61607  1.0000
  C   C63       1.0  0.67860  0.68600  0.88393  1.0000
  C   C64       1.0  0.82140  0.31400  0.38393  1.0000
  H   H53       1.0  0.17460  0.81920  0.08150  1.0000
  H   H54       1.0  0.32540  0.18080  0.58150  1.0000
  H   H55       1.0  0.67460  0.68080  0.91850  1.0000
  H   H56       1.0  0.82540  0.31920  0.41850  1.0000
  C   C65       1.0  0.18170  0.80230  0.21780  1.0000
  C   C66       1.0  0.31830  0.19770  0.71780  1.0000
  C   C67       1.0  0.68170  0.69770  0.78220  1.0000
  C   C68       1.0  0.81830  0.30230  0.28220  1.0000
  H   H57       1.0  0.60400  0.97170  0.35410  1.0000
  H   H58       1.0  0.89600  0.02830  0.85410  1.0000
  H   H59       1.0  0.10400  0.52830  0.64590  1.0000
  H   H60       1.0  0.39600  0.47170  0.14590  1.0000
