data_image0
_chemical_formula_structural       Mg2O12C12O12H12Mg2
_chemical_formula_sum              "Mg4 O24 C12 H12"
_cell_length_a       8.1489
_cell_length_b       8.1489
_cell_length_c       15.5553
_cell_angle_alpha    90
_cell_angle_beta     90
_cell_angle_gamma    120

_space_group_name_H-M_alt    "P 1"
_space_group_IT_number       1

loop_
  _space_group_symop_operation_xyz
  'x, y, z'

loop_
  _atom_site_type_symbol
  _atom_site_label
  _atom_site_symmetry_multiplicity
  _atom_site_fract_x
  _atom_site_fract_y
  _atom_site_fract_z
  _atom_site_occupancy
  Mg  Mg1       1.0  0.00000  0.00000  0.00000  1.0000
  Mg  Mg2       1.0  0.00000  0.00000  0.50000  1.0000
  O   O1        1.0  0.20624  0.21887  0.07681  1.0000
  O   O2        1.0  0.78113  0.98737  0.07681  1.0000
  O   O3        1.0  0.01263  0.79376  0.07681  1.0000
  O   O4        1.0  0.78113  0.79376  0.42319  1.0000
  O   O5        1.0  0.01263  0.21887  0.42319  1.0000
  O   O6        1.0  0.20624  0.98737  0.42319  1.0000
  O   O7        1.0  0.79376  0.78113  0.92319  1.0000
  O   O8        1.0  0.21887  0.01263  0.92319  1.0000
  O   O9        1.0  0.98737  0.20624  0.92319  1.0000
  O   O10       1.0  0.21887  0.20624  0.57681  1.0000
  O   O11       1.0  0.98737  0.78113  0.57681  1.0000
  O   O12       1.0  0.79376  0.01263  0.57681  1.0000
  C   C1        1.0  0.19680  0.31950  0.13337  1.0000
  C   C2        1.0  0.68050  0.87730  0.13337  1.0000
  C   C3        1.0  0.12270  0.80320  0.13337  1.0000
  C   C4        1.0  0.68050  0.80320  0.36663  1.0000
  C   C5        1.0  0.12270  0.31950  0.36663  1.0000
  C   C6        1.0  0.19680  0.87730  0.36663  1.0000
  C   C7        1.0  0.80320  0.68050  0.86663  1.0000
  C   C8        1.0  0.31950  0.12270  0.86663  1.0000
  C   C9        1.0  0.87730  0.19680  0.86663  1.0000
  C   C10       1.0  0.31950  0.19680  0.63337  1.0000
  C   C11       1.0  0.87730  0.68050  0.63337  1.0000
  C   C12       1.0  0.80320  0.12270  0.63337  1.0000
  O   O13       1.0  0.32819  0.45594  0.17040  1.0000
  O   O14       1.0  0.54406  0.87225  0.17040  1.0000
  O   O15       1.0  0.12775  0.67181  0.17040  1.0000
  O   O16       1.0  0.54406  0.67181  0.32960  1.0000
  O   O17       1.0  0.12775  0.45594  0.32960  1.0000
  O   O18       1.0  0.32819  0.87225  0.32960  1.0000
  O   O19       1.0  0.67181  0.54406  0.82960  1.0000
  O   O20       1.0  0.45594  0.12775  0.82960  1.0000
  O   O21       1.0  0.87225  0.32819  0.82960  1.0000
  O   O22       1.0  0.45594  0.32819  0.67040  1.0000
  O   O23       1.0  0.87225  0.54406  0.67040  1.0000
  O   O24       1.0  0.67181  0.12775  0.67040  1.0000
  H   H1        1.0  0.07530  0.28900  0.15030  1.0000
  H   H2        1.0  0.71100  0.78630  0.15030  1.0000
  H   H3        1.0  0.21370  0.92470  0.15030  1.0000
  H   H4        1.0  0.71100  0.92470  0.34970  1.0000
  H   H5        1.0  0.21370  0.28900  0.34970  1.0000
  H   H6        1.0  0.07530  0.78630  0.34970  1.0000
  H   H7        1.0  0.92470  0.71100  0.84970  1.0000
  H   H8        1.0  0.28900  0.21370  0.84970  1.0000
  H   H9        1.0  0.78630  0.07530  0.84970  1.0000
  H   H10       1.0  0.28900  0.07530  0.65030  1.0000
  H   H11       1.0  0.78630  0.71100  0.65030  1.0000
  H   H12       1.0  0.92470  0.21370  0.65030  1.0000
  Mg  Mg3       1.0  0.33330  0.66670  0.25000  1.0000
  Mg  Mg4       1.0  0.66670  0.33330  0.75000  1.0000
