data_image0
_chemical_formula_structural       Mg8O48C8H8C8H8C8H8
_chemical_formula_sum              "Mg8 O48 C24 H24"
_cell_length_a       7.8115
_cell_length_b       14.4912
_cell_length_c       15.6298
_cell_angle_alpha    90
_cell_angle_beta     91.139
_cell_angle_gamma    90

_space_group_name_H-M_alt    "P 1"
_space_group_IT_number       1

loop_
  _space_group_symop_operation_xyz
  'x, y, z'

loop_
  _atom_site_type_symbol
  _atom_site_label
  _atom_site_symmetry_multiplicity
  _atom_site_fract_x
  _atom_site_fract_y
  _atom_site_fract_z
  _atom_site_occupancy
  Mg  Mg1       1.0  0.00000  0.00000  0.00000  1.0000
  Mg  Mg2       1.0  0.00000  0.00000  0.50000  1.0000
  Mg  Mg3       1.0  0.50000  0.50000  0.00000  1.0000
  Mg  Mg4       1.0  0.50000  0.50000  0.50000  1.0000
  Mg  Mg5       1.0  0.00000  0.32371  0.25000  1.0000
  Mg  Mg6       1.0  0.50000  0.82371  0.25000  1.0000
  Mg  Mg7       1.0  0.00000  0.67629  0.75000  1.0000
  Mg  Mg8       1.0  0.50000  0.17629  0.75000  1.0000
  O   O1        1.0  0.10956  0.10067  0.08320  1.0000
  O   O2        1.0  0.89044  0.10067  0.41680  1.0000
  O   O3        1.0  0.60956  0.60067  0.08320  1.0000
  O   O4        1.0  0.39044  0.60067  0.41680  1.0000
  O   O5        1.0  0.89044  0.89933  0.91680  1.0000
  O   O6        1.0  0.10956  0.89933  0.58320  1.0000
  O   O7        1.0  0.39044  0.39933  0.91680  1.0000
  O   O8        1.0  0.60956  0.39933  0.58320  1.0000
  O   O9        1.0  0.10634  0.21989  0.17354  1.0000
  O   O10       1.0  0.89366  0.21989  0.32646  1.0000
  O   O11       1.0  0.60634  0.71989  0.17354  1.0000
  O   O12       1.0  0.39366  0.71989  0.32646  1.0000
  O   O13       1.0  0.89366  0.78011  0.82646  1.0000
  O   O14       1.0  0.10634  0.78011  0.67354  1.0000
  O   O15       1.0  0.39366  0.28011  0.82646  1.0000
  O   O16       1.0  0.60634  0.28011  0.67354  1.0000
  O   O17       1.0  0.21159  0.32958  0.33096  1.0000
  O   O18       1.0  0.78841  0.32958  0.16904  1.0000
  O   O19       1.0  0.71159  0.82958  0.33096  1.0000
  O   O20       1.0  0.28841  0.82958  0.16904  1.0000
  O   O21       1.0  0.78841  0.67042  0.66904  1.0000
  O   O22       1.0  0.21159  0.67042  0.83096  1.0000
  O   O23       1.0  0.28841  0.17042  0.66904  1.0000
  O   O24       1.0  0.71159  0.17042  0.83096  1.0000
  O   O25       1.0  0.37572  0.39769  0.43064  1.0000
  O   O26       1.0  0.62428  0.39769  0.06936  1.0000
  O   O27       1.0  0.87572  0.89769  0.43064  1.0000
  O   O28       1.0  0.12428  0.89769  0.06936  1.0000
  O   O29       1.0  0.62428  0.60231  0.56936  1.0000
  O   O30       1.0  0.37572  0.60231  0.93064  1.0000
  O   O31       1.0  0.12428  0.10231  0.56936  1.0000
  O   O32       1.0  0.87572  0.10231  0.93064  1.0000
  O   O33       1.0  0.10644  0.42564  0.17019  1.0000
  O   O34       1.0  0.89356  0.42564  0.32981  1.0000
  O   O35       1.0  0.60644  0.92564  0.17019  1.0000
  O   O36       1.0  0.39356  0.92564  0.32981  1.0000
  O   O37       1.0  0.89356  0.57436  0.82981  1.0000
  O   O38       1.0  0.10644  0.57436  0.67019  1.0000
  O   O39       1.0  0.39356  0.07436  0.82981  1.0000
  O   O40       1.0  0.60644  0.07436  0.67019  1.0000
  O   O41       1.0  0.27855  0.48928  0.07567  1.0000
  O   O42       1.0  0.72145  0.48928  0.42433  1.0000
  O   O43       1.0  0.77855  0.98928  0.07567  1.0000
  O   O44       1.0  0.22145  0.98928  0.42433  1.0000
  O   O45       1.0  0.72145  0.51072  0.92433  1.0000
  O   O46       1.0  0.27855  0.51072  0.57567  1.0000
  O   O47       1.0  0.22145  0.01072  0.92433  1.0000
  O   O48       1.0  0.77855  0.01072  0.57567  1.0000
  C   C1        1.0  0.03607  0.15855  0.12993  1.0000
  C   C2        1.0  0.96393  0.15855  0.37007  1.0000
  C   C3        1.0  0.53607  0.65855  0.12993  1.0000
  C   C4        1.0  0.46393  0.65855  0.37007  1.0000
  C   C5        1.0  0.96393  0.84145  0.87007  1.0000
  C   C6        1.0  0.03607  0.84145  0.62993  1.0000
  C   C7        1.0  0.46393  0.34145  0.87007  1.0000
  C   C8        1.0  0.53607  0.34145  0.62993  1.0000
  H   H1        1.0  0.91610  0.15500  0.13200  1.0000
  H   H2        1.0  0.08390  0.15500  0.36800  1.0000
  H   H3        1.0  0.41610  0.65500  0.13200  1.0000
  H   H4        1.0  0.58390  0.65500  0.36800  1.0000
  H   H5        1.0  0.08390  0.84500  0.86800  1.0000
  H   H6        1.0  0.91610  0.84500  0.63200  1.0000
  H   H7        1.0  0.58390  0.34500  0.86800  1.0000
  H   H8        1.0  0.41610  0.34500  0.63200  1.0000
  C   C9        1.0  0.28727  0.39719  0.36346  1.0000
  C   C10       1.0  0.71273  0.39719  0.13654  1.0000
  C   C11       1.0  0.78727  0.89719  0.36346  1.0000
  C   C12       1.0  0.21273  0.89719  0.13654  1.0000
  C   C13       1.0  0.71273  0.60281  0.63654  1.0000
  C   C14       1.0  0.28727  0.60281  0.86346  1.0000
  C   C15       1.0  0.21273  0.10281  0.63654  1.0000
  C   C16       1.0  0.78727  0.10281  0.86346  1.0000
  H   H9        1.0  0.27640  0.45360  0.33420  1.0000
  H   H10       1.0  0.72360  0.45360  0.16580  1.0000
  H   H11       1.0  0.77640  0.95360  0.33420  1.0000
  H   H12       1.0  0.22360  0.95360  0.16580  1.0000
  H   H13       1.0  0.72360  0.54640  0.66580  1.0000
  H   H14       1.0  0.27640  0.54640  0.83420  1.0000
  H   H15       1.0  0.22360  0.04640  0.66580  1.0000
  H   H16       1.0  0.77640  0.04640  0.83420  1.0000
  C   C17       1.0  0.24532  0.43170  0.13299  1.0000
  C   C18       1.0  0.75468  0.43170  0.36701  1.0000
  C   C19       1.0  0.74532  0.93170  0.13299  1.0000
  C   C20       1.0  0.25468  0.93170  0.36701  1.0000
  C   C21       1.0  0.75468  0.56830  0.86701  1.0000
  C   C22       1.0  0.24532  0.56830  0.63299  1.0000
  C   C23       1.0  0.25468  0.06830  0.86701  1.0000
  C   C24       1.0  0.74532  0.06830  0.63299  1.0000
  H   H17       1.0  0.33220  0.38990  0.14910  1.0000
  H   H18       1.0  0.66780  0.38990  0.35090  1.0000
  H   H19       1.0  0.83220  0.88990  0.14910  1.0000
  H   H20       1.0  0.16780  0.88990  0.35090  1.0000
  H   H21       1.0  0.66780  0.61010  0.85090  1.0000
  H   H22       1.0  0.33220  0.61010  0.64910  1.0000
  H   H23       1.0  0.16780  0.11010  0.85090  1.0000
  H   H24       1.0  0.83220  0.11010  0.64910  1.0000
