data_image0
_chemical_formula_structural       Mg8O48C8H8C8H8C8H8
_chemical_formula_sum              "Mg8 O48 C24 H24"
_cell_length_a       7.7918
_cell_length_b       14.5002
_cell_length_c       15.6169
_cell_angle_alpha    90
_cell_angle_beta     91.182
_cell_angle_gamma    90

_space_group_name_H-M_alt    "P 1"
_space_group_IT_number       1

loop_
  _space_group_symop_operation_xyz
  'x, y, z'

loop_
  _atom_site_type_symbol
  _atom_site_label
  _atom_site_symmetry_multiplicity
  _atom_site_fract_x
  _atom_site_fract_y
  _atom_site_fract_z
  _atom_site_occupancy
  Mg  Mg1       1.0  0.00000  0.00000  0.00000  1.0000
  Mg  Mg2       1.0  0.00000  0.00000  0.50000  1.0000
  Mg  Mg3       1.0  0.50000  0.50000  0.00000  1.0000
  Mg  Mg4       1.0  0.50000  0.50000  0.50000  1.0000
  Mg  Mg5       1.0  0.00000  0.32298  0.25000  1.0000
  Mg  Mg6       1.0  0.50000  0.82298  0.25000  1.0000
  Mg  Mg7       1.0  0.00000  0.67702  0.75000  1.0000
  Mg  Mg8       1.0  0.50000  0.17702  0.75000  1.0000
  O   O1        1.0  0.11107  0.09990  0.08342  1.0000
  O   O2        1.0  0.88893  0.09990  0.41658  1.0000
  O   O3        1.0  0.61107  0.59990  0.08342  1.0000
  O   O4        1.0  0.38893  0.59990  0.41658  1.0000
  O   O5        1.0  0.88893  0.90010  0.91658  1.0000
  O   O6        1.0  0.11107  0.90010  0.58342  1.0000
  O   O7        1.0  0.38893  0.40010  0.91658  1.0000
  O   O8        1.0  0.61107  0.40010  0.58342  1.0000
  O   O9        1.0  0.10744  0.21924  0.17389  1.0000
  O   O10       1.0  0.89256  0.21924  0.32611  1.0000
  O   O11       1.0  0.60744  0.71924  0.17389  1.0000
  O   O12       1.0  0.39256  0.71924  0.32611  1.0000
  O   O13       1.0  0.89256  0.78076  0.82611  1.0000
  O   O14       1.0  0.10744  0.78076  0.67389  1.0000
  O   O15       1.0  0.39256  0.28076  0.82611  1.0000
  O   O16       1.0  0.60744  0.28076  0.67389  1.0000
  O   O17       1.0  0.21095  0.32876  0.33163  1.0000
  O   O18       1.0  0.78905  0.32876  0.16837  1.0000
  O   O19       1.0  0.71095  0.82876  0.33163  1.0000
  O   O20       1.0  0.28905  0.82876  0.16837  1.0000
  O   O21       1.0  0.78905  0.67124  0.66837  1.0000
  O   O22       1.0  0.21095  0.67124  0.83163  1.0000
  O   O23       1.0  0.28905  0.17124  0.66837  1.0000
  O   O24       1.0  0.71095  0.17124  0.83163  1.0000
  O   O25       1.0  0.37520  0.39728  0.43152  1.0000
  O   O26       1.0  0.62480  0.39728  0.06848  1.0000
  O   O27       1.0  0.87520  0.89728  0.43152  1.0000
  O   O28       1.0  0.12480  0.89728  0.06848  1.0000
  O   O29       1.0  0.62480  0.60272  0.56848  1.0000
  O   O30       1.0  0.37520  0.60272  0.93152  1.0000
  O   O31       1.0  0.12480  0.10272  0.56848  1.0000
  O   O32       1.0  0.87520  0.10272  0.93152  1.0000
  O   O33       1.0  0.10673  0.42490  0.17059  1.0000
  O   O34       1.0  0.89327  0.42490  0.32941  1.0000
  O   O35       1.0  0.60673  0.92490  0.17059  1.0000
  O   O36       1.0  0.39327  0.92490  0.32941  1.0000
  O   O37       1.0  0.89327  0.57510  0.82941  1.0000
  O   O38       1.0  0.10673  0.57510  0.67059  1.0000
  O   O39       1.0  0.39327  0.07510  0.82941  1.0000
  O   O40       1.0  0.60673  0.07510  0.67059  1.0000
  O   O41       1.0  0.27845  0.48919  0.07589  1.0000
  O   O42       1.0  0.72155  0.48919  0.42411  1.0000
  O   O43       1.0  0.77845  0.98919  0.07589  1.0000
  O   O44       1.0  0.22155  0.98919  0.42411  1.0000
  O   O45       1.0  0.72155  0.51081  0.92411  1.0000
  O   O46       1.0  0.27845  0.51081  0.57589  1.0000
  O   O47       1.0  0.22155  0.01081  0.92411  1.0000
  O   O48       1.0  0.77845  0.01081  0.57589  1.0000
  C   C1        1.0  0.03651  0.15829  0.12969  1.0000
  C   C2        1.0  0.96349  0.15829  0.37031  1.0000
  C   C3        1.0  0.53651  0.65829  0.12969  1.0000
  C   C4        1.0  0.46349  0.65829  0.37031  1.0000
  C   C5        1.0  0.96349  0.84171  0.87031  1.0000
  C   C6        1.0  0.03651  0.84171  0.62969  1.0000
  C   C7        1.0  0.46349  0.34171  0.87031  1.0000
  C   C8        1.0  0.53651  0.34171  0.62969  1.0000
  H   H1        1.0  0.91480  0.15540  0.13090  1.0000
  H   H2        1.0  0.08520  0.15540  0.36910  1.0000
  H   H3        1.0  0.41480  0.65540  0.13090  1.0000
  H   H4        1.0  0.58520  0.65540  0.36910  1.0000
  H   H5        1.0  0.08520  0.84460  0.86910  1.0000
  H   H6        1.0  0.91480  0.84460  0.63090  1.0000
  H   H7        1.0  0.58520  0.34460  0.86910  1.0000
  H   H8        1.0  0.41480  0.34460  0.63090  1.0000
  C   C9        1.0  0.28686  0.39674  0.36381  1.0000
  C   C10       1.0  0.71314  0.39674  0.13619  1.0000
  C   C11       1.0  0.78686  0.89674  0.36381  1.0000
  C   C12       1.0  0.21314  0.89674  0.13619  1.0000
  C   C13       1.0  0.71314  0.60326  0.63619  1.0000
  C   C14       1.0  0.28686  0.60326  0.86381  1.0000
  C   C15       1.0  0.21314  0.10326  0.63619  1.0000
  C   C16       1.0  0.78686  0.10326  0.86381  1.0000
  H   H9        1.0  0.27640  0.45360  0.33390  1.0000
  H   H10       1.0  0.72360  0.45360  0.16610  1.0000
  H   H11       1.0  0.77640  0.95360  0.33390  1.0000
  H   H12       1.0  0.22360  0.95360  0.16610  1.0000
  H   H13       1.0  0.72360  0.54640  0.66610  1.0000
  H   H14       1.0  0.27640  0.54640  0.83390  1.0000
  H   H15       1.0  0.22360  0.04640  0.66610  1.0000
  H   H16       1.0  0.77640  0.04640  0.83390  1.0000
  C   C17       1.0  0.24635  0.43133  0.13350  1.0000
  C   C18       1.0  0.75365  0.43133  0.36650  1.0000
  C   C19       1.0  0.74635  0.93133  0.13350  1.0000
  C   C20       1.0  0.25365  0.93133  0.36650  1.0000
  C   C21       1.0  0.75365  0.56867  0.86650  1.0000
  C   C22       1.0  0.24635  0.56867  0.63350  1.0000
  C   C23       1.0  0.25365  0.06867  0.86650  1.0000
  C   C24       1.0  0.74635  0.06867  0.63350  1.0000
  H   H17       1.0  0.33500  0.38950  0.14990  1.0000
  H   H18       1.0  0.66500  0.38950  0.35010  1.0000
  H   H19       1.0  0.83500  0.88950  0.14990  1.0000
  H   H20       1.0  0.16500  0.88950  0.35010  1.0000
  H   H21       1.0  0.66500  0.61050  0.85010  1.0000
  H   H22       1.0  0.33500  0.61050  0.64990  1.0000
  H   H23       1.0  0.16500  0.11050  0.85010  1.0000
  H   H24       1.0  0.83500  0.11050  0.64990  1.0000
