data_image0
_chemical_formula_structural       Mg2O12C12O12H12Mg2
_chemical_formula_sum              "Mg4 O24 C12 H12"
_cell_length_a       8.1239
_cell_length_b       8.1239
_cell_length_c       15.5938
_cell_angle_alpha    90
_cell_angle_beta     90
_cell_angle_gamma    120

_space_group_name_H-M_alt    "P 1"
_space_group_IT_number       1

loop_
  _space_group_symop_operation_xyz
  'x, y, z'

loop_
  _atom_site_type_symbol
  _atom_site_label
  _atom_site_symmetry_multiplicity
  _atom_site_fract_x
  _atom_site_fract_y
  _atom_site_fract_z
  _atom_site_occupancy
  Mg  Mg1       1.0  0.00000  0.00000  0.00000  1.0000
  Mg  Mg2       1.0  0.00000  0.00000  0.50000  1.0000
  O   O1        1.0  0.20713  0.21891  0.07667  1.0000
  O   O2        1.0  0.78109  0.98822  0.07667  1.0000
  O   O3        1.0  0.01178  0.79287  0.07667  1.0000
  O   O4        1.0  0.78109  0.79287  0.42333  1.0000
  O   O5        1.0  0.01178  0.21891  0.42333  1.0000
  O   O6        1.0  0.20713  0.98822  0.42333  1.0000
  O   O7        1.0  0.79287  0.78109  0.92333  1.0000
  O   O8        1.0  0.21891  0.01178  0.92333  1.0000
  O   O9        1.0  0.98822  0.20713  0.92333  1.0000
  O   O10       1.0  0.21891  0.20713  0.57667  1.0000
  O   O11       1.0  0.98822  0.78109  0.57667  1.0000
  O   O12       1.0  0.79287  0.01178  0.57667  1.0000
  C   C1        1.0  0.19660  0.31890  0.13360  1.0000
  C   C2        1.0  0.68110  0.87770  0.13360  1.0000
  C   C3        1.0  0.12230  0.80340  0.13360  1.0000
  C   C4        1.0  0.68110  0.80340  0.36640  1.0000
  C   C5        1.0  0.12230  0.31890  0.36640  1.0000
  C   C6        1.0  0.19660  0.87770  0.36640  1.0000
  C   C7        1.0  0.80340  0.68110  0.86640  1.0000
  C   C8        1.0  0.31890  0.12230  0.86640  1.0000
  C   C9        1.0  0.87770  0.19660  0.86640  1.0000
  C   C10       1.0  0.31890  0.19660  0.63360  1.0000
  C   C11       1.0  0.87770  0.68110  0.63360  1.0000
  C   C12       1.0  0.80340  0.12230  0.63360  1.0000
  O   O13       1.0  0.32911  0.45618  0.17055  1.0000
  O   O14       1.0  0.54382  0.87293  0.17055  1.0000
  O   O15       1.0  0.12707  0.67089  0.17055  1.0000
  O   O16       1.0  0.54382  0.67089  0.32945  1.0000
  O   O17       1.0  0.12707  0.45618  0.32945  1.0000
  O   O18       1.0  0.32911  0.87293  0.32945  1.0000
  O   O19       1.0  0.67089  0.54382  0.82945  1.0000
  O   O20       1.0  0.45618  0.12707  0.82945  1.0000
  O   O21       1.0  0.87293  0.32911  0.82945  1.0000
  O   O22       1.0  0.45618  0.32911  0.67055  1.0000
  O   O23       1.0  0.87293  0.54382  0.67055  1.0000
  O   O24       1.0  0.67089  0.12707  0.67055  1.0000
  H   H1        1.0  0.07470  0.28730  0.15080  1.0000
  H   H2        1.0  0.71270  0.78740  0.15080  1.0000
  H   H3        1.0  0.21260  0.92530  0.15080  1.0000
  H   H4        1.0  0.71270  0.92530  0.34920  1.0000
  H   H5        1.0  0.21260  0.28730  0.34920  1.0000
  H   H6        1.0  0.07470  0.78740  0.34920  1.0000
  H   H7        1.0  0.92530  0.71270  0.84920  1.0000
  H   H8        1.0  0.28730  0.21260  0.84920  1.0000
  H   H9        1.0  0.78740  0.07470  0.84920  1.0000
  H   H10       1.0  0.28730  0.07470  0.65080  1.0000
  H   H11       1.0  0.78740  0.71270  0.65080  1.0000
  H   H12       1.0  0.92530  0.21260  0.65080  1.0000
  Mg  Mg3       1.0  0.33330  0.66670  0.25000  1.0000
  Mg  Mg4       1.0  0.66670  0.33330  0.75000  1.0000
