data_image0
_chemical_formula_structural       Mg2O12C12O12H12Mg2
_chemical_formula_sum              "Mg4 O24 C12 H12"
_cell_length_a       8.1906
_cell_length_b       8.1906
_cell_length_c       15.4952
_cell_angle_alpha    90
_cell_angle_beta     90
_cell_angle_gamma    120

_space_group_name_H-M_alt    "P 1"
_space_group_IT_number       1

loop_
  _space_group_symop_operation_xyz
  'x, y, z'

loop_
  _atom_site_type_symbol
  _atom_site_label
  _atom_site_symmetry_multiplicity
  _atom_site_fract_x
  _atom_site_fract_y
  _atom_site_fract_z
  _atom_site_occupancy
  Mg  Mg1       1.0  0.00000  0.00000  0.00000  1.0000
  Mg  Mg2       1.0  0.00000  0.00000  0.50000  1.0000
  O   O1        1.0  0.20460  0.21882  0.07702  1.0000
  O   O2        1.0  0.78118  0.98578  0.07702  1.0000
  O   O3        1.0  0.01422  0.79540  0.07702  1.0000
  O   O4        1.0  0.78118  0.79540  0.42298  1.0000
  O   O5        1.0  0.01422  0.21882  0.42298  1.0000
  O   O6        1.0  0.20460  0.98578  0.42298  1.0000
  O   O7        1.0  0.79540  0.78118  0.92298  1.0000
  O   O8        1.0  0.21882  0.01422  0.92298  1.0000
  O   O9        1.0  0.98578  0.20460  0.92298  1.0000
  O   O10       1.0  0.21882  0.20460  0.57702  1.0000
  O   O11       1.0  0.98578  0.78118  0.57702  1.0000
  O   O12       1.0  0.79540  0.01422  0.57702  1.0000
  C   C1        1.0  0.19680  0.32030  0.13295  1.0000
  C   C2        1.0  0.67970  0.87650  0.13295  1.0000
  C   C3        1.0  0.12350  0.80320  0.13295  1.0000
  C   C4        1.0  0.67970  0.80320  0.36705  1.0000
  C   C5        1.0  0.12350  0.32030  0.36705  1.0000
  C   C6        1.0  0.19680  0.87650  0.36705  1.0000
  C   C7        1.0  0.80320  0.67970  0.86705  1.0000
  C   C8        1.0  0.32030  0.12350  0.86705  1.0000
  C   C9        1.0  0.87650  0.19680  0.86705  1.0000
  C   C10       1.0  0.32030  0.19680  0.63295  1.0000
  C   C11       1.0  0.87650  0.67970  0.63295  1.0000
  C   C12       1.0  0.80320  0.12350  0.63295  1.0000
  O   O13       1.0  0.32675  0.45578  0.17012  1.0000
  O   O14       1.0  0.54422  0.87097  0.17012  1.0000
  O   O15       1.0  0.12903  0.67325  0.17012  1.0000
  O   O16       1.0  0.54422  0.67325  0.32988  1.0000
  O   O17       1.0  0.12903  0.45578  0.32988  1.0000
  O   O18       1.0  0.32675  0.87097  0.32988  1.0000
  O   O19       1.0  0.67325  0.54422  0.82988  1.0000
  O   O20       1.0  0.45578  0.12903  0.82988  1.0000
  O   O21       1.0  0.87097  0.32675  0.82988  1.0000
  O   O22       1.0  0.45578  0.32675  0.67012  1.0000
  O   O23       1.0  0.87097  0.54422  0.67012  1.0000
  O   O24       1.0  0.67325  0.12903  0.67012  1.0000
  H   H1        1.0  0.07610  0.29100  0.14960  1.0000
  H   H2        1.0  0.70900  0.78510  0.14960  1.0000
  H   H3        1.0  0.21490  0.92390  0.14960  1.0000
  H   H4        1.0  0.70900  0.92390  0.35040  1.0000
  H   H5        1.0  0.21490  0.29100  0.35040  1.0000
  H   H6        1.0  0.07610  0.78510  0.35040  1.0000
  H   H7        1.0  0.92390  0.70900  0.85040  1.0000
  H   H8        1.0  0.29100  0.21490  0.85040  1.0000
  H   H9        1.0  0.78510  0.07610  0.85040  1.0000
  H   H10       1.0  0.29100  0.07610  0.64960  1.0000
  H   H11       1.0  0.78510  0.70900  0.64960  1.0000
  H   H12       1.0  0.92390  0.21490  0.64960  1.0000
  Mg  Mg3       1.0  0.33330  0.66670  0.25000  1.0000
  Mg  Mg4       1.0  0.66670  0.33330  0.75000  1.0000
