data_image0
_chemical_formula_structural       Mg8O48C8H8C8H8C8H8
_chemical_formula_sum              "Mg8 O48 C24 H24"
_cell_length_a       7.8445
_cell_length_b       14.4656
_cell_length_c       15.6345
_cell_angle_alpha    90
_cell_angle_beta     91.037
_cell_angle_gamma    90

_space_group_name_H-M_alt    "P 1"
_space_group_IT_number       1

loop_
  _space_group_symop_operation_xyz
  'x, y, z'

loop_
  _atom_site_type_symbol
  _atom_site_label
  _atom_site_symmetry_multiplicity
  _atom_site_fract_x
  _atom_site_fract_y
  _atom_site_fract_z
  _atom_site_occupancy
  Mg  Mg1       1.0  0.00000  0.00000  0.00000  1.0000
  Mg  Mg2       1.0  0.00000  0.00000  0.50000  1.0000
  Mg  Mg3       1.0  0.50000  0.50000  0.00000  1.0000
  Mg  Mg4       1.0  0.50000  0.50000  0.50000  1.0000
  Mg  Mg5       1.0  0.00000  0.32473  0.25000  1.0000
  Mg  Mg6       1.0  0.50000  0.82473  0.25000  1.0000
  Mg  Mg7       1.0  0.00000  0.67527  0.75000  1.0000
  Mg  Mg8       1.0  0.50000  0.17527  0.75000  1.0000
  O   O1        1.0  0.10771  0.10162  0.08275  1.0000
  O   O2        1.0  0.89229  0.10162  0.41725  1.0000
  O   O3        1.0  0.60771  0.60162  0.08275  1.0000
  O   O4        1.0  0.39229  0.60162  0.41725  1.0000
  O   O5        1.0  0.89229  0.89838  0.91725  1.0000
  O   O6        1.0  0.10771  0.89838  0.58275  1.0000
  O   O7        1.0  0.39229  0.39838  0.91725  1.0000
  O   O8        1.0  0.60771  0.39838  0.58275  1.0000
  O   O9        1.0  0.10494  0.22082  0.17300  1.0000
  O   O10       1.0  0.89506  0.22082  0.32700  1.0000
  O   O11       1.0  0.60494  0.72082  0.17300  1.0000
  O   O12       1.0  0.39506  0.72082  0.32700  1.0000
  O   O13       1.0  0.89506  0.77918  0.82700  1.0000
  O   O14       1.0  0.10494  0.77918  0.67300  1.0000
  O   O15       1.0  0.39506  0.27918  0.82700  1.0000
  O   O16       1.0  0.60494  0.27918  0.67300  1.0000
  O   O17       1.0  0.21229  0.33047  0.33024  1.0000
  O   O18       1.0  0.78771  0.33047  0.16976  1.0000
  O   O19       1.0  0.71229  0.83047  0.33024  1.0000
  O   O20       1.0  0.28771  0.83047  0.16976  1.0000
  O   O21       1.0  0.78771  0.66953  0.66976  1.0000
  O   O22       1.0  0.21229  0.66953  0.83024  1.0000
  O   O23       1.0  0.28771  0.16953  0.66976  1.0000
  O   O24       1.0  0.71229  0.16953  0.83024  1.0000
  O   O25       1.0  0.37663  0.39795  0.42963  1.0000
  O   O26       1.0  0.62337  0.39795  0.07037  1.0000
  O   O27       1.0  0.87663  0.89795  0.42963  1.0000
  O   O28       1.0  0.12337  0.89795  0.07037  1.0000
  O   O29       1.0  0.62337  0.60205  0.57037  1.0000
  O   O30       1.0  0.37663  0.60205  0.92963  1.0000
  O   O31       1.0  0.12337  0.10205  0.57037  1.0000
  O   O32       1.0  0.87663  0.10205  0.92963  1.0000
  O   O33       1.0  0.10600  0.42677  0.16979  1.0000
  O   O34       1.0  0.89400  0.42677  0.33021  1.0000
  O   O35       1.0  0.60600  0.92677  0.16979  1.0000
  O   O36       1.0  0.39400  0.92677  0.33021  1.0000
  O   O37       1.0  0.89400  0.57323  0.83021  1.0000
  O   O38       1.0  0.10600  0.57323  0.66979  1.0000
  O   O39       1.0  0.39400  0.07323  0.83021  1.0000
  O   O40       1.0  0.60600  0.07323  0.66979  1.0000
  O   O41       1.0  0.27888  0.48954  0.07552  1.0000
  O   O42       1.0  0.72112  0.48954  0.42448  1.0000
  O   O43       1.0  0.77888  0.98954  0.07552  1.0000
  O   O44       1.0  0.22112  0.98954  0.42448  1.0000
  O   O45       1.0  0.72112  0.51046  0.92448  1.0000
  O   O46       1.0  0.27888  0.51046  0.57552  1.0000
  O   O47       1.0  0.22112  0.01046  0.92448  1.0000
  O   O48       1.0  0.77888  0.01046  0.57552  1.0000
  C   C1        1.0  0.03556  0.15886  0.13029  1.0000
  C   C2        1.0  0.96444  0.15886  0.36971  1.0000
  C   C3        1.0  0.53556  0.65886  0.13029  1.0000
  C   C4        1.0  0.46444  0.65886  0.36971  1.0000
  C   C5        1.0  0.96444  0.84114  0.86971  1.0000
  C   C6        1.0  0.03556  0.84114  0.63029  1.0000
  C   C7        1.0  0.46444  0.34114  0.86971  1.0000
  C   C8        1.0  0.53556  0.34114  0.63029  1.0000
  H   H1        1.0  0.91760  0.15430  0.13380  1.0000
  H   H2        1.0  0.08240  0.15430  0.36620  1.0000
  H   H3        1.0  0.41760  0.65430  0.13380  1.0000
  H   H4        1.0  0.58240  0.65430  0.36620  1.0000
  H   H5        1.0  0.08240  0.84570  0.86620  1.0000
  H   H6        1.0  0.91760  0.84570  0.63380  1.0000
  H   H7        1.0  0.58240  0.34570  0.86620  1.0000
  H   H8        1.0  0.41760  0.34570  0.63380  1.0000
  C   C9        1.0  0.28762  0.39768  0.36314  1.0000
  C   C10       1.0  0.71238  0.39768  0.13686  1.0000
  C   C11       1.0  0.78762  0.89768  0.36314  1.0000
  C   C12       1.0  0.21238  0.89768  0.13686  1.0000
  C   C13       1.0  0.71238  0.60232  0.63686  1.0000
  C   C14       1.0  0.28762  0.60232  0.86314  1.0000
  C   C15       1.0  0.21238  0.10232  0.63686  1.0000
  C   C16       1.0  0.78762  0.10232  0.86314  1.0000
  H   H9        1.0  0.27600  0.45390  0.33480  1.0000
  H   H10       1.0  0.72400  0.45390  0.16520  1.0000
  H   H11       1.0  0.77600  0.95390  0.33480  1.0000
  H   H12       1.0  0.22400  0.95390  0.16520  1.0000
  H   H13       1.0  0.72400  0.54610  0.66520  1.0000
  H   H14       1.0  0.27600  0.54610  0.83480  1.0000
  H   H15       1.0  0.22400  0.04610  0.66520  1.0000
  H   H16       1.0  0.77600  0.04610  0.83480  1.0000
  C   C17       1.0  0.24416  0.43226  0.13255  1.0000
  C   C18       1.0  0.75584  0.43226  0.36745  1.0000
  C   C19       1.0  0.74416  0.93226  0.13255  1.0000
  C   C20       1.0  0.25584  0.93226  0.36745  1.0000
  C   C21       1.0  0.75584  0.56774  0.86745  1.0000
  C   C22       1.0  0.24416  0.56774  0.63255  1.0000
  C   C23       1.0  0.25584  0.06774  0.86745  1.0000
  C   C24       1.0  0.74416  0.06774  0.63255  1.0000
  H   H17       1.0  0.32880  0.39030  0.14840  1.0000
  H   H18       1.0  0.67120  0.39030  0.35160  1.0000
  H   H19       1.0  0.82880  0.89030  0.14840  1.0000
  H   H20       1.0  0.17120  0.89030  0.35160  1.0000
  H   H21       1.0  0.67120  0.60970  0.85160  1.0000
  H   H22       1.0  0.32880  0.60970  0.64840  1.0000
  H   H23       1.0  0.17120  0.10970  0.85160  1.0000
  H   H24       1.0  0.82880  0.10970  0.64840  1.0000
