data_image0
_chemical_formula_structural       Co8O48C8H8C8H8C8H8
_chemical_formula_sum              "Co8 O48 C24 H24"
_cell_length_a       7.8725
_cell_length_b       14.5078
_cell_length_c       15.5367
_cell_angle_alpha    90
_cell_angle_beta     91.374
_cell_angle_gamma    90

_space_group_name_H-M_alt    "P 1"
_space_group_IT_number       1

loop_
  _space_group_symop_operation_xyz
  'x, y, z'

loop_
  _atom_site_type_symbol
  _atom_site_label
  _atom_site_symmetry_multiplicity
  _atom_site_fract_x
  _atom_site_fract_y
  _atom_site_fract_z
  _atom_site_occupancy
  Co  Co1       1.0  0.00000  0.00000  0.00000  1.0000
  Co  Co2       1.0  0.00000  0.00000  0.50000  1.0000
  Co  Co3       1.0  0.50000  0.50000  0.00000  1.0000
  Co  Co4       1.0  0.50000  0.50000  0.50000  1.0000
  Co  Co5       1.0  0.00000  0.32514  0.25000  1.0000
  Co  Co6       1.0  0.50000  0.82514  0.25000  1.0000
  Co  Co7       1.0  0.00000  0.67486  0.75000  1.0000
  Co  Co8       1.0  0.50000  0.17486  0.75000  1.0000
  O   O1        1.0  0.11264  0.10049  0.08451  1.0000
  O   O2        1.0  0.88736  0.10049  0.41549  1.0000
  O   O3        1.0  0.61264  0.60049  0.08451  1.0000
  O   O4        1.0  0.38736  0.60049  0.41549  1.0000
  O   O5        1.0  0.88736  0.89951  0.91549  1.0000
  O   O6        1.0  0.11264  0.89951  0.58451  1.0000
  O   O7        1.0  0.38736  0.39951  0.91549  1.0000
  O   O8        1.0  0.61264  0.39951  0.58451  1.0000
  O   O9        1.0  0.10991  0.22094  0.17300  1.0000
  O   O10       1.0  0.89009  0.22094  0.32700  1.0000
  O   O11       1.0  0.60991  0.72094  0.17300  1.0000
  O   O12       1.0  0.39009  0.72094  0.32700  1.0000
  O   O13       1.0  0.89009  0.77906  0.82700  1.0000
  O   O14       1.0  0.10991  0.77906  0.67300  1.0000
  O   O15       1.0  0.39009  0.27906  0.82700  1.0000
  O   O16       1.0  0.60991  0.27906  0.67300  1.0000
  O   O17       1.0  0.21189  0.32795  0.33208  1.0000
  O   O18       1.0  0.78811  0.32795  0.16792  1.0000
  O   O19       1.0  0.71189  0.82795  0.33208  1.0000
  O   O20       1.0  0.28811  0.82795  0.16792  1.0000
  O   O21       1.0  0.78811  0.67205  0.66792  1.0000
  O   O22       1.0  0.21189  0.67205  0.83208  1.0000
  O   O23       1.0  0.28811  0.17205  0.66792  1.0000
  O   O24       1.0  0.71189  0.17205  0.83208  1.0000
  O   O25       1.0  0.38140  0.39463  0.42981  1.0000
  O   O26       1.0  0.61860  0.39463  0.07019  1.0000
  O   O27       1.0  0.88140  0.89463  0.42981  1.0000
  O   O28       1.0  0.11860  0.89463  0.07019  1.0000
  O   O29       1.0  0.61860  0.60537  0.57019  1.0000
  O   O30       1.0  0.38140  0.60537  0.92981  1.0000
  O   O31       1.0  0.11860  0.10537  0.57019  1.0000
  O   O32       1.0  0.88140  0.10537  0.92981  1.0000
  O   O33       1.0  0.10429  0.42928  0.16953  1.0000
  O   O34       1.0  0.89571  0.42928  0.33047  1.0000
  O   O35       1.0  0.60429  0.92928  0.16953  1.0000
  O   O36       1.0  0.39571  0.92928  0.33047  1.0000
  O   O37       1.0  0.89571  0.57072  0.83047  1.0000
  O   O38       1.0  0.10429  0.57072  0.66953  1.0000
  O   O39       1.0  0.39571  0.07072  0.83047  1.0000
  O   O40       1.0  0.60429  0.07072  0.66953  1.0000
  O   O41       1.0  0.27589  0.49170  0.07506  1.0000
  O   O42       1.0  0.72411  0.49170  0.42494  1.0000
  O   O43       1.0  0.77589  0.99170  0.07506  1.0000
  O   O44       1.0  0.22411  0.99170  0.42494  1.0000
  O   O45       1.0  0.72411  0.50830  0.92494  1.0000
  O   O46       1.0  0.27589  0.50830  0.57506  1.0000
  O   O47       1.0  0.22411  0.00830  0.92494  1.0000
  O   O48       1.0  0.77589  0.00830  0.57506  1.0000
  C   C1        1.0  0.03923  0.15844  0.13093  1.0000
  C   C2        1.0  0.96077  0.15844  0.36907  1.0000
  C   C3        1.0  0.53923  0.65844  0.13093  1.0000
  C   C4        1.0  0.46077  0.65844  0.36907  1.0000
  C   C5        1.0  0.96077  0.84156  0.86907  1.0000
  C   C6        1.0  0.03923  0.84156  0.63093  1.0000
  C   C7        1.0  0.46077  0.34156  0.86907  1.0000
  C   C8        1.0  0.53923  0.34156  0.63093  1.0000
  H   H1        1.0  0.92170  0.15410  0.13400  1.0000
  H   H2        1.0  0.07830  0.15410  0.36600  1.0000
  H   H3        1.0  0.42170  0.65410  0.13400  1.0000
  H   H4        1.0  0.57830  0.65410  0.36600  1.0000
  H   H5        1.0  0.07830  0.84590  0.86600  1.0000
  H   H6        1.0  0.92170  0.84590  0.63400  1.0000
  H   H7        1.0  0.57830  0.34590  0.86600  1.0000
  H   H8        1.0  0.42170  0.34590  0.63400  1.0000
  C   C9        1.0  0.28301  0.39601  0.36605  1.0000
  C   C10       1.0  0.71699  0.39601  0.13395  1.0000
  C   C11       1.0  0.78301  0.89601  0.36605  1.0000
  C   C12       1.0  0.21699  0.89601  0.13395  1.0000
  C   C13       1.0  0.71699  0.60399  0.63395  1.0000
  C   C14       1.0  0.28301  0.60399  0.86605  1.0000
  C   C15       1.0  0.21699  0.10399  0.63395  1.0000
  C   C16       1.0  0.78301  0.10399  0.86605  1.0000
  H   H9        1.0  0.26030  0.45320  0.34140  1.0000
  H   H10       1.0  0.73970  0.45320  0.15860  1.0000
  H   H11       1.0  0.76030  0.95320  0.34140  1.0000
  H   H12       1.0  0.23970  0.95320  0.15860  1.0000
  H   H13       1.0  0.73970  0.54680  0.65860  1.0000
  H   H14       1.0  0.26030  0.54680  0.84140  1.0000
  H   H15       1.0  0.23970  0.04680  0.65860  1.0000
  H   H16       1.0  0.76030  0.04680  0.84140  1.0000
  C   C17       1.0  0.24215  0.43405  0.13228  1.0000
  C   C18       1.0  0.75785  0.43405  0.36772  1.0000
  C   C19       1.0  0.74215  0.93405  0.13228  1.0000
  C   C20       1.0  0.25785  0.93405  0.36772  1.0000
  C   C21       1.0  0.75785  0.56595  0.86772  1.0000
  C   C22       1.0  0.24215  0.56595  0.63228  1.0000
  C   C23       1.0  0.25785  0.06595  0.86772  1.0000
  C   C24       1.0  0.74215  0.06595  0.63228  1.0000
  H   H17       1.0  0.32620  0.39180  0.14800  1.0000
  H   H18       1.0  0.67380  0.39180  0.35200  1.0000
  H   H19       1.0  0.82620  0.89180  0.14800  1.0000
  H   H20       1.0  0.17380  0.89180  0.35200  1.0000
  H   H21       1.0  0.67380  0.60820  0.85200  1.0000
  H   H22       1.0  0.32620  0.60820  0.64800  1.0000
  H   H23       1.0  0.17380  0.10820  0.85200  1.0000
  H   H24       1.0  0.82620  0.10820  0.64800  1.0000
