data_image0
_chemical_formula_structural       Co8O48C8H8C8H8C8H8
_chemical_formula_sum              "Co8 O48 C24 H24"
_cell_length_a       7.8427
_cell_length_b       14.5312
_cell_length_c       15.5305
_cell_angle_alpha    90
_cell_angle_beta     91.512
_cell_angle_gamma    90

_space_group_name_H-M_alt    "P 1"
_space_group_IT_number       1

loop_
  _space_group_symop_operation_xyz
  'x, y, z'

loop_
  _atom_site_type_symbol
  _atom_site_label
  _atom_site_symmetry_multiplicity
  _atom_site_fract_x
  _atom_site_fract_y
  _atom_site_fract_z
  _atom_site_occupancy
  Co  Co1       1.0  0.00000  0.00000  0.00000  1.0000
  Co  Co2       1.0  0.00000  0.00000  0.50000  1.0000
  Co  Co3       1.0  0.50000  0.50000  0.00000  1.0000
  Co  Co4       1.0  0.50000  0.50000  0.50000  1.0000
  Co  Co5       1.0  0.00000  0.32425  0.25000  1.0000
  Co  Co6       1.0  0.50000  0.82425  0.25000  1.0000
  Co  Co7       1.0  0.00000  0.67575  0.75000  1.0000
  Co  Co8       1.0  0.50000  0.17575  0.75000  1.0000
  O   O1        1.0  0.11421  0.09961  0.08495  1.0000
  O   O2        1.0  0.88579  0.09961  0.41505  1.0000
  O   O3        1.0  0.61421  0.59961  0.08495  1.0000
  O   O4        1.0  0.38579  0.59961  0.41505  1.0000
  O   O5        1.0  0.88579  0.90039  0.91505  1.0000
  O   O6        1.0  0.11421  0.90039  0.58495  1.0000
  O   O7        1.0  0.38579  0.40039  0.91505  1.0000
  O   O8        1.0  0.61421  0.40039  0.58495  1.0000
  O   O9        1.0  0.11122  0.22007  0.17347  1.0000
  O   O10       1.0  0.88878  0.22007  0.32653  1.0000
  O   O11       1.0  0.61122  0.72007  0.17347  1.0000
  O   O12       1.0  0.38878  0.72007  0.32653  1.0000
  O   O13       1.0  0.88878  0.77993  0.82653  1.0000
  O   O14       1.0  0.11122  0.77993  0.67347  1.0000
  O   O15       1.0  0.38878  0.27993  0.82653  1.0000
  O   O16       1.0  0.61122  0.27993  0.67347  1.0000
  O   O17       1.0  0.21106  0.32707  0.33289  1.0000
  O   O18       1.0  0.78894  0.32707  0.16711  1.0000
  O   O19       1.0  0.71106  0.82707  0.33289  1.0000
  O   O20       1.0  0.28894  0.82707  0.16711  1.0000
  O   O21       1.0  0.78894  0.67293  0.66711  1.0000
  O   O22       1.0  0.21106  0.67293  0.83289  1.0000
  O   O23       1.0  0.28894  0.17293  0.66711  1.0000
  O   O24       1.0  0.71106  0.17293  0.83289  1.0000
  O   O25       1.0  0.38058  0.39443  0.43085  1.0000
  O   O26       1.0  0.61942  0.39443  0.06915  1.0000
  O   O27       1.0  0.88058  0.89443  0.43085  1.0000
  O   O28       1.0  0.11942  0.89443  0.06915  1.0000
  O   O29       1.0  0.61942  0.60557  0.56915  1.0000
  O   O30       1.0  0.38058  0.60557  0.93085  1.0000
  O   O31       1.0  0.11942  0.10557  0.56915  1.0000
  O   O32       1.0  0.88058  0.10557  0.93085  1.0000
  O   O33       1.0  0.10466  0.42841  0.16995  1.0000
  O   O34       1.0  0.89534  0.42841  0.33005  1.0000
  O   O35       1.0  0.60466  0.92841  0.16995  1.0000
  O   O36       1.0  0.39534  0.92841  0.33005  1.0000
  O   O37       1.0  0.89534  0.57159  0.83005  1.0000
  O   O38       1.0  0.10466  0.57159  0.66995  1.0000
  O   O39       1.0  0.39534  0.07159  0.83005  1.0000
  O   O40       1.0  0.60466  0.07159  0.66995  1.0000
  O   O41       1.0  0.27549  0.49143  0.07518  1.0000
  O   O42       1.0  0.72451  0.49143  0.42482  1.0000
  O   O43       1.0  0.77549  0.99143  0.07518  1.0000
  O   O44       1.0  0.22451  0.99143  0.42482  1.0000
  O   O45       1.0  0.72451  0.50857  0.92482  1.0000
  O   O46       1.0  0.27549  0.50857  0.57518  1.0000
  O   O47       1.0  0.22451  0.00857  0.92482  1.0000
  O   O48       1.0  0.77549  0.00857  0.57518  1.0000
  C   C1        1.0  0.03972  0.15808  0.13080  1.0000
  C   C2        1.0  0.96028  0.15808  0.36920  1.0000
  C   C3        1.0  0.53972  0.65808  0.13080  1.0000
  C   C4        1.0  0.46028  0.65808  0.36920  1.0000
  C   C5        1.0  0.96028  0.84192  0.86920  1.0000
  C   C6        1.0  0.03972  0.84192  0.63080  1.0000
  C   C7        1.0  0.46028  0.34192  0.86920  1.0000
  C   C8        1.0  0.53972  0.34192  0.63080  1.0000
  H   H1        1.0  0.92020  0.15450  0.13290  1.0000
  H   H2        1.0  0.07980  0.15450  0.36710  1.0000
  H   H3        1.0  0.42020  0.65450  0.13290  1.0000
  H   H4        1.0  0.57980  0.65450  0.36710  1.0000
  H   H5        1.0  0.07980  0.84550  0.86710  1.0000
  H   H6        1.0  0.92020  0.84550  0.63290  1.0000
  H   H7        1.0  0.57980  0.34550  0.86710  1.0000
  H   H8        1.0  0.42020  0.34550  0.63290  1.0000
  C   C9        1.0  0.28262  0.39562  0.36629  1.0000
  C   C10       1.0  0.71738  0.39562  0.13371  1.0000
  C   C11       1.0  0.78262  0.89562  0.36629  1.0000
  C   C12       1.0  0.21738  0.89562  0.13371  1.0000
  C   C13       1.0  0.71738  0.60438  0.63371  1.0000
  C   C14       1.0  0.28262  0.60438  0.86629  1.0000
  C   C15       1.0  0.21738  0.10438  0.63371  1.0000
  C   C16       1.0  0.78262  0.10438  0.86629  1.0000
  H   H9        1.0  0.26070  0.45310  0.34050  1.0000
  H   H10       1.0  0.73930  0.45310  0.15950  1.0000
  H   H11       1.0  0.76070  0.95310  0.34050  1.0000
  H   H12       1.0  0.23930  0.95310  0.15950  1.0000
  H   H13       1.0  0.73930  0.54690  0.65950  1.0000
  H   H14       1.0  0.26070  0.54690  0.84050  1.0000
  H   H15       1.0  0.23930  0.04690  0.65950  1.0000
  H   H16       1.0  0.76070  0.04690  0.84050  1.0000
  C   C17       1.0  0.24314  0.43356  0.13262  1.0000
  C   C18       1.0  0.75686  0.43356  0.36738  1.0000
  C   C19       1.0  0.74314  0.93356  0.13262  1.0000
  C   C20       1.0  0.25686  0.93356  0.36738  1.0000
  C   C21       1.0  0.75686  0.56644  0.86738  1.0000
  C   C22       1.0  0.24314  0.56644  0.63262  1.0000
  C   C23       1.0  0.25686  0.06644  0.86738  1.0000
  C   C24       1.0  0.74314  0.06644  0.63262  1.0000
  H   H17       1.0  0.32910  0.39130  0.14850  1.0000
  H   H18       1.0  0.67090  0.39130  0.35150  1.0000
  H   H19       1.0  0.82910  0.89130  0.14850  1.0000
  H   H20       1.0  0.17090  0.89130  0.35150  1.0000
  H   H21       1.0  0.67090  0.60870  0.85150  1.0000
  H   H22       1.0  0.32910  0.60870  0.64850  1.0000
  H   H23       1.0  0.17090  0.10870  0.85150  1.0000
  H   H24       1.0  0.82910  0.10870  0.64850  1.0000
