data_image0
_chemical_formula_structural       Co8O48C8H8C8H8C8H8
_chemical_formula_sum              "Co8 O48 C24 H24"
_cell_length_a       7.9699
_cell_length_b       14.4025
_cell_length_c       15.5176
_cell_angle_alpha    90
_cell_angle_beta     90.916
_cell_angle_gamma    90

_space_group_name_H-M_alt    "P 1"
_space_group_IT_number       1

loop_
  _space_group_symop_operation_xyz
  'x, y, z'

loop_
  _atom_site_type_symbol
  _atom_site_label
  _atom_site_symmetry_multiplicity
  _atom_site_fract_x
  _atom_site_fract_y
  _atom_site_fract_z
  _atom_site_occupancy
  Co  Co1       1.0  0.00000  0.00000  0.00000  1.0000
  Co  Co2       1.0  0.00000  0.00000  0.50000  1.0000
  Co  Co3       1.0  0.50000  0.50000  0.00000  1.0000
  Co  Co4       1.0  0.50000  0.50000  0.50000  1.0000
  Co  Co5       1.0  0.00000  0.32770  0.25000  1.0000
  Co  Co6       1.0  0.50000  0.82770  0.25000  1.0000
  Co  Co7       1.0  0.00000  0.67230  0.75000  1.0000
  Co  Co8       1.0  0.50000  0.17230  0.75000  1.0000
  O   O1        1.0  0.10912  0.10287  0.08272  1.0000
  O   O2        1.0  0.89088  0.10287  0.41728  1.0000
  O   O3        1.0  0.60912  0.60287  0.08272  1.0000
  O   O4        1.0  0.39088  0.60287  0.41728  1.0000
  O   O5        1.0  0.89088  0.89713  0.91728  1.0000
  O   O6        1.0  0.10912  0.89713  0.58272  1.0000
  O   O7        1.0  0.39088  0.39713  0.91728  1.0000
  O   O8        1.0  0.60912  0.39713  0.58272  1.0000
  O   O9        1.0  0.10723  0.22345  0.17165  1.0000
  O   O10       1.0  0.89277  0.22345  0.32835  1.0000
  O   O11       1.0  0.60723  0.72345  0.17165  1.0000
  O   O12       1.0  0.39277  0.72345  0.32835  1.0000
  O   O13       1.0  0.89277  0.77655  0.82835  1.0000
  O   O14       1.0  0.10723  0.77655  0.67165  1.0000
  O   O15       1.0  0.39277  0.27655  0.82835  1.0000
  O   O16       1.0  0.60723  0.27655  0.67165  1.0000
  O   O17       1.0  0.21265  0.32974  0.33075  1.0000
  O   O18       1.0  0.78735  0.32974  0.16925  1.0000
  O   O19       1.0  0.71265  0.82974  0.33075  1.0000
  O   O20       1.0  0.28735  0.82974  0.16925  1.0000
  O   O21       1.0  0.78735  0.67026  0.66925  1.0000
  O   O22       1.0  0.21265  0.67026  0.83075  1.0000
  O   O23       1.0  0.28735  0.17026  0.66925  1.0000
  O   O24       1.0  0.71265  0.17026  0.83075  1.0000
  O   O25       1.0  0.38405  0.39456  0.42726  1.0000
  O   O26       1.0  0.61595  0.39456  0.07274  1.0000
  O   O27       1.0  0.88405  0.89456  0.42726  1.0000
  O   O28       1.0  0.11595  0.89456  0.07274  1.0000
  O   O29       1.0  0.61595  0.60544  0.57274  1.0000
  O   O30       1.0  0.38405  0.60544  0.92726  1.0000
  O   O31       1.0  0.11595  0.10544  0.57274  1.0000
  O   O32       1.0  0.88405  0.10544  0.92726  1.0000
  O   O33       1.0  0.10363  0.43201  0.16905  1.0000
  O   O34       1.0  0.89637  0.43201  0.33095  1.0000
  O   O35       1.0  0.60363  0.93201  0.16905  1.0000
  O   O36       1.0  0.39637  0.93201  0.33095  1.0000
  O   O37       1.0  0.89637  0.56799  0.83095  1.0000
  O   O38       1.0  0.10363  0.56799  0.66905  1.0000
  O   O39       1.0  0.39637  0.06799  0.83095  1.0000
  O   O40       1.0  0.60363  0.06799  0.66905  1.0000
  O   O41       1.0  0.27822  0.49302  0.07542  1.0000
  O   O42       1.0  0.72178  0.49302  0.42458  1.0000
  O   O43       1.0  0.77822  0.99302  0.07542  1.0000
  O   O44       1.0  0.22178  0.99302  0.42458  1.0000
  O   O45       1.0  0.72178  0.50698  0.92458  1.0000
  O   O46       1.0  0.27822  0.50698  0.57542  1.0000
  O   O47       1.0  0.22178  0.00698  0.92458  1.0000
  O   O48       1.0  0.77822  0.00698  0.57542  1.0000
  C   C1        1.0  0.03850  0.15926  0.13144  1.0000
  C   C2        1.0  0.96150  0.15926  0.36856  1.0000
  C   C3        1.0  0.53850  0.65926  0.13144  1.0000
  C   C4        1.0  0.46150  0.65926  0.36856  1.0000
  C   C5        1.0  0.96150  0.84074  0.86856  1.0000
  C   C6        1.0  0.03850  0.84074  0.63144  1.0000
  C   C7        1.0  0.46150  0.34074  0.86856  1.0000
  C   C8        1.0  0.53850  0.34074  0.63144  1.0000
  H   H1        1.0  0.92340  0.15240  0.13810  1.0000
  H   H2        1.0  0.07660  0.15240  0.36190  1.0000
  H   H3        1.0  0.42340  0.65240  0.13810  1.0000
  H   H4        1.0  0.57660  0.65240  0.36190  1.0000
  H   H5        1.0  0.07660  0.84760  0.86190  1.0000
  H   H6        1.0  0.92340  0.84760  0.63810  1.0000
  H   H7        1.0  0.57660  0.34760  0.86190  1.0000
  H   H8        1.0  0.42340  0.34760  0.63810  1.0000
  C   C9        1.0  0.28291  0.39702  0.36601  1.0000
  C   C10       1.0  0.71709  0.39702  0.13399  1.0000
  C   C11       1.0  0.78291  0.89702  0.36601  1.0000
  C   C12       1.0  0.21709  0.89702  0.13399  1.0000
  C   C13       1.0  0.71709  0.60298  0.63399  1.0000
  C   C14       1.0  0.28291  0.60298  0.86601  1.0000
  C   C15       1.0  0.21709  0.10298  0.63399  1.0000
  C   C16       1.0  0.78291  0.10298  0.86601  1.0000
  H   H9        1.0  0.25670  0.45540  0.34400  1.0000
  H   H10       1.0  0.74330  0.45540  0.15600  1.0000
  H   H11       1.0  0.75670  0.95540  0.34400  1.0000
  H   H12       1.0  0.24330  0.95540  0.15600  1.0000
  H   H13       1.0  0.74330  0.54460  0.65600  1.0000
  H   H14       1.0  0.25670  0.54460  0.84400  1.0000
  H   H15       1.0  0.24330  0.04460  0.65600  1.0000
  H   H16       1.0  0.75670  0.04460  0.84400  1.0000
  C   C17       1.0  0.24043  0.43559  0.13192  1.0000
  C   C18       1.0  0.75957  0.43559  0.36808  1.0000
  C   C19       1.0  0.74043  0.93559  0.13192  1.0000
  C   C20       1.0  0.25957  0.93559  0.36808  1.0000
  C   C21       1.0  0.75957  0.56441  0.86808  1.0000
  C   C22       1.0  0.24043  0.56441  0.63192  1.0000
  C   C23       1.0  0.25957  0.06441  0.86808  1.0000
  C   C24       1.0  0.74043  0.06441  0.63192  1.0000
  H   H17       1.0  0.32120  0.39190  0.14760  1.0000
  H   H18       1.0  0.67880  0.39190  0.35240  1.0000
  H   H19       1.0  0.82120  0.89190  0.14760  1.0000
  H   H20       1.0  0.17880  0.89190  0.35240  1.0000
  H   H21       1.0  0.67880  0.60810  0.85240  1.0000
  H   H22       1.0  0.32120  0.60810  0.64760  1.0000
  H   H23       1.0  0.17880  0.10810  0.85240  1.0000
  H   H24       1.0  0.82120  0.10810  0.64760  1.0000
