data_image0
_chemical_formula_structural       Zn8O48C8H8C8H8C8H8
_chemical_formula_sum              "Zn8 O48 C24 H24"
_cell_length_a       7.8733
_cell_length_b       14.4912
_cell_length_c       15.5155
_cell_angle_alpha    90
_cell_angle_beta     91.702
_cell_angle_gamma    90

_space_group_name_H-M_alt    "P 1"
_space_group_IT_number       1

loop_
  _space_group_symop_operation_xyz
  'x, y, z'

loop_
  _atom_site_type_symbol
  _atom_site_label
  _atom_site_symmetry_multiplicity
  _atom_site_fract_x
  _atom_site_fract_y
  _atom_site_fract_z
  _atom_site_occupancy
  Zn  Zn1       1.0  0.00000  0.00000  0.00000  1.0000
  Zn  Zn2       1.0  0.00000  0.00000  0.50000  1.0000
  Zn  Zn3       1.0  0.50000  0.50000  0.00000  1.0000
  Zn  Zn4       1.0  0.50000  0.50000  0.50000  1.0000
  Zn  Zn5       1.0  0.00000  0.32543  0.25000  1.0000
  Zn  Zn6       1.0  0.50000  0.82543  0.25000  1.0000
  Zn  Zn7       1.0  0.00000  0.67457  0.75000  1.0000
  Zn  Zn8       1.0  0.50000  0.17457  0.75000  1.0000
  O   O1        1.0  0.11243  0.10158  0.08465  1.0000
  O   O2        1.0  0.88757  0.10158  0.41535  1.0000
  O   O3        1.0  0.61243  0.60158  0.08465  1.0000
  O   O4        1.0  0.38757  0.60158  0.41535  1.0000
  O   O5        1.0  0.88757  0.89842  0.91535  1.0000
  O   O6        1.0  0.11243  0.89842  0.58465  1.0000
  O   O7        1.0  0.38757  0.39842  0.91535  1.0000
  O   O8        1.0  0.61243  0.39842  0.58465  1.0000
  O   O9        1.0  0.10988  0.22150  0.17318  1.0000
  O   O10       1.0  0.89012  0.22150  0.32682  1.0000
  O   O11       1.0  0.60988  0.72150  0.17318  1.0000
  O   O12       1.0  0.39012  0.72150  0.32682  1.0000
  O   O13       1.0  0.89012  0.77850  0.82682  1.0000
  O   O14       1.0  0.10988  0.77850  0.67318  1.0000
  O   O15       1.0  0.39012  0.27850  0.82682  1.0000
  O   O16       1.0  0.60988  0.27850  0.67318  1.0000
  O   O17       1.0  0.21163  0.32937  0.33169  1.0000
  O   O18       1.0  0.78837  0.32937  0.16831  1.0000
  O   O19       1.0  0.71163  0.82937  0.33169  1.0000
  O   O20       1.0  0.28837  0.82937  0.16831  1.0000
  O   O21       1.0  0.78837  0.67063  0.66831  1.0000
  O   O22       1.0  0.21163  0.67063  0.83169  1.0000
  O   O23       1.0  0.28837  0.17063  0.66831  1.0000
  O   O24       1.0  0.71163  0.17063  0.83169  1.0000
  O   O25       1.0  0.38202  0.39511  0.42934  1.0000
  O   O26       1.0  0.61798  0.39511  0.07066  1.0000
  O   O27       1.0  0.88202  0.89511  0.42934  1.0000
  O   O28       1.0  0.11798  0.89511  0.07066  1.0000
  O   O29       1.0  0.61798  0.60489  0.57066  1.0000
  O   O30       1.0  0.38202  0.60489  0.92934  1.0000
  O   O31       1.0  0.11798  0.10489  0.57066  1.0000
  O   O32       1.0  0.88202  0.10489  0.92934  1.0000
  O   O33       1.0  0.10547  0.43030  0.16877  1.0000
  O   O34       1.0  0.89453  0.43030  0.33123  1.0000
  O   O35       1.0  0.60547  0.93030  0.16877  1.0000
  O   O36       1.0  0.39453  0.93030  0.33123  1.0000
  O   O37       1.0  0.89453  0.56970  0.83123  1.0000
  O   O38       1.0  0.10547  0.56970  0.66877  1.0000
  O   O39       1.0  0.39453  0.06970  0.83123  1.0000
  O   O40       1.0  0.60547  0.06970  0.66877  1.0000
  O   O41       1.0  0.27616  0.49198  0.07465  1.0000
  O   O42       1.0  0.72384  0.49198  0.42535  1.0000
  O   O43       1.0  0.77616  0.99198  0.07465  1.0000
  O   O44       1.0  0.22384  0.99198  0.42535  1.0000
  O   O45       1.0  0.72384  0.50802  0.92535  1.0000
  O   O46       1.0  0.27616  0.50802  0.57465  1.0000
  O   O47       1.0  0.22384  0.00802  0.92535  1.0000
  O   O48       1.0  0.77616  0.00802  0.57465  1.0000
  C   C1        1.0  0.03990  0.15864  0.13141  1.0000
  C   C2        1.0  0.96010  0.15864  0.36859  1.0000
  C   C3        1.0  0.53990  0.65864  0.13141  1.0000
  C   C4        1.0  0.46010  0.65864  0.36859  1.0000
  C   C5        1.0  0.96010  0.84136  0.86859  1.0000
  C   C6        1.0  0.03990  0.84136  0.63141  1.0000
  C   C7        1.0  0.46010  0.34136  0.86859  1.0000
  C   C8        1.0  0.53990  0.34136  0.63141  1.0000
  H   H1        1.0  0.92260  0.15340  0.13520  1.0000
  H   H2        1.0  0.07740  0.15340  0.36480  1.0000
  H   H3        1.0  0.42260  0.65340  0.13520  1.0000
  H   H4        1.0  0.57740  0.65340  0.36480  1.0000
  H   H5        1.0  0.07740  0.84660  0.86480  1.0000
  H   H6        1.0  0.92260  0.84660  0.63520  1.0000
  H   H7        1.0  0.57740  0.34660  0.86480  1.0000
  H   H8        1.0  0.42260  0.34660  0.63520  1.0000
  C   C9        1.0  0.28250  0.39680  0.36634  1.0000
  C   C10       1.0  0.71750  0.39680  0.13366  1.0000
  C   C11       1.0  0.78250  0.89680  0.36634  1.0000
  C   C12       1.0  0.21750  0.89680  0.13366  1.0000
  C   C13       1.0  0.71750  0.60320  0.63366  1.0000
  C   C14       1.0  0.28250  0.60320  0.86634  1.0000
  C   C15       1.0  0.21750  0.10320  0.63366  1.0000
  C   C16       1.0  0.78250  0.10320  0.86634  1.0000
  H   H9        1.0  0.25830  0.45440  0.34250  1.0000
  H   H10       1.0  0.74170  0.45440  0.15750  1.0000
  H   H11       1.0  0.75830  0.95440  0.34250  1.0000
  H   H12       1.0  0.24170  0.95440  0.15750  1.0000
  H   H13       1.0  0.74170  0.54560  0.65750  1.0000
  H   H14       1.0  0.25830  0.54560  0.84250  1.0000
  H   H15       1.0  0.24170  0.04560  0.65750  1.0000
  H   H16       1.0  0.75830  0.04560  0.84250  1.0000
  C   C17       1.0  0.24240  0.43496  0.13197  1.0000
  C   C18       1.0  0.75760  0.43496  0.36803  1.0000
  C   C19       1.0  0.74240  0.93496  0.13197  1.0000
  C   C20       1.0  0.25760  0.93496  0.36803  1.0000
  C   C21       1.0  0.75760  0.56504  0.86803  1.0000
  C   C22       1.0  0.24240  0.56504  0.63197  1.0000
  C   C23       1.0  0.25760  0.06504  0.86803  1.0000
  C   C24       1.0  0.74240  0.06504  0.63197  1.0000
  H   H17       1.0  0.32650  0.39280  0.14820  1.0000
  H   H18       1.0  0.67350  0.39280  0.35180  1.0000
  H   H19       1.0  0.82650  0.89280  0.14820  1.0000
  H   H20       1.0  0.17350  0.89280  0.35180  1.0000
  H   H21       1.0  0.67350  0.60720  0.85180  1.0000
  H   H22       1.0  0.32650  0.60720  0.64820  1.0000
  H   H23       1.0  0.17350  0.10720  0.85180  1.0000
  H   H24       1.0  0.82650  0.10720  0.64820  1.0000
