data_image0
_chemical_formula_structural       Zn8O48C8H8C8H8C8H8
_chemical_formula_sum              "Zn8 O48 C24 H24"
_cell_length_a       7.8373
_cell_length_b       14.5206
_cell_length_c       15.5183
_cell_angle_alpha    90
_cell_angle_beta     91.877
_cell_angle_gamma    90

_space_group_name_H-M_alt    "P 1"
_space_group_IT_number       1

loop_
  _space_group_symop_operation_xyz
  'x, y, z'

loop_
  _atom_site_type_symbol
  _atom_site_label
  _atom_site_symmetry_multiplicity
  _atom_site_fract_x
  _atom_site_fract_y
  _atom_site_fract_z
  _atom_site_occupancy
  Zn  Zn1       1.0  0.00000  0.00000  0.00000  1.0000
  Zn  Zn2       1.0  0.00000  0.00000  0.50000  1.0000
  Zn  Zn3       1.0  0.50000  0.50000  0.00000  1.0000
  Zn  Zn4       1.0  0.50000  0.50000  0.50000  1.0000
  Zn  Zn5       1.0  0.00000  0.32444  0.25000  1.0000
  Zn  Zn6       1.0  0.50000  0.82444  0.25000  1.0000
  Zn  Zn7       1.0  0.00000  0.67556  0.75000  1.0000
  Zn  Zn8       1.0  0.50000  0.17556  0.75000  1.0000
  O   O1        1.0  0.11395  0.10065  0.08524  1.0000
  O   O2        1.0  0.88605  0.10065  0.41476  1.0000
  O   O3        1.0  0.61395  0.60065  0.08524  1.0000
  O   O4        1.0  0.38605  0.60065  0.41476  1.0000
  O   O5        1.0  0.88605  0.89935  0.91476  1.0000
  O   O6        1.0  0.11395  0.89935  0.58524  1.0000
  O   O7        1.0  0.38605  0.39935  0.91476  1.0000
  O   O8        1.0  0.61395  0.39935  0.58524  1.0000
  O   O9        1.0  0.11129  0.22049  0.17381  1.0000
  O   O10       1.0  0.88871  0.22049  0.32619  1.0000
  O   O11       1.0  0.61129  0.72049  0.17381  1.0000
  O   O12       1.0  0.38871  0.72049  0.32619  1.0000
  O   O13       1.0  0.88871  0.77951  0.82619  1.0000
  O   O14       1.0  0.11129  0.77951  0.67381  1.0000
  O   O15       1.0  0.38871  0.27951  0.82619  1.0000
  O   O16       1.0  0.61129  0.27951  0.67381  1.0000
  O   O17       1.0  0.21078  0.32853  0.33249  1.0000
  O   O18       1.0  0.78922  0.32853  0.16751  1.0000
  O   O19       1.0  0.71078  0.82853  0.33249  1.0000
  O   O20       1.0  0.28922  0.82853  0.16751  1.0000
  O   O21       1.0  0.78922  0.67147  0.66751  1.0000
  O   O22       1.0  0.21078  0.67147  0.83249  1.0000
  O   O23       1.0  0.28922  0.17147  0.66751  1.0000
  O   O24       1.0  0.71078  0.17147  0.83249  1.0000
  O   O25       1.0  0.38100  0.39498  0.43044  1.0000
  O   O26       1.0  0.61900  0.39498  0.06956  1.0000
  O   O27       1.0  0.88100  0.89498  0.43044  1.0000
  O   O28       1.0  0.11900  0.89498  0.06956  1.0000
  O   O29       1.0  0.61900  0.60502  0.56956  1.0000
  O   O30       1.0  0.38100  0.60502  0.93044  1.0000
  O   O31       1.0  0.11900  0.10502  0.56956  1.0000
  O   O32       1.0  0.88100  0.10502  0.93044  1.0000
  O   O33       1.0  0.10604  0.42939  0.16914  1.0000
  O   O34       1.0  0.89396  0.42939  0.33086  1.0000
  O   O35       1.0  0.60604  0.92939  0.16914  1.0000
  O   O36       1.0  0.39396  0.92939  0.33086  1.0000
  O   O37       1.0  0.89396  0.57061  0.83086  1.0000
  O   O38       1.0  0.10604  0.57061  0.66914  1.0000
  O   O39       1.0  0.39396  0.07061  0.83086  1.0000
  O   O40       1.0  0.60604  0.07061  0.66914  1.0000
  O   O41       1.0  0.27547  0.49160  0.07462  1.0000
  O   O42       1.0  0.72453  0.49160  0.42538  1.0000
  O   O43       1.0  0.77547  0.99160  0.07462  1.0000
  O   O44       1.0  0.22453  0.99160  0.42538  1.0000
  O   O45       1.0  0.72453  0.50840  0.92538  1.0000
  O   O46       1.0  0.27547  0.50840  0.57462  1.0000
  O   O47       1.0  0.22453  0.00840  0.92538  1.0000
  O   O48       1.0  0.77547  0.00840  0.57462  1.0000
  C   C1        1.0  0.04057  0.15842  0.13127  1.0000
  C   C2        1.0  0.95943  0.15842  0.36873  1.0000
  C   C3        1.0  0.54057  0.65842  0.13127  1.0000
  C   C4        1.0  0.45943  0.65842  0.36873  1.0000
  C   C5        1.0  0.95943  0.84158  0.86873  1.0000
  C   C6        1.0  0.04057  0.84158  0.63127  1.0000
  C   C7        1.0  0.45943  0.34158  0.86873  1.0000
  C   C8        1.0  0.54057  0.34158  0.63127  1.0000
  H   H1        1.0  0.92240  0.15430  0.13370  1.0000
  H   H2        1.0  0.07760  0.15430  0.36630  1.0000
  H   H3        1.0  0.42240  0.65430  0.13370  1.0000
  H   H4        1.0  0.57760  0.65430  0.36630  1.0000
  H   H5        1.0  0.07760  0.84570  0.86630  1.0000
  H   H6        1.0  0.92240  0.84570  0.63370  1.0000
  H   H7        1.0  0.57760  0.34570  0.86630  1.0000
  H   H8        1.0  0.42240  0.34570  0.63370  1.0000
  C   C9        1.0  0.28238  0.39646  0.36650  1.0000
  C   C10       1.0  0.71762  0.39646  0.13350  1.0000
  C   C11       1.0  0.78238  0.89646  0.36650  1.0000
  C   C12       1.0  0.21762  0.89646  0.13350  1.0000
  C   C13       1.0  0.71762  0.60354  0.63350  1.0000
  C   C14       1.0  0.28238  0.60354  0.86650  1.0000
  C   C15       1.0  0.21762  0.10354  0.63350  1.0000
  C   C16       1.0  0.78238  0.10354  0.86650  1.0000
  H   H9        1.0  0.25970  0.45360  0.34160  1.0000
  H   H10       1.0  0.74030  0.45360  0.15840  1.0000
  H   H11       1.0  0.75970  0.95360  0.34160  1.0000
  H   H12       1.0  0.24030  0.95360  0.15840  1.0000
  H   H13       1.0  0.74030  0.54640  0.65840  1.0000
  H   H14       1.0  0.25970  0.54640  0.84160  1.0000
  H   H15       1.0  0.24030  0.04640  0.65840  1.0000
  H   H16       1.0  0.75970  0.04640  0.84160  1.0000
  C   C17       1.0  0.24332  0.43439  0.13219  1.0000
  C   C18       1.0  0.75668  0.43439  0.36781  1.0000
  C   C19       1.0  0.74332  0.93439  0.13219  1.0000
  C   C20       1.0  0.25668  0.93439  0.36781  1.0000
  C   C21       1.0  0.75668  0.56561  0.86781  1.0000
  C   C22       1.0  0.24332  0.56561  0.63219  1.0000
  C   C23       1.0  0.25668  0.06561  0.86781  1.0000
  C   C24       1.0  0.74332  0.06561  0.63219  1.0000
  H   H17       1.0  0.32860  0.39270  0.14830  1.0000
  H   H18       1.0  0.67140  0.39270  0.35170  1.0000
  H   H19       1.0  0.82860  0.89270  0.14830  1.0000
  H   H20       1.0  0.17140  0.89270  0.35170  1.0000
  H   H21       1.0  0.67140  0.60730  0.85170  1.0000
  H   H22       1.0  0.32860  0.60730  0.64830  1.0000
  H   H23       1.0  0.17140  0.10730  0.85170  1.0000
  H   H24       1.0  0.82860  0.10730  0.64830  1.0000
