data_image0
_chemical_formula_structural       Zn8O48C8H8C8H8C8H8
_chemical_formula_sum              "Zn8 O48 C24 H24"
_cell_length_a       7.7761
_cell_length_b       14.5451
_cell_length_c       15.4769
_cell_angle_alpha    90
_cell_angle_beta     92.014
_cell_angle_gamma    90

_space_group_name_H-M_alt    "P 1"
_space_group_IT_number       1

loop_
  _space_group_symop_operation_xyz
  'x, y, z'

loop_
  _atom_site_type_symbol
  _atom_site_label
  _atom_site_symmetry_multiplicity
  _atom_site_fract_x
  _atom_site_fract_y
  _atom_site_fract_z
  _atom_site_occupancy
  Zn  Zn1       1.0  0.00000  0.00000  0.00000  1.0000
  Zn  Zn2       1.0  0.00000  0.00000  0.50000  1.0000
  Zn  Zn3       1.0  0.50000  0.50000  0.00000  1.0000
  Zn  Zn4       1.0  0.50000  0.50000  0.50000  1.0000
  Zn  Zn5       1.0  0.00000  0.32205  0.25000  1.0000
  Zn  Zn6       1.0  0.50000  0.82205  0.25000  1.0000
  Zn  Zn7       1.0  0.00000  0.67795  0.75000  1.0000
  Zn  Zn8       1.0  0.50000  0.17795  0.75000  1.0000
  O   O1        1.0  0.11806  0.09809  0.08583  1.0000
  O   O2        1.0  0.88194  0.09809  0.41417  1.0000
  O   O3        1.0  0.61806  0.59809  0.08583  1.0000
  O   O4        1.0  0.38194  0.59809  0.41417  1.0000
  O   O5        1.0  0.88194  0.90191  0.91417  1.0000
  O   O6        1.0  0.11806  0.90191  0.58583  1.0000
  O   O7        1.0  0.38194  0.40191  0.91417  1.0000
  O   O8        1.0  0.61806  0.40191  0.58583  1.0000
  O   O9        1.0  0.11478  0.21837  0.17485  1.0000
  O   O10       1.0  0.88522  0.21837  0.32515  1.0000
  O   O11       1.0  0.61478  0.71837  0.17485  1.0000
  O   O12       1.0  0.38522  0.71837  0.32515  1.0000
  O   O13       1.0  0.88522  0.78163  0.82515  1.0000
  O   O14       1.0  0.11478  0.78163  0.67485  1.0000
  O   O15       1.0  0.38522  0.28163  0.82515  1.0000
  O   O16       1.0  0.61478  0.28163  0.67485  1.0000
  O   O17       1.0  0.20839  0.32561  0.33497  1.0000
  O   O18       1.0  0.79161  0.32561  0.16503  1.0000
  O   O19       1.0  0.70839  0.82561  0.33497  1.0000
  O   O20       1.0  0.29161  0.82561  0.16503  1.0000
  O   O21       1.0  0.79161  0.67439  0.66503  1.0000
  O   O22       1.0  0.20839  0.67439  0.83497  1.0000
  O   O23       1.0  0.29161  0.17439  0.66503  1.0000
  O   O24       1.0  0.70839  0.17439  0.83497  1.0000
  O   O25       1.0  0.37910  0.39351  0.43348  1.0000
  O   O26       1.0  0.62090  0.39351  0.06652  1.0000
  O   O27       1.0  0.87910  0.89351  0.43348  1.0000
  O   O28       1.0  0.12090  0.89351  0.06652  1.0000
  O   O29       1.0  0.62090  0.60649  0.56652  1.0000
  O   O30       1.0  0.37910  0.60649  0.93348  1.0000
  O   O31       1.0  0.12090  0.10649  0.56652  1.0000
  O   O32       1.0  0.87910  0.10649  0.93348  1.0000
  O   O33       1.0  0.10668  0.42688  0.17076  1.0000
  O   O34       1.0  0.89332  0.42688  0.32924  1.0000
  O   O35       1.0  0.60668  0.92688  0.17076  1.0000
  O   O36       1.0  0.39332  0.92688  0.32924  1.0000
  O   O37       1.0  0.89332  0.57312  0.82924  1.0000
  O   O38       1.0  0.10668  0.57312  0.67076  1.0000
  O   O39       1.0  0.39332  0.07312  0.82924  1.0000
  O   O40       1.0  0.60668  0.07312  0.67076  1.0000
  O   O41       1.0  0.27520  0.49121  0.07549  1.0000
  O   O42       1.0  0.72480  0.49121  0.42451  1.0000
  O   O43       1.0  0.77520  0.99121  0.07549  1.0000
  O   O44       1.0  0.22480  0.99121  0.42451  1.0000
  O   O45       1.0  0.72480  0.50879  0.92451  1.0000
  O   O46       1.0  0.27520  0.50879  0.57549  1.0000
  O   O47       1.0  0.22480  0.00879  0.92451  1.0000
  O   O48       1.0  0.77520  0.00879  0.57549  1.0000
  C   C1        1.0  0.04168  0.15726  0.13058  1.0000
  C   C2        1.0  0.95832  0.15726  0.36942  1.0000
  C   C3        1.0  0.54168  0.65726  0.13058  1.0000
  C   C4        1.0  0.45832  0.65726  0.36942  1.0000
  C   C5        1.0  0.95832  0.84274  0.86942  1.0000
  C   C6        1.0  0.04168  0.84274  0.63058  1.0000
  C   C7        1.0  0.45832  0.34274  0.86942  1.0000
  C   C8        1.0  0.54168  0.34274  0.63058  1.0000
  H   H1        1.0  0.91960  0.15500  0.13040  1.0000
  H   H2        1.0  0.08040  0.15500  0.36960  1.0000
  H   H3        1.0  0.41960  0.65500  0.13040  1.0000
  H   H4        1.0  0.58040  0.65500  0.36960  1.0000
  H   H5        1.0  0.08040  0.84500  0.86960  1.0000
  H   H6        1.0  0.91960  0.84500  0.63040  1.0000
  H   H7        1.0  0.58040  0.34500  0.86960  1.0000
  H   H8        1.0  0.41960  0.34500  0.63040  1.0000
  C   C9        1.0  0.28177  0.39485  0.36728  1.0000
  C   C10       1.0  0.71823  0.39485  0.13272  1.0000
  C   C11       1.0  0.78177  0.89485  0.36728  1.0000
  C   C12       1.0  0.21823  0.89485  0.13272  1.0000
  C   C13       1.0  0.71823  0.60515  0.63272  1.0000
  C   C14       1.0  0.28177  0.60515  0.86728  1.0000
  C   C15       1.0  0.21823  0.10515  0.63272  1.0000
  C   C16       1.0  0.78177  0.10515  0.86728  1.0000
  H   H9        1.0  0.26220  0.45240  0.33960  1.0000
  H   H10       1.0  0.73780  0.45240  0.16040  1.0000
  H   H11       1.0  0.76220  0.95240  0.33960  1.0000
  H   H12       1.0  0.23780  0.95240  0.16040  1.0000
  H   H13       1.0  0.73780  0.54760  0.66040  1.0000
  H   H14       1.0  0.26220  0.54760  0.83960  1.0000
  H   H15       1.0  0.23780  0.04760  0.66040  1.0000
  H   H16       1.0  0.76220  0.04760  0.83960  1.0000
  C   C17       1.0  0.24591  0.43284  0.13353  1.0000
  C   C18       1.0  0.75409  0.43284  0.36647  1.0000
  C   C19       1.0  0.74591  0.93284  0.13353  1.0000
  C   C20       1.0  0.25409  0.93284  0.36647  1.0000
  C   C21       1.0  0.75409  0.56716  0.86647  1.0000
  C   C22       1.0  0.24591  0.56716  0.63353  1.0000
  C   C23       1.0  0.25409  0.06716  0.86647  1.0000
  C   C24       1.0  0.74591  0.06716  0.63353  1.0000
  H   H17       1.0  0.33510  0.39100  0.14980  1.0000
  H   H18       1.0  0.66490  0.39100  0.35020  1.0000
  H   H19       1.0  0.83510  0.89100  0.14980  1.0000
  H   H20       1.0  0.16490  0.89100  0.35020  1.0000
  H   H21       1.0  0.66490  0.60900  0.85020  1.0000
  H   H22       1.0  0.33510  0.60900  0.64980  1.0000
  H   H23       1.0  0.16490  0.10900  0.85020  1.0000
  H   H24       1.0  0.83510  0.10900  0.64980  1.0000
