data_image0
_chemical_formula_structural       Zn2O12C12O12H12Zn2
_chemical_formula_sum              "Zn4 O24 C12 H12"
_cell_length_a       8.1587
_cell_length_b       8.1587
_cell_length_c       15.4682
_cell_angle_alpha    90
_cell_angle_beta     90
_cell_angle_gamma    120

_space_group_name_H-M_alt    "P 1"
_space_group_IT_number       1

loop_
  _space_group_symop_operation_xyz
  'x, y, z'

loop_
  _atom_site_type_symbol
  _atom_site_label
  _atom_site_symmetry_multiplicity
  _atom_site_fract_x
  _atom_site_fract_y
  _atom_site_fract_z
  _atom_site_occupancy
  Zn  Zn1       1.0  0.00000  0.00000  0.00000  1.0000
  Zn  Zn2       1.0  0.00000  0.00000  0.50000  1.0000
  O   O1        1.0  0.21190  0.21770  0.07734  1.0000
  O   O2        1.0  0.78230  0.99420  0.07734  1.0000
  O   O3        1.0  0.00580  0.78810  0.07734  1.0000
  O   O4        1.0  0.78230  0.78810  0.42266  1.0000
  O   O5        1.0  0.00580  0.21770  0.42266  1.0000
  O   O6        1.0  0.21190  0.99420  0.42266  1.0000
  O   O7        1.0  0.78810  0.78230  0.92266  1.0000
  O   O8        1.0  0.21770  0.00580  0.92266  1.0000
  O   O9        1.0  0.99420  0.21190  0.92266  1.0000
  O   O10       1.0  0.21770  0.21190  0.57734  1.0000
  O   O11       1.0  0.99420  0.78230  0.57734  1.0000
  O   O12       1.0  0.78810  0.00580  0.57734  1.0000
  C   C1        1.0  0.20030  0.32120  0.13234  1.0000
  C   C2        1.0  0.67880  0.87910  0.13234  1.0000
  C   C3        1.0  0.12090  0.79970  0.13234  1.0000
  C   C4        1.0  0.67880  0.79970  0.36766  1.0000
  C   C5        1.0  0.12090  0.32120  0.36766  1.0000
  C   C6        1.0  0.20030  0.87910  0.36766  1.0000
  C   C7        1.0  0.79970  0.67880  0.86766  1.0000
  C   C8        1.0  0.32120  0.12090  0.86766  1.0000
  C   C9        1.0  0.87910  0.20030  0.86766  1.0000
  C   C10       1.0  0.32120  0.20030  0.63234  1.0000
  C   C11       1.0  0.87910  0.67880  0.63234  1.0000
  C   C12       1.0  0.79970  0.12090  0.63234  1.0000
  O   O13       1.0  0.33280  0.45620  0.16973  1.0000
  O   O14       1.0  0.54380  0.87660  0.16973  1.0000
  O   O15       1.0  0.12340  0.66720  0.16973  1.0000
  O   O16       1.0  0.54380  0.66720  0.33027  1.0000
  O   O17       1.0  0.12340  0.45620  0.33027  1.0000
  O   O18       1.0  0.33280  0.87660  0.33027  1.0000
  O   O19       1.0  0.66720  0.54380  0.83027  1.0000
  O   O20       1.0  0.45620  0.12340  0.83027  1.0000
  O   O21       1.0  0.87660  0.33280  0.83027  1.0000
  O   O22       1.0  0.45620  0.33280  0.66973  1.0000
  O   O23       1.0  0.87660  0.54380  0.66973  1.0000
  O   O24       1.0  0.66720  0.12340  0.66973  1.0000
  H   H1        1.0  0.07900  0.29480  0.14710  1.0000
  H   H2        1.0  0.70520  0.78420  0.14710  1.0000
  H   H3        1.0  0.21580  0.92100  0.14710  1.0000
  H   H4        1.0  0.70520  0.92100  0.35290  1.0000
  H   H5        1.0  0.21580  0.29480  0.35290  1.0000
  H   H6        1.0  0.07900  0.78420  0.35290  1.0000
  H   H7        1.0  0.92100  0.70520  0.85290  1.0000
  H   H8        1.0  0.29480  0.21580  0.85290  1.0000
  H   H9        1.0  0.78420  0.07900  0.85290  1.0000
  H   H10       1.0  0.29480  0.07900  0.64710  1.0000
  H   H11       1.0  0.78420  0.70520  0.64710  1.0000
  H   H12       1.0  0.92100  0.21580  0.64710  1.0000
  Zn  Zn3       1.0  0.33330  0.66670  0.25000  1.0000
  Zn  Zn4       1.0  0.66670  0.33330  0.75000  1.0000
