data_image0
_chemical_formula_structural       Zn8O48C8H8C8H8C8H8
_chemical_formula_sum              "Zn8 O48 C24 H24"
_cell_length_a       7.9087
_cell_length_b       14.4579
_cell_length_c       15.5075
_cell_angle_alpha    90
_cell_angle_beta     91.506
_cell_angle_gamma    90

_space_group_name_H-M_alt    "P 1"
_space_group_IT_number       1

loop_
  _space_group_symop_operation_xyz
  'x, y, z'

loop_
  _atom_site_type_symbol
  _atom_site_label
  _atom_site_symmetry_multiplicity
  _atom_site_fract_x
  _atom_site_fract_y
  _atom_site_fract_z
  _atom_site_occupancy
  Zn  Zn1       1.0  0.00000  0.00000  0.00000  1.0000
  Zn  Zn2       1.0  0.00000  0.00000  0.50000  1.0000
  Zn  Zn3       1.0  0.50000  0.50000  0.00000  1.0000
  Zn  Zn4       1.0  0.50000  0.50000  0.50000  1.0000
  Zn  Zn5       1.0  1.00000  0.32632  0.25000  1.0000
  Zn  Zn6       1.0  0.50000  0.82632  0.25000  1.0000
  Zn  Zn7       1.0  0.00000  0.67368  0.75000  1.0000
  Zn  Zn8       1.0  0.50000  0.17368  0.75000  1.0000
  O   O1        1.0  0.11118  0.10226  0.08404  1.0000
  O   O2        1.0  0.88882  0.10226  0.41596  1.0000
  O   O3        1.0  0.61118  0.60226  0.08404  1.0000
  O   O4        1.0  0.38882  0.60226  0.41596  1.0000
  O   O5        1.0  0.88882  0.89774  0.91596  1.0000
  O   O6        1.0  0.11118  0.89774  0.58404  1.0000
  O   O7        1.0  0.38882  0.39774  0.91596  1.0000
  O   O8        1.0  0.61118  0.39774  0.58404  1.0000
  O   O9        1.0  0.10880  0.22234  0.17264  1.0000
  O   O10       1.0  0.89120  0.22234  0.32736  1.0000
  O   O11       1.0  0.60880  0.72234  0.17264  1.0000
  O   O12       1.0  0.39120  0.72234  0.32736  1.0000
  O   O13       1.0  0.89120  0.77766  0.82736  1.0000
  O   O14       1.0  0.10880  0.77766  0.67264  1.0000
  O   O15       1.0  0.39120  0.27766  0.82736  1.0000
  O   O16       1.0  0.60880  0.27766  0.67264  1.0000
  O   O17       1.0  0.21218  0.32989  0.33128  1.0000
  O   O18       1.0  0.78782  0.32989  0.16872  1.0000
  O   O19       1.0  0.71218  0.82989  0.33128  1.0000
  O   O20       1.0  0.28782  0.82989  0.16872  1.0000
  O   O21       1.0  0.78782  0.67011  0.66872  1.0000
  O   O22       1.0  0.21218  0.67011  0.83128  1.0000
  O   O23       1.0  0.28782  0.17011  0.66872  1.0000
  O   O24       1.0  0.71218  0.17011  0.83128  1.0000
  O   O25       1.0  0.38291  0.39505  0.42848  1.0000
  O   O26       1.0  0.61709  0.39505  0.07152  1.0000
  O   O27       1.0  0.88291  0.89505  0.42848  1.0000
  O   O28       1.0  0.11709  0.89505  0.07152  1.0000
  O   O29       1.0  0.61709  0.60495  0.57152  1.0000
  O   O30       1.0  0.38291  0.60495  0.92848  1.0000
  O   O31       1.0  0.11709  0.10495  0.57152  1.0000
  O   O32       1.0  0.88291  0.10495  0.92848  1.0000
  O   O33       1.0  0.10502  0.43119  0.16865  1.0000
  O   O34       1.0  0.89498  0.43119  0.33135  1.0000
  O   O35       1.0  0.60502  0.93119  0.16865  1.0000
  O   O36       1.0  0.39498  0.93119  0.33135  1.0000
  O   O37       1.0  0.89498  0.56881  0.83135  1.0000
  O   O38       1.0  0.10502  0.56881  0.66865  1.0000
  O   O39       1.0  0.39498  0.06881  0.83135  1.0000
  O   O40       1.0  0.60502  0.06881  0.66865  1.0000
  O   O41       1.0  0.27697  0.49234  0.07479  1.0000
  O   O42       1.0  0.72303  0.49234  0.42521  1.0000
  O   O43       1.0  0.77697  0.99234  0.07479  1.0000
  O   O44       1.0  0.22303  0.99234  0.42521  1.0000
  O   O45       1.0  0.72303  0.50766  0.92521  1.0000
  O   O46       1.0  0.27697  0.50766  0.57479  1.0000
  O   O47       1.0  0.22303  0.00766  0.92521  1.0000
  O   O48       1.0  0.77697  0.00766  0.57479  1.0000
  C   C1        1.0  0.03950  0.15897  0.13153  1.0000
  C   C2        1.0  0.96050  0.15897  0.36847  1.0000
  C   C3        1.0  0.53950  0.65897  0.13153  1.0000
  C   C4        1.0  0.46050  0.65897  0.36847  1.0000
  C   C5        1.0  0.96050  0.84103  0.86847  1.0000
  C   C6        1.0  0.03950  0.84103  0.63153  1.0000
  C   C7        1.0  0.46050  0.34103  0.86847  1.0000
  C   C8        1.0  0.53950  0.34103  0.63153  1.0000
  H   H1        1.0  0.92310  0.15300  0.13640  1.0000
  H   H2        1.0  0.07690  0.15300  0.36360  1.0000
  H   H3        1.0  0.42310  0.65300  0.13640  1.0000
  H   H4        1.0  0.57690  0.65300  0.36360  1.0000
  H   H5        1.0  0.07690  0.84700  0.86360  1.0000
  H   H6        1.0  0.92310  0.84700  0.63640  1.0000
  H   H7        1.0  0.57690  0.34700  0.86360  1.0000
  H   H8        1.0  0.42310  0.34700  0.63640  1.0000
  C   C9        1.0  0.28250  0.39702  0.36643  1.0000
  C   C10       1.0  0.71750  0.39702  0.13357  1.0000
  C   C11       1.0  0.78250  0.89702  0.36643  1.0000
  C   C12       1.0  0.21750  0.89702  0.13357  1.0000
  C   C13       1.0  0.71750  0.60298  0.63357  1.0000
  C   C14       1.0  0.28250  0.60298  0.86643  1.0000
  C   C15       1.0  0.21750  0.10298  0.63357  1.0000
  C   C16       1.0  0.78250  0.10298  0.86643  1.0000
  H   H9        1.0  0.25680  0.45500  0.34360  1.0000
  H   H10       1.0  0.74320  0.45500  0.15640  1.0000
  H   H11       1.0  0.75680  0.95500  0.34360  1.0000
  H   H12       1.0  0.24320  0.95500  0.15640  1.0000
  H   H13       1.0  0.74320  0.54500  0.65640  1.0000
  H   H14       1.0  0.25680  0.54500  0.84360  1.0000
  H   H15       1.0  0.24320  0.04500  0.65640  1.0000
  H   H16       1.0  0.75680  0.04500  0.84360  1.0000
  C   C17       1.0  0.24160  0.43548  0.13190  1.0000
  C   C18       1.0  0.75840  0.43548  0.36810  1.0000
  C   C19       1.0  0.74160  0.93548  0.13190  1.0000
  C   C20       1.0  0.25840  0.93548  0.36810  1.0000
  C   C21       1.0  0.75840  0.56452  0.86810  1.0000
  C   C22       1.0  0.24160  0.56452  0.63190  1.0000
  C   C23       1.0  0.25840  0.06452  0.86810  1.0000
  C   C24       1.0  0.74160  0.06452  0.63190  1.0000
  H   H17       1.0  0.32450  0.39290  0.14820  1.0000
  H   H18       1.0  0.67550  0.39290  0.35180  1.0000
  H   H19       1.0  0.82450  0.89290  0.14820  1.0000
  H   H20       1.0  0.17550  0.89290  0.35180  1.0000
  H   H21       1.0  0.67550  0.60710  0.85180  1.0000
  H   H22       1.0  0.32450  0.60710  0.64820  1.0000
  H   H23       1.0  0.17550  0.10710  0.85180  1.0000
  H   H24       1.0  0.82450  0.10710  0.64820  1.0000
