data_image0
_chemical_formula_structural       Zn2O12C12O12H12Zn2
_chemical_formula_sum              "Zn4 O24 C12 H12"
_cell_length_a       8.1494
_cell_length_b       8.1494
_cell_length_c       15.4662
_cell_angle_alpha    90
_cell_angle_beta     90
_cell_angle_gamma    120

_space_group_name_H-M_alt    "P 1"
_space_group_IT_number       1

loop_
  _space_group_symop_operation_xyz
  'x, y, z'

loop_
  _atom_site_type_symbol
  _atom_site_label
  _atom_site_symmetry_multiplicity
  _atom_site_fract_x
  _atom_site_fract_y
  _atom_site_fract_z
  _atom_site_occupancy
  Zn  Zn1       1.0  0.00000  0.00000  0.00000  1.0000
  Zn  Zn2       1.0  0.00000  0.00000  0.50000  1.0000
  O   O1        1.0  0.21210  0.21790  0.07730  1.0000
  O   O2        1.0  0.78210  0.99420  0.07730  1.0000
  O   O3        1.0  0.00580  0.78790  0.07730  1.0000
  O   O4        1.0  0.78210  0.78790  0.42270  1.0000
  O   O5        1.0  0.00580  0.21790  0.42270  1.0000
  O   O6        1.0  0.21210  0.99420  0.42270  1.0000
  O   O7        1.0  0.78790  0.78210  0.92270  1.0000
  O   O8        1.0  0.21790  0.00580  0.92270  1.0000
  O   O9        1.0  0.99420  0.21210  0.92270  1.0000
  O   O10       1.0  0.21790  0.21210  0.57730  1.0000
  O   O11       1.0  0.99420  0.78210  0.57730  1.0000
  O   O12       1.0  0.78790  0.00580  0.57730  1.0000
  C   C1        1.0  0.20020  0.32090  0.13245  1.0000
  C   C2        1.0  0.67910  0.87930  0.13245  1.0000
  C   C3        1.0  0.12070  0.79980  0.13245  1.0000
  C   C4        1.0  0.67910  0.79980  0.36755  1.0000
  C   C5        1.0  0.12070  0.32090  0.36755  1.0000
  C   C6        1.0  0.20020  0.87930  0.36755  1.0000
  C   C7        1.0  0.79980  0.67910  0.86755  1.0000
  C   C8        1.0  0.32090  0.12070  0.86755  1.0000
  C   C9        1.0  0.87930  0.20020  0.86755  1.0000
  C   C10       1.0  0.32090  0.20020  0.63245  1.0000
  C   C11       1.0  0.87930  0.67910  0.63245  1.0000
  C   C12       1.0  0.79980  0.12070  0.63245  1.0000
  O   O13       1.0  0.33280  0.45610  0.16970  1.0000
  O   O14       1.0  0.54390  0.87670  0.16970  1.0000
  O   O15       1.0  0.12330  0.66720  0.16970  1.0000
  O   O16       1.0  0.54390  0.66720  0.33030  1.0000
  O   O17       1.0  0.12330  0.45610  0.33030  1.0000
  O   O18       1.0  0.33280  0.87670  0.33030  1.0000
  O   O19       1.0  0.66720  0.54390  0.83030  1.0000
  O   O20       1.0  0.45610  0.12330  0.83030  1.0000
  O   O21       1.0  0.87670  0.33280  0.83030  1.0000
  O   O22       1.0  0.45610  0.33280  0.66970  1.0000
  O   O23       1.0  0.87670  0.54390  0.66970  1.0000
  O   O24       1.0  0.66720  0.12330  0.66970  1.0000
  H   H1        1.0  0.07870  0.29380  0.14750  1.0000
  H   H2        1.0  0.70620  0.78490  0.14750  1.0000
  H   H3        1.0  0.21510  0.92130  0.14750  1.0000
  H   H4        1.0  0.70620  0.92130  0.35250  1.0000
  H   H5        1.0  0.21510  0.29380  0.35250  1.0000
  H   H6        1.0  0.07870  0.78490  0.35250  1.0000
  H   H7        1.0  0.92130  0.70620  0.85250  1.0000
  H   H8        1.0  0.29380  0.21510  0.85250  1.0000
  H   H9        1.0  0.78490  0.07870  0.85250  1.0000
  H   H10       1.0  0.29380  0.07870  0.64750  1.0000
  H   H11       1.0  0.78490  0.70620  0.64750  1.0000
  H   H12       1.0  0.92130  0.21510  0.64750  1.0000
  Zn  Zn3       1.0  0.33330  0.66670  0.25000  1.0000
  Zn  Zn4       1.0  0.66670  0.33330  0.75000  1.0000
