data_image0
_chemical_formula_structural       Zn8O48C8H8C8H8C8H8
_chemical_formula_sum              "Zn8 O48 C24 H24"
_cell_length_a       7.8122
_cell_length_b       14.5332
_cell_length_c       15.5106
_cell_angle_alpha    90
_cell_angle_beta     91.999
_cell_angle_gamma    90

_space_group_name_H-M_alt    "P 1"
_space_group_IT_number       1

loop_
  _space_group_symop_operation_xyz
  'x, y, z'

loop_
  _atom_site_type_symbol
  _atom_site_label
  _atom_site_symmetry_multiplicity
  _atom_site_fract_x
  _atom_site_fract_y
  _atom_site_fract_z
  _atom_site_occupancy
  Zn  Zn1       1.0  0.00000  0.00000  0.00000  1.0000
  Zn  Zn2       1.0  0.00000  0.00000  0.50000  1.0000
  Zn  Zn3       1.0  0.50000  0.50000  0.00000  1.0000
  Zn  Zn4       1.0  0.50000  0.50000  0.50000  1.0000
  Zn  Zn5       1.0  0.00000  0.32367  0.25000  1.0000
  Zn  Zn6       1.0  0.50000  0.82367  0.25000  1.0000
  Zn  Zn7       1.0  0.00000  0.67633  0.75000  1.0000
  Zn  Zn8       1.0  0.50000  0.17633  0.75000  1.0000
  O   O1        1.0  0.11534  0.09989  0.08552  1.0000
  O   O2        1.0  0.88466  0.09989  0.41448  1.0000
  O   O3        1.0  0.61534  0.59989  0.08552  1.0000
  O   O4        1.0  0.38466  0.59989  0.41448  1.0000
  O   O5        1.0  0.88466  0.90011  0.91448  1.0000
  O   O6        1.0  0.11534  0.90011  0.58552  1.0000
  O   O7        1.0  0.38466  0.40011  0.91448  1.0000
  O   O8        1.0  0.61534  0.40011  0.58552  1.0000
  O   O9        1.0  0.11236  0.21975  0.17422  1.0000
  O   O10       1.0  0.88764  0.21975  0.32578  1.0000
  O   O11       1.0  0.61236  0.71975  0.17422  1.0000
  O   O12       1.0  0.38764  0.71975  0.32578  1.0000
  O   O13       1.0  0.88764  0.78025  0.82578  1.0000
  O   O14       1.0  0.11236  0.78025  0.67422  1.0000
  O   O15       1.0  0.38764  0.28025  0.82578  1.0000
  O   O16       1.0  0.61236  0.28025  0.67422  1.0000
  O   O17       1.0  0.21006  0.32776  0.33321  1.0000
  O   O18       1.0  0.78994  0.32776  0.16679  1.0000
  O   O19       1.0  0.71006  0.82776  0.33321  1.0000
  O   O20       1.0  0.28994  0.82776  0.16679  1.0000
  O   O21       1.0  0.78994  0.67224  0.66679  1.0000
  O   O22       1.0  0.21006  0.67224  0.83321  1.0000
  O   O23       1.0  0.28994  0.17224  0.66679  1.0000
  O   O24       1.0  0.71006  0.17224  0.83321  1.0000
  O   O25       1.0  0.38042  0.39470  0.43142  1.0000
  O   O26       1.0  0.61958  0.39470  0.06858  1.0000
  O   O27       1.0  0.88042  0.89470  0.43142  1.0000
  O   O28       1.0  0.11958  0.89470  0.06858  1.0000
  O   O29       1.0  0.61958  0.60530  0.56858  1.0000
  O   O30       1.0  0.38042  0.60530  0.93142  1.0000
  O   O31       1.0  0.11958  0.10530  0.56858  1.0000
  O   O32       1.0  0.88042  0.10530  0.93142  1.0000
  O   O33       1.0  0.10642  0.42851  0.16958  1.0000
  O   O34       1.0  0.89358  0.42851  0.33042  1.0000
  O   O35       1.0  0.60642  0.92851  0.16958  1.0000
  O   O36       1.0  0.39358  0.92851  0.33042  1.0000
  O   O37       1.0  0.89358  0.57149  0.83042  1.0000
  O   O38       1.0  0.10642  0.57149  0.66958  1.0000
  O   O39       1.0  0.39358  0.07149  0.83042  1.0000
  O   O40       1.0  0.60642  0.07149  0.66958  1.0000
  O   O41       1.0  0.27507  0.49142  0.07478  1.0000
  O   O42       1.0  0.72493  0.49142  0.42522  1.0000
  O   O43       1.0  0.77507  0.99142  0.07478  1.0000
  O   O44       1.0  0.22493  0.99142  0.42522  1.0000
  O   O45       1.0  0.72493  0.50858  0.92522  1.0000
  O   O46       1.0  0.27507  0.50858  0.57478  1.0000
  O   O47       1.0  0.22493  0.00858  0.92522  1.0000
  O   O48       1.0  0.77507  0.00858  0.57478  1.0000
  C   C1        1.0  0.04083  0.15812  0.13107  1.0000
  C   C2        1.0  0.95917  0.15812  0.36893  1.0000
  C   C3        1.0  0.54083  0.65812  0.13107  1.0000
  C   C4        1.0  0.45917  0.65812  0.36893  1.0000
  C   C5        1.0  0.95917  0.84188  0.86893  1.0000
  C   C6        1.0  0.04083  0.84188  0.63107  1.0000
  C   C7        1.0  0.45917  0.34188  0.86893  1.0000
  C   C8        1.0  0.54083  0.34188  0.63107  1.0000
  H   H1        1.0  0.92080  0.15460  0.13250  1.0000
  H   H2        1.0  0.07920  0.15460  0.36750  1.0000
  H   H3        1.0  0.42080  0.65460  0.13250  1.0000
  H   H4        1.0  0.57920  0.65460  0.36750  1.0000
  H   H5        1.0  0.07920  0.84540  0.86750  1.0000
  H   H6        1.0  0.92080  0.84540  0.63250  1.0000
  H   H7        1.0  0.57920  0.34540  0.86750  1.0000
  H   H8        1.0  0.42080  0.34540  0.63250  1.0000
  C   C9        1.0  0.28200  0.39611  0.36663  1.0000
  C   C10       1.0  0.71800  0.39611  0.13337  1.0000
  C   C11       1.0  0.78200  0.89611  0.36663  1.0000
  C   C12       1.0  0.21800  0.89611  0.13337  1.0000
  C   C13       1.0  0.71800  0.60389  0.63337  1.0000
  C   C14       1.0  0.28200  0.60389  0.86663  1.0000
  C   C15       1.0  0.21800  0.10389  0.63337  1.0000
  C   C16       1.0  0.78200  0.10389  0.86663  1.0000
  H   H9        1.0  0.26010  0.45360  0.34070  1.0000
  H   H10       1.0  0.73990  0.45360  0.15930  1.0000
  H   H11       1.0  0.76010  0.95360  0.34070  1.0000
  H   H12       1.0  0.23990  0.95360  0.15930  1.0000
  H   H13       1.0  0.73990  0.54640  0.65930  1.0000
  H   H14       1.0  0.26010  0.54640  0.84070  1.0000
  H   H15       1.0  0.23990  0.04640  0.65930  1.0000
  H   H16       1.0  0.76010  0.04640  0.84070  1.0000
  C   C17       1.0  0.24417  0.43395  0.13256  1.0000
  C   C18       1.0  0.75583  0.43395  0.36744  1.0000
  C   C19       1.0  0.74417  0.93395  0.13256  1.0000
  C   C20       1.0  0.25583  0.93395  0.36744  1.0000
  C   C21       1.0  0.75583  0.56605  0.86744  1.0000
  C   C22       1.0  0.24417  0.56605  0.63256  1.0000
  C   C23       1.0  0.25583  0.06605  0.86744  1.0000
  C   C24       1.0  0.74417  0.06605  0.63256  1.0000
  H   H17       1.0  0.33130  0.39220  0.14890  1.0000
  H   H18       1.0  0.66870  0.39220  0.35110  1.0000
  H   H19       1.0  0.83130  0.89220  0.14890  1.0000
  H   H20       1.0  0.16870  0.89220  0.35110  1.0000
  H   H21       1.0  0.66870  0.60780  0.85110  1.0000
  H   H22       1.0  0.33130  0.60780  0.64890  1.0000
  H   H23       1.0  0.16870  0.10780  0.85110  1.0000
  H   H24       1.0  0.83130  0.10780  0.64890  1.0000
