data_image0
_chemical_formula_structural       Zn8O48C8H8C8H8C8H8
_chemical_formula_sum              "Zn8 O48 C24 H24"
_cell_length_a       7.7958
_cell_length_b       14.5392
_cell_length_c       15.5015
_cell_angle_alpha    90
_cell_angle_beta     92.023
_cell_angle_gamma    90

_space_group_name_H-M_alt    "P 1"
_space_group_IT_number       1

loop_
  _space_group_symop_operation_xyz
  'x, y, z'

loop_
  _atom_site_type_symbol
  _atom_site_label
  _atom_site_symmetry_multiplicity
  _atom_site_fract_x
  _atom_site_fract_y
  _atom_site_fract_z
  _atom_site_occupancy
  Zn  Zn1       1.0  0.00000  0.00000  0.00000  1.0000
  Zn  Zn2       1.0  0.00000  0.00000  0.50000  1.0000
  Zn  Zn3       1.0  0.50000  0.50000  0.00000  1.0000
  Zn  Zn4       1.0  0.50000  0.50000  0.50000  1.0000
  Zn  Zn5       1.0  0.00000  0.32298  0.25000  1.0000
  Zn  Zn6       1.0  0.50000  0.82298  0.25000  1.0000
  Zn  Zn7       1.0  0.00000  0.67702  0.75000  1.0000
  Zn  Zn8       1.0  0.50000  0.17702  0.75000  1.0000
  O   O1        1.0  0.11664  0.09914  0.08565  1.0000
  O   O2        1.0  0.88336  0.09914  0.41435  1.0000
  O   O3        1.0  0.61664  0.59914  0.08565  1.0000
  O   O4        1.0  0.38336  0.59914  0.41435  1.0000
  O   O5        1.0  0.88336  0.90086  0.91435  1.0000
  O   O6        1.0  0.11664  0.90086  0.58565  1.0000
  O   O7        1.0  0.38336  0.40086  0.91435  1.0000
  O   O8        1.0  0.61664  0.40086  0.58565  1.0000
  O   O9        1.0  0.11337  0.21918  0.17458  1.0000
  O   O10       1.0  0.88663  0.21918  0.32542  1.0000
  O   O11       1.0  0.61337  0.71918  0.17458  1.0000
  O   O12       1.0  0.38663  0.71918  0.32542  1.0000
  O   O13       1.0  0.88663  0.78082  0.82542  1.0000
  O   O14       1.0  0.11337  0.78082  0.67458  1.0000
  O   O15       1.0  0.38663  0.28082  0.82542  1.0000
  O   O16       1.0  0.61337  0.28082  0.67458  1.0000
  O   O17       1.0  0.20921  0.32688  0.33400  1.0000
  O   O18       1.0  0.79079  0.32688  0.16600  1.0000
  O   O19       1.0  0.70921  0.82688  0.33400  1.0000
  O   O20       1.0  0.29079  0.82688  0.16600  1.0000
  O   O21       1.0  0.79079  0.67312  0.66600  1.0000
  O   O22       1.0  0.20921  0.67312  0.83400  1.0000
  O   O23       1.0  0.29079  0.17312  0.66600  1.0000
  O   O24       1.0  0.70921  0.17312  0.83400  1.0000
  O   O25       1.0  0.37983  0.39427  0.43230  1.0000
  O   O26       1.0  0.62017  0.39427  0.06770  1.0000
  O   O27       1.0  0.87983  0.89427  0.43230  1.0000
  O   O28       1.0  0.12017  0.89427  0.06770  1.0000
  O   O29       1.0  0.62017  0.60573  0.56770  1.0000
  O   O30       1.0  0.37983  0.60573  0.93230  1.0000
  O   O31       1.0  0.12017  0.10573  0.56770  1.0000
  O   O32       1.0  0.87983  0.10573  0.93230  1.0000
  O   O33       1.0  0.10668  0.42792  0.17016  1.0000
  O   O34       1.0  0.89332  0.42792  0.32984  1.0000
  O   O35       1.0  0.60668  0.92792  0.17016  1.0000
  O   O36       1.0  0.39332  0.92792  0.32984  1.0000
  O   O37       1.0  0.89332  0.57208  0.82984  1.0000
  O   O38       1.0  0.10668  0.57208  0.67016  1.0000
  O   O39       1.0  0.39332  0.07208  0.82984  1.0000
  O   O40       1.0  0.60668  0.07208  0.67016  1.0000
  O   O41       1.0  0.27507  0.49131  0.07506  1.0000
  O   O42       1.0  0.72493  0.49131  0.42494  1.0000
  O   O43       1.0  0.77507  0.99131  0.07506  1.0000
  O   O44       1.0  0.22493  0.99131  0.42494  1.0000
  O   O45       1.0  0.72493  0.50869  0.92494  1.0000
  O   O46       1.0  0.27507  0.50869  0.57506  1.0000
  O   O47       1.0  0.22493  0.00869  0.92494  1.0000
  O   O48       1.0  0.77507  0.00869  0.57506  1.0000
  C   C1        1.0  0.04127  0.15777  0.13090  1.0000
  C   C2        1.0  0.95873  0.15777  0.36910  1.0000
  C   C3        1.0  0.54127  0.65777  0.13090  1.0000
  C   C4        1.0  0.45873  0.65777  0.36910  1.0000
  C   C5        1.0  0.95873  0.84223  0.86910  1.0000
  C   C6        1.0  0.04127  0.84223  0.63090  1.0000
  C   C7        1.0  0.45873  0.34223  0.86910  1.0000
  C   C8        1.0  0.54127  0.34223  0.63090  1.0000
  H   H1        1.0  0.91960  0.15470  0.13160  1.0000
  H   H2        1.0  0.08040  0.15470  0.36840  1.0000
  H   H3        1.0  0.41960  0.65470  0.13160  1.0000
  H   H4        1.0  0.58040  0.65470  0.36840  1.0000
  H   H5        1.0  0.08040  0.84530  0.86840  1.0000
  H   H6        1.0  0.91960  0.84530  0.63160  1.0000
  H   H7        1.0  0.58040  0.34530  0.86840  1.0000
  H   H8        1.0  0.41960  0.34530  0.63160  1.0000
  C   C9        1.0  0.28195  0.39562  0.36684  1.0000
  C   C10       1.0  0.71805  0.39562  0.13316  1.0000
  C   C11       1.0  0.78195  0.89562  0.36684  1.0000
  C   C12       1.0  0.21805  0.89562  0.13316  1.0000
  C   C13       1.0  0.71805  0.60438  0.63316  1.0000
  C   C14       1.0  0.28195  0.60438  0.86684  1.0000
  C   C15       1.0  0.21805  0.10438  0.63316  1.0000
  C   C16       1.0  0.78195  0.10438  0.86684  1.0000
  H   H9        1.0  0.26120  0.45340  0.33990  1.0000
  H   H10       1.0  0.73880  0.45340  0.16010  1.0000
  H   H11       1.0  0.76120  0.95340  0.33990  1.0000
  H   H12       1.0  0.23880  0.95340  0.16010  1.0000
  H   H13       1.0  0.73880  0.54660  0.66010  1.0000
  H   H14       1.0  0.26120  0.54660  0.83990  1.0000
  H   H15       1.0  0.23880  0.04660  0.66010  1.0000
  H   H16       1.0  0.76120  0.04660  0.83990  1.0000
  C   C17       1.0  0.24504  0.43355  0.13299  1.0000
  C   C18       1.0  0.75496  0.43355  0.36701  1.0000
  C   C19       1.0  0.74504  0.93355  0.13299  1.0000
  C   C20       1.0  0.25496  0.93355  0.36701  1.0000
  C   C21       1.0  0.75496  0.56645  0.86701  1.0000
  C   C22       1.0  0.24504  0.56645  0.63299  1.0000
  C   C23       1.0  0.25496  0.06645  0.86701  1.0000
  C   C24       1.0  0.74504  0.06645  0.63299  1.0000
  H   H17       1.0  0.33370  0.39160  0.14940  1.0000
  H   H18       1.0  0.66630  0.39160  0.35060  1.0000
  H   H19       1.0  0.83370  0.89160  0.14940  1.0000
  H   H20       1.0  0.16630  0.89160  0.35060  1.0000
  H   H21       1.0  0.66630  0.60840  0.85060  1.0000
  H   H22       1.0  0.33370  0.60840  0.64940  1.0000
  H   H23       1.0  0.16630  0.10840  0.85060  1.0000
  H   H24       1.0  0.83370  0.10840  0.64940  1.0000
