data_image0
_chemical_formula_structural       Cd2C2H2C4H2C4H2C8H2C4H2C4H2C2H2N4H2O14S2
_chemical_formula_sum              "Cd2 C28 H16 N4 O14 S2"
_cell_length_a       9.4509
_cell_length_b       10.2672
_cell_length_c       12.2152
_cell_angle_alpha    114.581
_cell_angle_beta     96.752
_cell_angle_gamma    101.483

_space_group_name_H-M_alt    "P 1"
_space_group_IT_number       1

loop_
  _space_group_symop_operation_xyz
  'x, y, z'

loop_
  _atom_site_type_symbol
  _atom_site_label
  _atom_site_symmetry_multiplicity
  _atom_site_fract_x
  _atom_site_fract_y
  _atom_site_fract_z
  _atom_site_occupancy
  Cd  Cd1       1.0  0.62428  0.60765  0.40484  1.0000
  Cd  Cd2       1.0  0.37572  0.39235  0.59516  1.0000
  C   C1        1.0  0.09490  0.84810  0.36590  1.0000
  C   C2        1.0  0.90510  0.15190  0.63410  1.0000
  H   H1        1.0  0.04080  0.89880  0.33770  1.0000
  H   H2        1.0  0.95920  0.10120  0.66230  1.0000
  C   C3        1.0  0.04660  0.69390  0.31650  1.0000
  C   C4        1.0  0.95340  0.30610  0.68350  1.0000
  C   C5        1.0  0.12660  0.61830  0.35790  1.0000
  C   C6        1.0  0.87340  0.38170  0.64210  1.0000
  H   H3        1.0  0.09460  0.51490  0.32340  1.0000
  H   H4        1.0  0.90540  0.48510  0.67660  1.0000
  C   C7        1.0  0.25520  0.69570  0.45120  1.0000
  C   C8        1.0  0.74480  0.30430  0.54880  1.0000
  C   C9        1.0  0.30610  0.85040  0.49940  1.0000
  C   C10       1.0  0.69390  0.14960  0.50060  1.0000
  H   H5        1.0  0.39420  0.90220  0.55890  1.0000
  H   H6        1.0  0.60580  0.09780  0.44110  1.0000
  C   C11       1.0  0.22500  0.92670  0.45820  1.0000
  C   C12       1.0  0.77500  0.07330  0.54180  1.0000
  C   C13       1.0  0.27660  0.09380  0.51390  1.0000
  C   C14       1.0  0.72340  0.90620  0.48610  1.0000
  C   C15       1.0  0.33360  0.61270  0.50280  1.0000
  C   C16       1.0  0.66640  0.38730  0.49720  1.0000
  C   C17       1.0  0.98160  0.12010  0.97930  1.0000
  C   C18       1.0  0.01840  0.87990  0.02070  1.0000
  H   H7        1.0  0.96860  0.19950  0.96500  1.0000
  H   H8        1.0  0.03140  0.80050  0.03500  1.0000
  C   C19       1.0  0.10910  0.13750  0.06160  1.0000
  C   C20       1.0  0.89090  0.86250  0.93840  1.0000
  C   C21       1.0  0.12450  0.01620  0.08020  1.0000
  C   C22       1.0  0.87550  0.98380  0.91980  1.0000
  H   H9        1.0  0.20870  0.02680  0.13440  1.0000
  H   H10       1.0  0.79130  0.97320  0.86560  1.0000
  C   C23       1.0  0.22620  0.27910  0.12530  1.0000
  C   C24       1.0  0.77380  0.72090  0.87470  1.0000
  C   C25       1.0  0.33930  0.32890  0.22440  1.0000
  C   C26       1.0  0.66070  0.67110  0.77560  1.0000
  H   H11       1.0  0.35570  0.27710  0.26940  1.0000
  H   H12       1.0  0.64430  0.72290  0.73060  1.0000
  C   C27       1.0  0.36530  0.50000  0.16650  1.0000
  C   C28       1.0  0.63470  0.50000  0.83350  1.0000
  H   H13       1.0  0.40060  0.58780  0.16090  1.0000
  H   H14       1.0  0.59940  0.41220  0.83910  1.0000
  N   N1        1.0  0.42660  0.46690  0.24930  1.0000
  N   N2        1.0  0.57340  0.53310  0.75070  1.0000
  N   N3        1.0  0.24510  0.39100  0.09070  1.0000
  N   N4        1.0  0.75490  0.60900  0.90930  1.0000
  H   H15       1.0  0.18880  0.39110  0.03000  1.0000
  H   H16       1.0  0.81120  0.60890  0.97000  1.0000
  O   O1        1.0  0.78350  0.52370  0.26590  1.0000
  O   O2        1.0  0.21650  0.47630  0.73410  1.0000
  O   O3        1.0  0.90850  0.47720  0.10010  1.0000
  O   O4        1.0  0.09150  0.52280  0.89990  1.0000
  O   O5        1.0  0.81810  0.69700  0.17830  1.0000
  O   O6        1.0  0.18190  0.30300  0.82170  1.0000
  O   O7        1.0  0.20430  0.15980  0.46990  1.0000
  O   O8        1.0  0.79570  0.84020  0.53010  1.0000
  O   O9        1.0  0.38750  0.16350  0.60100  1.0000
  O   O10       1.0  0.61250  0.83650  0.39900  1.0000
  O   O11       1.0  0.25320  0.49760  0.50190  1.0000
  O   O12       1.0  0.74680  0.50240  0.49810  1.0000
  O   O13       1.0  0.47030  0.66280  0.54790  1.0000
  O   O14       1.0  0.52970  0.33720  0.45210  1.0000
  S   S1        1.0  0.87654  0.59124  0.20454  1.0000
  S   S2        1.0  0.12346  0.40876  0.79546  1.0000
