data_image0
_chemical_formula_structural       CoC6H2C2H2C4H2C2N2O10H4
_chemical_formula_sum              "Co1 C14 H10 N2 O10"
_cell_length_a       8.6192
_cell_length_b       8.9562
_cell_length_c       11.3603
_cell_angle_alpha    92.791
_cell_angle_beta     110.264
_cell_angle_gamma    91.498

_space_group_name_H-M_alt    "P 1"
_space_group_IT_number       1

loop_
  _space_group_symop_operation_xyz
  'x, y, z'

loop_
  _atom_site_type_symbol
  _atom_site_label
  _atom_site_symmetry_multiplicity
  _atom_site_fract_x
  _atom_site_fract_y
  _atom_site_fract_z
  _atom_site_occupancy
  Co  Co1       1.0  0.50000  0.50000  0.50000  1.0000
  C   C1        1.0  0.30570  0.75710  0.42420  1.0000
  C   C2        1.0  0.69430  0.24290  0.57580  1.0000
  C   C3        1.0  0.23000  0.68620  0.51130  1.0000
  C   C4        1.0  0.77000  0.31380  0.48870  1.0000
  C   C5        1.0  0.10520  0.75050  0.54180  1.0000
  C   C6        1.0  0.89480  0.24950  0.45820  1.0000
  H   H1        1.0  0.05890  0.83700  0.50510  1.0000
  H   H2        1.0  0.94110  0.16300  0.49490  1.0000
  C   C7        1.0  0.04940  0.68440  0.62840  1.0000
  C   C8        1.0  0.95060  0.31560  0.37160  1.0000
  H   H3        1.0  0.96580  0.72700  0.65110  1.0000
  H   H4        1.0  0.03420  0.27300  0.34890  1.0000
  C   C9        1.0  0.11830  0.55510  0.68070  1.0000
  C   C10       1.0  0.88170  0.44490  0.31930  1.0000
  C   C11       1.0  0.24230  0.49580  0.64190  1.0000
  C   C12       1.0  0.75770  0.50420  0.35810  1.0000
  H   H5        1.0  0.28790  0.40730  0.67490  1.0000
  H   H6        1.0  0.71210  0.59270  0.32510  1.0000
  C   C13       1.0  0.06340  0.48210  0.77860  1.0000
  C   C14       1.0  0.93660  0.51790  0.22140  1.0000
  N   N1        1.0  0.29860  0.56000  0.55970  1.0000
  N   N2        1.0  0.70140  0.44000  0.44030  1.0000
  O   O1        1.0  0.42650  0.69280  0.40825  1.0000
  O   O2        1.0  0.57350  0.30720  0.59175  1.0000
  O   O3        1.0  0.24830  0.87390  0.37550  1.0000
  O   O4        1.0  0.75170  0.12610  0.62450  1.0000
  O   O5        1.0  0.13650  0.36910  0.82600  1.0000
  O   O6        1.0  0.86350  0.63090  0.17400  1.0000
  O   O7        1.0  0.95120  0.54180  0.80730  1.0000
  O   O8        1.0  0.04880  0.45820  0.19270  1.0000
  O   O9        1.0  0.34490  0.37520  0.34390  1.0000
  O   O10       1.0  0.65510  0.62480  0.65610  1.0000
  H   H7        1.0  0.24500  0.39400  0.30000  1.0000
  H   H8        1.0  0.75500  0.60600  0.70000  1.0000
  H   H9        1.0  0.36500  0.29700  0.32400  1.0000
  H   H10       1.0  0.63500  0.70300  0.67600  1.0000
