data_image0
_chemical_formula_structural       Zn16S64C64O96C160O32C64H96C32H96K16
_chemical_formula_sum              "Zn16 S64 C320 O128 H192 K16"
_cell_length_a       22.558
_cell_length_b       22.558
_cell_length_c       24.105
_cell_angle_alpha    90
_cell_angle_beta     90
_cell_angle_gamma    90

_space_group_name_H-M_alt    "P 1"
_space_group_IT_number       1

loop_
  _space_group_symop_operation_xyz
  'x, y, z'

loop_
  _atom_site_type_symbol
  _atom_site_label
  _atom_site_symmetry_multiplicity
  _atom_site_fract_x
  _atom_site_fract_y
  _atom_site_fract_z
  _atom_site_occupancy
  Zn  Zn1       1.0  0.16990  0.08010  0.12500  1.0000
  Zn  Zn2       1.0  0.83010  0.41990  0.12500  1.0000
  Zn  Zn3       1.0  0.16990  0.91990  0.37500  1.0000
  Zn  Zn4       1.0  0.33010  0.08010  0.87500  1.0000
  Zn  Zn5       1.0  0.66990  0.58010  0.62500  1.0000
  Zn  Zn6       1.0  0.33010  0.91990  0.62500  1.0000
  Zn  Zn7       1.0  0.66990  0.41990  0.87500  1.0000
  Zn  Zn8       1.0  0.83010  0.58010  0.37500  1.0000
  Zn  Zn9       1.0  0.83010  0.91990  0.87500  1.0000
  Zn  Zn10      1.0  0.16990  0.58010  0.87500  1.0000
  Zn  Zn11      1.0  0.83010  0.08010  0.62500  1.0000
  Zn  Zn12      1.0  0.66990  0.91990  0.12500  1.0000
  Zn  Zn13      1.0  0.33010  0.41990  0.37500  1.0000
  Zn  Zn14      1.0  0.66990  0.08010  0.37500  1.0000
  Zn  Zn15      1.0  0.33010  0.58010  0.12500  1.0000
  Zn  Zn16      1.0  0.16990  0.41990  0.62500  1.0000
  S   S1        1.0  0.43476  0.07555  0.34253  1.0000
  S   S2        1.0  0.56524  0.42445  0.34253  1.0000
  S   S3        1.0  0.43476  0.92445  0.15747  1.0000
  S   S4        1.0  0.06524  0.07555  0.65747  1.0000
  S   S5        1.0  0.17445  0.81524  0.90747  1.0000
  S   S6        1.0  0.82555  0.68476  0.90747  1.0000
  S   S7        1.0  0.32555  0.81524  0.09253  1.0000
  S   S8        1.0  0.17445  0.18476  0.59253  1.0000
  S   S9        1.0  0.93476  0.57555  0.84253  1.0000
  S   S10       1.0  0.06524  0.92445  0.84253  1.0000
  S   S11       1.0  0.93476  0.42445  0.65747  1.0000
  S   S12       1.0  0.56524  0.57555  0.15747  1.0000
  S   S13       1.0  0.67445  0.31524  0.40747  1.0000
  S   S14       1.0  0.32555  0.18476  0.40747  1.0000
  S   S15       1.0  0.82555  0.31524  0.59253  1.0000
  S   S16       1.0  0.67445  0.68476  0.09253  1.0000
  S   S17       1.0  0.56524  0.92445  0.65747  1.0000
  S   S18       1.0  0.43476  0.57555  0.65747  1.0000
  S   S19       1.0  0.56524  0.07555  0.84253  1.0000
  S   S20       1.0  0.93476  0.92445  0.34253  1.0000
  S   S21       1.0  0.82555  0.18476  0.09253  1.0000
  S   S22       1.0  0.17445  0.31524  0.09253  1.0000
  S   S23       1.0  0.67445  0.18476  0.90747  1.0000
  S   S24       1.0  0.82555  0.81524  0.40747  1.0000
  S   S25       1.0  0.06524  0.42445  0.15747  1.0000
  S   S26       1.0  0.93476  0.07555  0.15747  1.0000
  S   S27       1.0  0.06524  0.57555  0.34253  1.0000
  S   S28       1.0  0.43476  0.42445  0.84253  1.0000
  S   S29       1.0  0.32555  0.68476  0.59253  1.0000
  S   S30       1.0  0.67445  0.81524  0.59253  1.0000
  S   S31       1.0  0.17445  0.68476  0.40747  1.0000
  S   S32       1.0  0.32555  0.31524  0.90747  1.0000
  S   S33       1.0  0.32235  0.07723  0.26616  1.0000
  S   S34       1.0  0.67765  0.42277  0.26616  1.0000
  S   S35       1.0  0.32235  0.92277  0.23384  1.0000
  S   S36       1.0  0.17765  0.07723  0.73384  1.0000
  S   S37       1.0  0.17277  0.92765  0.98384  1.0000
  S   S38       1.0  0.82723  0.57235  0.98384  1.0000
  S   S39       1.0  0.32723  0.92765  0.01616  1.0000
  S   S40       1.0  0.17277  0.07235  0.51616  1.0000
  S   S41       1.0  0.82235  0.57723  0.76616  1.0000
  S   S42       1.0  0.17765  0.92277  0.76616  1.0000
  S   S43       1.0  0.82235  0.42277  0.73384  1.0000
  S   S44       1.0  0.67765  0.57723  0.23384  1.0000
  S   S45       1.0  0.67277  0.42765  0.48384  1.0000
  S   S46       1.0  0.32723  0.07235  0.48384  1.0000
  S   S47       1.0  0.82723  0.42765  0.51616  1.0000
  S   S48       1.0  0.67277  0.57235  0.01616  1.0000
  S   S49       1.0  0.67765  0.92277  0.73384  1.0000
  S   S50       1.0  0.32235  0.57723  0.73384  1.0000
  S   S51       1.0  0.67765  0.07723  0.76616  1.0000
  S   S52       1.0  0.82235  0.92277  0.26616  1.0000
  S   S53       1.0  0.82723  0.07235  0.01616  1.0000
  S   S54       1.0  0.17277  0.42765  0.01616  1.0000
  S   S55       1.0  0.67277  0.07235  0.98384  1.0000
  S   S56       1.0  0.82723  0.92765  0.48384  1.0000
  S   S57       1.0  0.17765  0.42277  0.23384  1.0000
  S   S58       1.0  0.82235  0.07723  0.23384  1.0000
  S   S59       1.0  0.17765  0.57723  0.26616  1.0000
  S   S60       1.0  0.32235  0.42277  0.76616  1.0000
  S   S61       1.0  0.32723  0.57235  0.51616  1.0000
  S   S62       1.0  0.67277  0.92765  0.51616  1.0000
  S   S63       1.0  0.17277  0.57235  0.48384  1.0000
  S   S64       1.0  0.32723  0.42765  0.98384  1.0000
  C   C1        1.0  0.39980  0.08490  0.18120  1.0000
  C   C2        1.0  0.60020  0.41510  0.18120  1.0000
  C   C3        1.0  0.39980  0.91510  0.31880  1.0000
  C   C4        1.0  0.10020  0.08490  0.81880  1.0000
  C   C5        1.0  0.16510  0.85020  0.06880  1.0000
  C   C6        1.0  0.83490  0.64980  0.06880  1.0000
  C   C7        1.0  0.33490  0.85020  0.93120  1.0000
  C   C8        1.0  0.16510  0.14980  0.43120  1.0000
  C   C9        1.0  0.89980  0.58490  0.68120  1.0000
  C   C10       1.0  0.10020  0.91510  0.68120  1.0000
  C   C11       1.0  0.89980  0.41510  0.81880  1.0000
  C   C12       1.0  0.60020  0.58490  0.31880  1.0000
  C   C13       1.0  0.66510  0.35020  0.56880  1.0000
  C   C14       1.0  0.33490  0.14980  0.56880  1.0000
  C   C15       1.0  0.83490  0.35020  0.43120  1.0000
  C   C16       1.0  0.66510  0.64980  0.93120  1.0000
  C   C17       1.0  0.60020  0.91510  0.81880  1.0000
  C   C18       1.0  0.39980  0.58490  0.81880  1.0000
  C   C19       1.0  0.60020  0.08490  0.68120  1.0000
  C   C20       1.0  0.89980  0.91510  0.18120  1.0000
  C   C21       1.0  0.83490  0.14980  0.93120  1.0000
  C   C22       1.0  0.16510  0.35020  0.93120  1.0000
  C   C23       1.0  0.66510  0.14980  0.06880  1.0000
  C   C24       1.0  0.83490  0.85020  0.56880  1.0000
  C   C25       1.0  0.10020  0.41510  0.31880  1.0000
  C   C26       1.0  0.89980  0.08490  0.31880  1.0000
  C   C27       1.0  0.10020  0.58490  0.18120  1.0000
  C   C28       1.0  0.39980  0.41510  0.68120  1.0000
  C   C29       1.0  0.33490  0.64980  0.43120  1.0000
  C   C30       1.0  0.66510  0.85020  0.43120  1.0000
  C   C31       1.0  0.16510  0.64980  0.56880  1.0000
  C   C32       1.0  0.33490  0.35020  0.06880  1.0000
  C   C33       1.0  0.49840  0.08380  0.24650  1.0000
  C   C34       1.0  0.50160  0.41620  0.24650  1.0000
  C   C35       1.0  0.49840  0.91620  0.25350  1.0000
  C   C36       1.0  0.00160  0.08380  0.75350  1.0000
  C   C37       1.0  0.16620  0.75160  0.00350  1.0000
  C   C38       1.0  0.83380  0.74840  0.00350  1.0000
  C   C39       1.0  0.33380  0.75160  0.99650  1.0000
  C   C40       1.0  0.16620  0.24840  0.49650  1.0000
  C   C41       1.0  0.99840  0.58380  0.74650  1.0000
  C   C42       1.0  0.00160  0.91620  0.74650  1.0000
  C   C43       1.0  0.99840  0.41620  0.75350  1.0000
  C   C44       1.0  0.50160  0.58380  0.25350  1.0000
  C   C45       1.0  0.66620  0.25160  0.50350  1.0000
  C   C46       1.0  0.33380  0.24840  0.50350  1.0000
  C   C47       1.0  0.83380  0.25160  0.49650  1.0000
  C   C48       1.0  0.66620  0.74840  0.99650  1.0000
  C   C49       1.0  0.50160  0.91620  0.75350  1.0000
  C   C50       1.0  0.49840  0.58380  0.75350  1.0000
  C   C51       1.0  0.50160  0.08380  0.74650  1.0000
  C   C52       1.0  0.99840  0.91620  0.24650  1.0000
  C   C53       1.0  0.83380  0.24840  0.99650  1.0000
  C   C54       1.0  0.16620  0.25160  0.99650  1.0000
  C   C55       1.0  0.66620  0.24840  0.00350  1.0000
  C   C56       1.0  0.83380  0.75160  0.50350  1.0000
  C   C57       1.0  0.00160  0.41620  0.25350  1.0000
  C   C58       1.0  0.99840  0.08380  0.25350  1.0000
  C   C59       1.0  0.00160  0.58380  0.24650  1.0000
  C   C60       1.0  0.49840  0.41620  0.74650  1.0000
  C   C61       1.0  0.33380  0.74840  0.49650  1.0000
  C   C62       1.0  0.66620  0.75160  0.49650  1.0000
  C   C63       1.0  0.16620  0.74840  0.50350  1.0000
  C   C64       1.0  0.33380  0.25160  0.00350  1.0000
  O   O1        1.0  0.23680  0.07634  0.17911  1.0000
  O   O2        1.0  0.76320  0.42366  0.17911  1.0000
  O   O3        1.0  0.23680  0.92366  0.32089  1.0000
  O   O4        1.0  0.26320  0.07634  0.82089  1.0000
  O   O5        1.0  0.17366  0.01320  0.07089  1.0000
  O   O6        1.0  0.82634  0.48680  0.07089  1.0000
  O   O7        1.0  0.32634  0.01320  0.92911  1.0000
  O   O8        1.0  0.17366  0.98680  0.42911  1.0000
  O   O9        1.0  0.73680  0.57634  0.67911  1.0000
  O   O10       1.0  0.26320  0.92366  0.67911  1.0000
  O   O11       1.0  0.73680  0.42366  0.82089  1.0000
  O   O12       1.0  0.76320  0.57634  0.32089  1.0000
  O   O13       1.0  0.67366  0.51320  0.57089  1.0000
  O   O14       1.0  0.32634  0.98680  0.57089  1.0000
  O   O15       1.0  0.82634  0.51320  0.42911  1.0000
  O   O16       1.0  0.67366  0.48680  0.92911  1.0000
  O   O17       1.0  0.76320  0.92366  0.82089  1.0000
  O   O18       1.0  0.23680  0.57634  0.82089  1.0000
  O   O19       1.0  0.76320  0.07634  0.67911  1.0000
  O   O20       1.0  0.73680  0.92366  0.17911  1.0000
  O   O21       1.0  0.82634  0.98680  0.92911  1.0000
  O   O22       1.0  0.17366  0.51320  0.92911  1.0000
  O   O23       1.0  0.67366  0.98680  0.07089  1.0000
  O   O24       1.0  0.82634  0.01320  0.57089  1.0000
  O   O25       1.0  0.26320  0.42366  0.32089  1.0000
  O   O26       1.0  0.73680  0.07634  0.32089  1.0000
  O   O27       1.0  0.26320  0.57634  0.17911  1.0000
  O   O28       1.0  0.23680  0.42366  0.67911  1.0000
  O   O29       1.0  0.32634  0.48680  0.42911  1.0000
  O   O30       1.0  0.67366  0.01320  0.42911  1.0000
  O   O31       1.0  0.17366  0.48680  0.57089  1.0000
  O   O32       1.0  0.32634  0.51320  0.07089  1.0000
  O   O33       1.0  0.29515  0.08120  0.10429  1.0000
  O   O34       1.0  0.70485  0.41880  0.10429  1.0000
  O   O35       1.0  0.29515  0.91880  0.39571  1.0000
  O   O36       1.0  0.20485  0.08120  0.89571  1.0000
  O   O37       1.0  0.16880  0.95485  0.14571  1.0000
  O   O38       1.0  0.83120  0.54515  0.14571  1.0000
  O   O39       1.0  0.33120  0.95485  0.85429  1.0000
  O   O40       1.0  0.16880  0.04515  0.35429  1.0000
  O   O41       1.0  0.79515  0.58120  0.60429  1.0000
  O   O42       1.0  0.20485  0.91880  0.60429  1.0000
  O   O43       1.0  0.79515  0.41880  0.89571  1.0000
  O   O44       1.0  0.70485  0.58120  0.39571  1.0000
  O   O45       1.0  0.66880  0.45485  0.64571  1.0000
  O   O46       1.0  0.33120  0.04515  0.64571  1.0000
  O   O47       1.0  0.83120  0.45485  0.35429  1.0000
  O   O48       1.0  0.66880  0.54515  0.85429  1.0000
  O   O49       1.0  0.70485  0.91880  0.89571  1.0000
  O   O50       1.0  0.29515  0.58120  0.89571  1.0000
  O   O51       1.0  0.70485  0.08120  0.60429  1.0000
  O   O52       1.0  0.79515  0.91880  0.10429  1.0000
  O   O53       1.0  0.83120  0.04515  0.85429  1.0000
  O   O54       1.0  0.16880  0.45485  0.85429  1.0000
  O   O55       1.0  0.66880  0.04515  0.14571  1.0000
  O   O56       1.0  0.83120  0.95485  0.64571  1.0000
  O   O57       1.0  0.20485  0.41880  0.39571  1.0000
  O   O58       1.0  0.79515  0.08120  0.39571  1.0000
  O   O59       1.0  0.20485  0.58120  0.10429  1.0000
  O   O60       1.0  0.29515  0.41880  0.60429  1.0000
  O   O61       1.0  0.33120  0.54515  0.35429  1.0000
  O   O62       1.0  0.66880  0.95485  0.35429  1.0000
  O   O63       1.0  0.16880  0.54515  0.64571  1.0000
  O   O64       1.0  0.33120  0.45485  0.14571  1.0000
  O   O65       1.0  0.60556  0.07731  0.31866  1.0000
  O   O66       1.0  0.39444  0.42269  0.31866  1.0000
  O   O67       1.0  0.60556  0.92269  0.18134  1.0000
  O   O68       1.0  0.89444  0.07731  0.68134  1.0000
  O   O69       1.0  0.17269  0.64444  0.93134  1.0000
  O   O70       1.0  0.82731  0.85556  0.93134  1.0000
  O   O71       1.0  0.32731  0.64444  0.06866  1.0000
  O   O72       1.0  0.17269  0.35556  0.56866  1.0000
  O   O73       1.0  0.10556  0.57731  0.81866  1.0000
  O   O74       1.0  0.89444  0.92269  0.81866  1.0000
  O   O75       1.0  0.10556  0.42269  0.68134  1.0000
  O   O76       1.0  0.39444  0.57731  0.18134  1.0000
  O   O77       1.0  0.67269  0.14444  0.43134  1.0000
  O   O78       1.0  0.32731  0.35556  0.43134  1.0000
  O   O79       1.0  0.82731  0.14444  0.56866  1.0000
  O   O80       1.0  0.67269  0.85556  0.06866  1.0000
  O   O81       1.0  0.39444  0.92269  0.68134  1.0000
  O   O82       1.0  0.60556  0.57731  0.68134  1.0000
  O   O83       1.0  0.39444  0.07731  0.81866  1.0000
  O   O84       1.0  0.10556  0.92269  0.31866  1.0000
  O   O85       1.0  0.82731  0.35556  0.06866  1.0000
  O   O86       1.0  0.17269  0.14444  0.06866  1.0000
  O   O87       1.0  0.67269  0.35556  0.93134  1.0000
  O   O88       1.0  0.82731  0.64444  0.43134  1.0000
  O   O89       1.0  0.89444  0.42269  0.18134  1.0000
  O   O90       1.0  0.10556  0.07731  0.18134  1.0000
  O   O91       1.0  0.89444  0.57731  0.31866  1.0000
  O   O92       1.0  0.60556  0.42269  0.81866  1.0000
  O   O93       1.0  0.32731  0.85556  0.56866  1.0000
  O   O94       1.0  0.67269  0.64444  0.56866  1.0000
  O   O95       1.0  0.17269  0.85556  0.43134  1.0000
  O   O96       1.0  0.32731  0.14444  0.93134  1.0000
  C   C65       1.0  0.43240  0.08230  0.23390  1.0000
  C   C66       1.0  0.56760  0.41770  0.23390  1.0000
  C   C67       1.0  0.43240  0.91770  0.26610  1.0000
  C   C68       1.0  0.06760  0.08230  0.76610  1.0000
  C   C69       1.0  0.16770  0.81760  0.01610  1.0000
  C   C70       1.0  0.83230  0.68240  0.01610  1.0000
  C   C71       1.0  0.33230  0.81760  0.98390  1.0000
  C   C72       1.0  0.16770  0.18240  0.48390  1.0000
  C   C73       1.0  0.93240  0.58230  0.73390  1.0000
  C   C74       1.0  0.06760  0.91770  0.73390  1.0000
  C   C75       1.0  0.93240  0.41770  0.76610  1.0000
  C   C76       1.0  0.56760  0.58230  0.26610  1.0000
  C   C77       1.0  0.66770  0.31760  0.51610  1.0000
  C   C78       1.0  0.33230  0.18240  0.51610  1.0000
  C   C79       1.0  0.83230  0.31760  0.48390  1.0000
  C   C80       1.0  0.66770  0.68240  0.98390  1.0000
  C   C81       1.0  0.56760  0.91770  0.76610  1.0000
  C   C82       1.0  0.43240  0.58230  0.76610  1.0000
  C   C83       1.0  0.56760  0.08230  0.73390  1.0000
  C   C84       1.0  0.93240  0.91770  0.23390  1.0000
  C   C85       1.0  0.83230  0.18240  0.98390  1.0000
  C   C86       1.0  0.16770  0.31760  0.98390  1.0000
  C   C87       1.0  0.66770  0.18240  0.01610  1.0000
  C   C88       1.0  0.83230  0.81760  0.51610  1.0000
  C   C89       1.0  0.06760  0.41770  0.26610  1.0000
  C   C90       1.0  0.93240  0.08230  0.26610  1.0000
  C   C91       1.0  0.06760  0.58230  0.23390  1.0000
  C   C92       1.0  0.43240  0.41770  0.73390  1.0000
  C   C93       1.0  0.33230  0.68240  0.48390  1.0000
  C   C94       1.0  0.66770  0.81760  0.48390  1.0000
  C   C95       1.0  0.16770  0.68240  0.51610  1.0000
  C   C96       1.0  0.33230  0.31760  0.01610  1.0000
  C   C97       1.0  0.33950  0.08130  0.19420  1.0000
  C   C98       1.0  0.66050  0.41870  0.19420  1.0000
  C   C99       1.0  0.33950  0.91870  0.30580  1.0000
  C   C100      1.0  0.16050  0.08130  0.80580  1.0000
  C   C101      1.0  0.16870  0.91050  0.05580  1.0000
  C   C102      1.0  0.83130  0.58950  0.05580  1.0000
  C   C103      1.0  0.33130  0.91050  0.94420  1.0000
  C   C104      1.0  0.16870  0.08950  0.44420  1.0000
  C   C105      1.0  0.83950  0.58130  0.69420  1.0000
  C   C106      1.0  0.16050  0.91870  0.69420  1.0000
  C   C107      1.0  0.83950  0.41870  0.80580  1.0000
  C   C108      1.0  0.66050  0.58130  0.30580  1.0000
  C   C109      1.0  0.66870  0.41050  0.55580  1.0000
  C   C110      1.0  0.33130  0.08950  0.55580  1.0000
  C   C111      1.0  0.83130  0.41050  0.44420  1.0000
  C   C112      1.0  0.66870  0.58950  0.94420  1.0000
  C   C113      1.0  0.66050  0.91870  0.80580  1.0000
  C   C114      1.0  0.33950  0.58130  0.80580  1.0000
  C   C115      1.0  0.66050  0.08130  0.69420  1.0000
  C   C116      1.0  0.83950  0.91870  0.19420  1.0000
  C   C117      1.0  0.83130  0.08950  0.94420  1.0000
  C   C118      1.0  0.16870  0.41050  0.94420  1.0000
  C   C119      1.0  0.66870  0.08950  0.05580  1.0000
  C   C120      1.0  0.83130  0.91050  0.55580  1.0000
  C   C121      1.0  0.16050  0.41870  0.30580  1.0000
  C   C122      1.0  0.83950  0.08130  0.30580  1.0000
  C   C123      1.0  0.16050  0.58130  0.19420  1.0000
  C   C124      1.0  0.33950  0.41870  0.69420  1.0000
  C   C125      1.0  0.33130  0.58950  0.44420  1.0000
  C   C126      1.0  0.66870  0.91050  0.44420  1.0000
  C   C127      1.0  0.16870  0.58950  0.55580  1.0000
  C   C128      1.0  0.33130  0.41050  0.05580  1.0000
  C   C129      1.0  0.50180  0.07890  0.30480  1.0000
  C   C130      1.0  0.49820  0.42110  0.30480  1.0000
  C   C131      1.0  0.50180  0.92110  0.19520  1.0000
  C   C132      1.0  0.99820  0.07890  0.69520  1.0000
  C   C133      1.0  0.17110  0.74820  0.94520  1.0000
  C   C134      1.0  0.82890  0.75180  0.94520  1.0000
  C   C135      1.0  0.32890  0.74820  0.05480  1.0000
  C   C136      1.0  0.17110  0.25180  0.55480  1.0000
  C   C137      1.0  0.00180  0.57890  0.80480  1.0000
  C   C138      1.0  0.99820  0.92110  0.80480  1.0000
  C   C139      1.0  0.00180  0.42110  0.69520  1.0000
  C   C140      1.0  0.49820  0.57890  0.19520  1.0000
  C   C141      1.0  0.67110  0.24820  0.44520  1.0000
  C   C142      1.0  0.32890  0.25180  0.44520  1.0000
  C   C143      1.0  0.82890  0.24820  0.55480  1.0000
  C   C144      1.0  0.67110  0.75180  0.05480  1.0000
  C   C145      1.0  0.49820  0.92110  0.69520  1.0000
  C   C146      1.0  0.50180  0.57890  0.69520  1.0000
  C   C147      1.0  0.49820  0.07890  0.80480  1.0000
  C   C148      1.0  0.00180  0.92110  0.30480  1.0000
  C   C149      1.0  0.82890  0.25180  0.05480  1.0000
  C   C150      1.0  0.17110  0.24820  0.05480  1.0000
  C   C151      1.0  0.67110  0.25180  0.94520  1.0000
  C   C152      1.0  0.82890  0.74820  0.44520  1.0000
  C   C153      1.0  0.99820  0.42110  0.19520  1.0000
  C   C154      1.0  0.00180  0.07890  0.19520  1.0000
  C   C155      1.0  0.99820  0.57890  0.30480  1.0000
  C   C156      1.0  0.50180  0.42110  0.80480  1.0000
  C   C157      1.0  0.32890  0.75180  0.55480  1.0000
  C   C158      1.0  0.67110  0.74820  0.55480  1.0000
  C   C159      1.0  0.17110  0.75180  0.44520  1.0000
  C   C160      1.0  0.32890  0.24820  0.94520  1.0000
  C   C161      1.0  0.39800  0.07890  0.28070  1.0000
  C   C162      1.0  0.60200  0.42110  0.28070  1.0000
  C   C163      1.0  0.39800  0.92110  0.21930  1.0000
  C   C164      1.0  0.10200  0.07890  0.71930  1.0000
  C   C165      1.0  0.17110  0.85200  0.96930  1.0000
  C   C166      1.0  0.82890  0.64800  0.96930  1.0000
  C   C167      1.0  0.32890  0.85200  0.03070  1.0000
  C   C168      1.0  0.17110  0.14800  0.53070  1.0000
  C   C169      1.0  0.89800  0.57890  0.78070  1.0000
  C   C170      1.0  0.10200  0.92110  0.78070  1.0000
  C   C171      1.0  0.89800  0.42110  0.71930  1.0000
  C   C172      1.0  0.60200  0.57890  0.21930  1.0000
  C   C173      1.0  0.67110  0.35200  0.46930  1.0000
  C   C174      1.0  0.32890  0.14800  0.46930  1.0000
  C   C175      1.0  0.82890  0.35200  0.53070  1.0000
  C   C176      1.0  0.67110  0.64800  0.03070  1.0000
  C   C177      1.0  0.60200  0.92110  0.71930  1.0000
  C   C178      1.0  0.39800  0.57890  0.71930  1.0000
  C   C179      1.0  0.60200  0.07890  0.78070  1.0000
  C   C180      1.0  0.89800  0.92110  0.28070  1.0000
  C   C181      1.0  0.82890  0.14800  0.03070  1.0000
  C   C182      1.0  0.17110  0.35200  0.03070  1.0000
  C   C183      1.0  0.67110  0.14800  0.96930  1.0000
  C   C184      1.0  0.82890  0.85200  0.46930  1.0000
  C   C185      1.0  0.10200  0.42110  0.21930  1.0000
  C   C186      1.0  0.89800  0.07890  0.21930  1.0000
  C   C187      1.0  0.10200  0.57890  0.28070  1.0000
  C   C188      1.0  0.39800  0.42110  0.78070  1.0000
  C   C189      1.0  0.32890  0.64800  0.53070  1.0000
  C   C190      1.0  0.67110  0.85200  0.53070  1.0000
  C   C191      1.0  0.17110  0.64800  0.46930  1.0000
  C   C192      1.0  0.32890  0.35200  0.96930  1.0000
  C   C193      1.0  0.28710  0.08000  0.15540  1.0000
  C   C194      1.0  0.71290  0.42000  0.15540  1.0000
  C   C195      1.0  0.28710  0.92000  0.34460  1.0000
  C   C196      1.0  0.21290  0.08000  0.84460  1.0000
  C   C197      1.0  0.17000  0.96290  0.09460  1.0000
  C   C198      1.0  0.83000  0.53710  0.09460  1.0000
  C   C199      1.0  0.33000  0.96290  0.90540  1.0000
  C   C200      1.0  0.17000  0.03710  0.40540  1.0000
  C   C201      1.0  0.78710  0.58000  0.65540  1.0000
  C   C202      1.0  0.21290  0.92000  0.65540  1.0000
  C   C203      1.0  0.78710  0.42000  0.84460  1.0000
  C   C204      1.0  0.71290  0.58000  0.34460  1.0000
  C   C205      1.0  0.67000  0.46290  0.59460  1.0000
  C   C206      1.0  0.33000  0.03710  0.59460  1.0000
  C   C207      1.0  0.83000  0.46290  0.40540  1.0000
  C   C208      1.0  0.67000  0.53710  0.90540  1.0000
  C   C209      1.0  0.71290  0.92000  0.84460  1.0000
  C   C210      1.0  0.28710  0.58000  0.84460  1.0000
  C   C211      1.0  0.71290  0.08000  0.65540  1.0000
  C   C212      1.0  0.78710  0.92000  0.15540  1.0000
  C   C213      1.0  0.83000  0.03710  0.90540  1.0000
  C   C214      1.0  0.17000  0.46290  0.90540  1.0000
  C   C215      1.0  0.67000  0.03710  0.09460  1.0000
  C   C216      1.0  0.83000  0.96290  0.59460  1.0000
  C   C217      1.0  0.21290  0.42000  0.34460  1.0000
  C   C218      1.0  0.78710  0.08000  0.34460  1.0000
  C   C219      1.0  0.21290  0.58000  0.15540  1.0000
  C   C220      1.0  0.28710  0.42000  0.65540  1.0000
  C   C221      1.0  0.33000  0.53710  0.40540  1.0000
  C   C222      1.0  0.67000  0.96290  0.40540  1.0000
  C   C223      1.0  0.17000  0.53710  0.59460  1.0000
  C   C224      1.0  0.33000  0.46290  0.09460  1.0000
  O   O97       1.0  0.54800  0.07520  0.39205  1.0000
  O   O98       1.0  0.45200  0.42480  0.39205  1.0000
  O   O99       1.0  0.54800  0.92480  0.10795  1.0000
  O   O100      1.0  0.95200  0.07520  0.60795  1.0000
  O   O101      1.0  0.17480  0.70200  0.85795  1.0000
  O   O102      1.0  0.82520  0.79800  0.85795  1.0000
  O   O103      1.0  0.32520  0.70200  0.14205  1.0000
  O   O104      1.0  0.17480  0.29800  0.64205  1.0000
  O   O105      1.0  0.04800  0.57520  0.89205  1.0000
  O   O106      1.0  0.95200  0.92480  0.89205  1.0000
  O   O107      1.0  0.04800  0.42480  0.60795  1.0000
  O   O108      1.0  0.45200  0.57520  0.10795  1.0000
  O   O109      1.0  0.67480  0.20200  0.35795  1.0000
  O   O110      1.0  0.32520  0.29800  0.35795  1.0000
  O   O111      1.0  0.82520  0.20200  0.64205  1.0000
  O   O112      1.0  0.67480  0.79800  0.14205  1.0000
  O   O113      1.0  0.45200  0.92480  0.60795  1.0000
  O   O114      1.0  0.54800  0.57520  0.60795  1.0000
  O   O115      1.0  0.45200  0.07520  0.89205  1.0000
  O   O116      1.0  0.04800  0.92480  0.39205  1.0000
  O   O117      1.0  0.82520  0.29800  0.14205  1.0000
  O   O118      1.0  0.17480  0.20200  0.14205  1.0000
  O   O119      1.0  0.67480  0.29800  0.85795  1.0000
  O   O120      1.0  0.82520  0.70200  0.35795  1.0000
  O   O121      1.0  0.95200  0.42480  0.10795  1.0000
  O   O122      1.0  0.04800  0.07520  0.10795  1.0000
  O   O123      1.0  0.95200  0.57520  0.39205  1.0000
  O   O124      1.0  0.54800  0.42480  0.89205  1.0000
  O   O125      1.0  0.32520  0.79800  0.64205  1.0000
  O   O126      1.0  0.67480  0.70200  0.64205  1.0000
  O   O127      1.0  0.17480  0.79800  0.35795  1.0000
  O   O128      1.0  0.32520  0.20200  0.85795  1.0000
  C   C225      1.0  0.55600  0.07730  0.34080  1.0000
  C   C226      1.0  0.44400  0.42270  0.34080  1.0000
  C   C227      1.0  0.55600  0.92270  0.15920  1.0000
  C   C228      1.0  0.94400  0.07730  0.65920  1.0000
  C   C229      1.0  0.17270  0.69400  0.90920  1.0000
  C   C230      1.0  0.82730  0.80600  0.90920  1.0000
  C   C231      1.0  0.32730  0.69400  0.09080  1.0000
  C   C232      1.0  0.17270  0.30600  0.59080  1.0000
  C   C233      1.0  0.05600  0.57730  0.84080  1.0000
  C   C234      1.0  0.94400  0.92270  0.84080  1.0000
  C   C235      1.0  0.05600  0.42270  0.65920  1.0000
  C   C236      1.0  0.44400  0.57730  0.15920  1.0000
  C   C237      1.0  0.67270  0.19400  0.40920  1.0000
  C   C238      1.0  0.32730  0.30600  0.40920  1.0000
  C   C239      1.0  0.82730  0.19400  0.59080  1.0000
  C   C240      1.0  0.67270  0.80600  0.09080  1.0000
  C   C241      1.0  0.44400  0.92270  0.65920  1.0000
  C   C242      1.0  0.55600  0.57730  0.65920  1.0000
  C   C243      1.0  0.44400  0.07730  0.84080  1.0000
  C   C244      1.0  0.05600  0.92270  0.34080  1.0000
  C   C245      1.0  0.82730  0.30600  0.09080  1.0000
  C   C246      1.0  0.17270  0.19400  0.09080  1.0000
  C   C247      1.0  0.67270  0.30600  0.90920  1.0000
  C   C248      1.0  0.82730  0.69400  0.40920  1.0000
  C   C249      1.0  0.94400  0.42270  0.15920  1.0000
  C   C250      1.0  0.05600  0.07730  0.15920  1.0000
  C   C251      1.0  0.94400  0.57730  0.34080  1.0000
  C   C252      1.0  0.55600  0.42270  0.84080  1.0000
  C   C253      1.0  0.32730  0.80600  0.59080  1.0000
  C   C254      1.0  0.67270  0.69400  0.59080  1.0000
  C   C255      1.0  0.17270  0.80600  0.40920  1.0000
  C   C256      1.0  0.32730  0.19400  0.90920  1.0000
  C   C257      1.0  0.41990  0.08950  0.13540  1.0000
  C   C258      1.0  0.58010  0.41050  0.13540  1.0000
  C   C259      1.0  0.41990  0.91050  0.36460  1.0000
  C   C260      1.0  0.08010  0.08950  0.86460  1.0000
  C   C261      1.0  0.16050  0.83010  0.11460  1.0000
  C   C262      1.0  0.83950  0.66990  0.11460  1.0000
  C   C263      1.0  0.33950  0.83010  0.88540  1.0000
  C   C264      1.0  0.16050  0.16990  0.38540  1.0000
  C   C265      1.0  0.91990  0.58950  0.63540  1.0000
  C   C266      1.0  0.08010  0.91050  0.63540  1.0000
  C   C267      1.0  0.91990  0.41050  0.86460  1.0000
  C   C268      1.0  0.58010  0.58950  0.36460  1.0000
  C   C269      1.0  0.66050  0.33010  0.61460  1.0000
  C   C270      1.0  0.33950  0.16990  0.61460  1.0000
  C   C271      1.0  0.83950  0.33010  0.38540  1.0000
  C   C272      1.0  0.66050  0.66990  0.88540  1.0000
  C   C273      1.0  0.58010  0.91050  0.86460  1.0000
  C   C274      1.0  0.41990  0.58950  0.86460  1.0000
  C   C275      1.0  0.58010  0.08950  0.63540  1.0000
  C   C276      1.0  0.91990  0.91050  0.13540  1.0000
  C   C277      1.0  0.83950  0.16990  0.88540  1.0000
  C   C278      1.0  0.16050  0.33010  0.88540  1.0000
  C   C279      1.0  0.66050  0.16990  0.11460  1.0000
  C   C280      1.0  0.83950  0.83010  0.61460  1.0000
  C   C281      1.0  0.08010  0.41050  0.36460  1.0000
  C   C282      1.0  0.91990  0.08950  0.36460  1.0000
  C   C283      1.0  0.08010  0.58950  0.13540  1.0000
  C   C284      1.0  0.41990  0.41050  0.63540  1.0000
  C   C285      1.0  0.33950  0.66990  0.38540  1.0000
  C   C286      1.0  0.66050  0.83010  0.38540  1.0000
  C   C287      1.0  0.16050  0.66990  0.61460  1.0000
  C   C288      1.0  0.33950  0.33010  0.11460  1.0000
  H   H1        1.0  0.46240  0.09070  0.13740  1.0000
  H   H2        1.0  0.53760  0.40930  0.13740  1.0000
  H   H3        1.0  0.46240  0.90930  0.36260  1.0000
  H   H4        1.0  0.03760  0.09070  0.86260  1.0000
  H   H5        1.0  0.15930  0.78760  0.11260  1.0000
  H   H6        1.0  0.84070  0.71240  0.11260  1.0000
  H   H7        1.0  0.34070  0.78760  0.88740  1.0000
  H   H8        1.0  0.15930  0.21240  0.38740  1.0000
  H   H9        1.0  0.96240  0.59070  0.63740  1.0000
  H   H10       1.0  0.03760  0.90930  0.63740  1.0000
  H   H11       1.0  0.96240  0.40930  0.86260  1.0000
  H   H12       1.0  0.53760  0.59070  0.36260  1.0000
  H   H13       1.0  0.65930  0.28760  0.61260  1.0000
  H   H14       1.0  0.34070  0.21240  0.61260  1.0000
  H   H15       1.0  0.84070  0.28760  0.38740  1.0000
  H   H16       1.0  0.65930  0.71240  0.88740  1.0000
  H   H17       1.0  0.53760  0.90930  0.86260  1.0000
  H   H18       1.0  0.46240  0.59070  0.86260  1.0000
  H   H19       1.0  0.53760  0.09070  0.63740  1.0000
  H   H20       1.0  0.96240  0.90930  0.13740  1.0000
  H   H21       1.0  0.84070  0.21240  0.88740  1.0000
  H   H22       1.0  0.15930  0.28760  0.88740  1.0000
  H   H23       1.0  0.65930  0.21240  0.11260  1.0000
  H   H24       1.0  0.84070  0.78760  0.61260  1.0000
  H   H25       1.0  0.03760  0.40930  0.36260  1.0000
  H   H26       1.0  0.96240  0.09070  0.36260  1.0000
  H   H27       1.0  0.03760  0.59070  0.13740  1.0000
  H   H28       1.0  0.46240  0.40930  0.63740  1.0000
  H   H29       1.0  0.34070  0.71240  0.38740  1.0000
  H   H30       1.0  0.65930  0.78760  0.38740  1.0000
  H   H31       1.0  0.15930  0.71240  0.61260  1.0000
  H   H32       1.0  0.34070  0.28760  0.11260  1.0000
  H   H33       1.0  0.40570  0.12540  0.11870  1.0000
  H   H34       1.0  0.59430  0.37460  0.11870  1.0000
  H   H35       1.0  0.40570  0.87460  0.38130  1.0000
  H   H36       1.0  0.09430  0.12540  0.88130  1.0000
  H   H37       1.0  0.12460  0.84430  0.13130  1.0000
  H   H38       1.0  0.87540  0.65570  0.13130  1.0000
  H   H39       1.0  0.37540  0.84430  0.86870  1.0000
  H   H40       1.0  0.12460  0.15570  0.36870  1.0000
  H   H41       1.0  0.90570  0.62540  0.61870  1.0000
  H   H42       1.0  0.09430  0.87460  0.61870  1.0000
  H   H43       1.0  0.90570  0.37460  0.88130  1.0000
  H   H44       1.0  0.59430  0.62540  0.38130  1.0000
  H   H45       1.0  0.62460  0.34430  0.63130  1.0000
  H   H46       1.0  0.37540  0.15570  0.63130  1.0000
  H   H47       1.0  0.87540  0.34430  0.36870  1.0000
  H   H48       1.0  0.62460  0.65570  0.86870  1.0000
  H   H49       1.0  0.59430  0.87460  0.88130  1.0000
  H   H50       1.0  0.40570  0.62540  0.88130  1.0000
  H   H51       1.0  0.59430  0.12540  0.61870  1.0000
  H   H52       1.0  0.90570  0.87460  0.11870  1.0000
  H   H53       1.0  0.87540  0.15570  0.86870  1.0000
  H   H54       1.0  0.12460  0.34430  0.86870  1.0000
  H   H55       1.0  0.62460  0.15570  0.13130  1.0000
  H   H56       1.0  0.87540  0.84430  0.63130  1.0000
  H   H57       1.0  0.09430  0.37460  0.38130  1.0000
  H   H58       1.0  0.90570  0.12540  0.38130  1.0000
  H   H59       1.0  0.09430  0.62540  0.11870  1.0000
  H   H60       1.0  0.40570  0.37460  0.61870  1.0000
  H   H61       1.0  0.37540  0.65570  0.36870  1.0000
  H   H62       1.0  0.62460  0.84430  0.36870  1.0000
  H   H63       1.0  0.12460  0.65570  0.63130  1.0000
  H   H64       1.0  0.37540  0.34430  0.13130  1.0000
  H   H65       1.0  0.40780  0.05620  0.11330  1.0000
  H   H66       1.0  0.59220  0.44380  0.11330  1.0000
  H   H67       1.0  0.40780  0.94380  0.38670  1.0000
  H   H68       1.0  0.09220  0.05620  0.88670  1.0000
  H   H69       1.0  0.19380  0.84220  0.13670  1.0000
  H   H70       1.0  0.80620  0.65780  0.13670  1.0000
  H   H71       1.0  0.30620  0.84220  0.86330  1.0000
  H   H72       1.0  0.19380  0.15780  0.36330  1.0000
  H   H73       1.0  0.90780  0.55620  0.61330  1.0000
  H   H74       1.0  0.09220  0.94380  0.61330  1.0000
  H   H75       1.0  0.90780  0.44380  0.88670  1.0000
  H   H76       1.0  0.59220  0.55620  0.38670  1.0000
  H   H77       1.0  0.69380  0.34220  0.63670  1.0000
  H   H78       1.0  0.30620  0.15780  0.63670  1.0000
  H   H79       1.0  0.80620  0.34220  0.36330  1.0000
  H   H80       1.0  0.69380  0.65780  0.86330  1.0000
  H   H81       1.0  0.59220  0.94380  0.88670  1.0000
  H   H82       1.0  0.40780  0.55620  0.88670  1.0000
  H   H83       1.0  0.59220  0.05620  0.61330  1.0000
  H   H84       1.0  0.90780  0.94380  0.11330  1.0000
  H   H85       1.0  0.80620  0.15780  0.86330  1.0000
  H   H86       1.0  0.19380  0.34220  0.86330  1.0000
  H   H87       1.0  0.69380  0.15780  0.13670  1.0000
  H   H88       1.0  0.80620  0.84220  0.63670  1.0000
  H   H89       1.0  0.09220  0.44380  0.38670  1.0000
  H   H90       1.0  0.90780  0.05620  0.38670  1.0000
  H   H91       1.0  0.09220  0.55620  0.11330  1.0000
  H   H92       1.0  0.40780  0.44380  0.61330  1.0000
  H   H93       1.0  0.30620  0.65780  0.36330  1.0000
  H   H94       1.0  0.69380  0.84220  0.36330  1.0000
  H   H95       1.0  0.19380  0.65780  0.63670  1.0000
  H   H96       1.0  0.30620  0.34220  0.13670  1.0000
  C   C289      1.0  0.53730  0.08810  0.21380  1.0000
  C   C290      1.0  0.46270  0.41190  0.21380  1.0000
  C   C291      1.0  0.53730  0.91190  0.28620  1.0000
  C   C292      1.0  0.96270  0.08810  0.78620  1.0000
  C   C293      1.0  0.16190  0.71270  0.03620  1.0000
  C   C294      1.0  0.83810  0.78730  0.03620  1.0000
  C   C295      1.0  0.33810  0.71270  0.96380  1.0000
  C   C296      1.0  0.16190  0.28730  0.46380  1.0000
  C   C297      1.0  0.03730  0.58810  0.71380  1.0000
  C   C298      1.0  0.96270  0.91190  0.71380  1.0000
  C   C299      1.0  0.03730  0.41190  0.78620  1.0000
  C   C300      1.0  0.46270  0.58810  0.28620  1.0000
  C   C301      1.0  0.66190  0.21270  0.53620  1.0000
  C   C302      1.0  0.33810  0.28730  0.53620  1.0000
  C   C303      1.0  0.83810  0.21270  0.46380  1.0000
  C   C304      1.0  0.66190  0.78730  0.96380  1.0000
  C   C305      1.0  0.46270  0.91190  0.78620  1.0000
  C   C306      1.0  0.53730  0.58810  0.78620  1.0000
  C   C307      1.0  0.46270  0.08810  0.71380  1.0000
  C   C308      1.0  0.03730  0.91190  0.21380  1.0000
  C   C309      1.0  0.83810  0.28730  0.96380  1.0000
  C   C310      1.0  0.16190  0.21270  0.96380  1.0000
  C   C311      1.0  0.66190  0.28730  0.03620  1.0000
  C   C312      1.0  0.83810  0.71270  0.53620  1.0000
  C   C313      1.0  0.96270  0.41190  0.28620  1.0000
  C   C314      1.0  0.03730  0.08810  0.28620  1.0000
  C   C315      1.0  0.96270  0.58810  0.21380  1.0000
  C   C316      1.0  0.53730  0.41190  0.71380  1.0000
  C   C317      1.0  0.33810  0.78730  0.46380  1.0000
  C   C318      1.0  0.66190  0.71270  0.46380  1.0000
  C   C319      1.0  0.16190  0.78730  0.53620  1.0000
  C   C320      1.0  0.33810  0.21270  0.03620  1.0000
  H   H97       1.0  0.52100  0.09120  0.17710  1.0000
  H   H98       1.0  0.47900  0.40880  0.17710  1.0000
  H   H99       1.0  0.52100  0.90880  0.32290  1.0000
  H   H100      1.0  0.97900  0.09120  0.82290  1.0000
  H   H101      1.0  0.15880  0.72900  0.07290  1.0000
  H   H102      1.0  0.84120  0.77100  0.07290  1.0000
  H   H103      1.0  0.34120  0.72900  0.92710  1.0000
  H   H104      1.0  0.15880  0.27100  0.42710  1.0000
  H   H105      1.0  0.02100  0.59120  0.67710  1.0000
  H   H106      1.0  0.97900  0.90880  0.67710  1.0000
  H   H107      1.0  0.02100  0.40880  0.82290  1.0000
  H   H108      1.0  0.47900  0.59120  0.32290  1.0000
  H   H109      1.0  0.65880  0.22900  0.57290  1.0000
  H   H110      1.0  0.34120  0.27100  0.57290  1.0000
  H   H111      1.0  0.84120  0.22900  0.42710  1.0000
  H   H112      1.0  0.65880  0.77100  0.92710  1.0000
  H   H113      1.0  0.47900  0.90880  0.82290  1.0000
  H   H114      1.0  0.52100  0.59120  0.82290  1.0000
  H   H115      1.0  0.47900  0.09120  0.67710  1.0000
  H   H116      1.0  0.02100  0.90880  0.17710  1.0000
  H   H117      1.0  0.84120  0.27100  0.92710  1.0000
  H   H118      1.0  0.15880  0.22900  0.92710  1.0000
  H   H119      1.0  0.65880  0.27100  0.07290  1.0000
  H   H120      1.0  0.84120  0.72900  0.57290  1.0000
  H   H121      1.0  0.97900  0.40880  0.32290  1.0000
  H   H122      1.0  0.02100  0.09120  0.32290  1.0000
  H   H123      1.0  0.97900  0.59120  0.17710  1.0000
  H   H124      1.0  0.52100  0.40880  0.67710  1.0000
  H   H125      1.0  0.34120  0.77100  0.42710  1.0000
  H   H126      1.0  0.65880  0.72900  0.42710  1.0000
  H   H127      1.0  0.15880  0.77100  0.57290  1.0000
  H   H128      1.0  0.34120  0.22900  0.07290  1.0000
  H   H129      1.0  0.56230  0.05370  0.21590  1.0000
  H   H130      1.0  0.43770  0.44630  0.21590  1.0000
  H   H131      1.0  0.56230  0.94630  0.28410  1.0000
  H   H132      1.0  0.93770  0.05370  0.78410  1.0000
  H   H133      1.0  0.19630  0.68770  0.03410  1.0000
  H   H134      1.0  0.80370  0.81230  0.03410  1.0000
  H   H135      1.0  0.30370  0.68770  0.96590  1.0000
  H   H136      1.0  0.19630  0.31230  0.46590  1.0000
  H   H137      1.0  0.06230  0.55370  0.71590  1.0000
  H   H138      1.0  0.93770  0.94630  0.71590  1.0000
  H   H139      1.0  0.06230  0.44630  0.78410  1.0000
  H   H140      1.0  0.43770  0.55370  0.28410  1.0000
  H   H141      1.0  0.69630  0.18770  0.53410  1.0000
  H   H142      1.0  0.30370  0.31230  0.53410  1.0000
  H   H143      1.0  0.80370  0.18770  0.46590  1.0000
  H   H144      1.0  0.69630  0.81230  0.96590  1.0000
  H   H145      1.0  0.43770  0.94630  0.78410  1.0000
  H   H146      1.0  0.56230  0.55370  0.78410  1.0000
  H   H147      1.0  0.43770  0.05370  0.71590  1.0000
  H   H148      1.0  0.06230  0.94630  0.21590  1.0000
  H   H149      1.0  0.80370  0.31230  0.96590  1.0000
  H   H150      1.0  0.19630  0.18770  0.96590  1.0000
  H   H151      1.0  0.69630  0.31230  0.03410  1.0000
  H   H152      1.0  0.80370  0.68770  0.53410  1.0000
  H   H153      1.0  0.93770  0.44630  0.28410  1.0000
  H   H154      1.0  0.06230  0.05370  0.28410  1.0000
  H   H155      1.0  0.93770  0.55370  0.21590  1.0000
  H   H156      1.0  0.56230  0.44630  0.71590  1.0000
  H   H157      1.0  0.30370  0.81230  0.46590  1.0000
  H   H158      1.0  0.69630  0.68770  0.46590  1.0000
  H   H159      1.0  0.19630  0.81230  0.53410  1.0000
  H   H160      1.0  0.30370  0.18770  0.03410  1.0000
  H   H161      1.0  0.56030  0.12280  0.22180  1.0000
  H   H162      1.0  0.43970  0.37720  0.22180  1.0000
  H   H163      1.0  0.56030  0.87720  0.27820  1.0000
  H   H164      1.0  0.93970  0.12280  0.77820  1.0000
  H   H165      1.0  0.12720  0.68970  0.02820  1.0000
  H   H166      1.0  0.87280  0.81030  0.02820  1.0000
  H   H167      1.0  0.37280  0.68970  0.97180  1.0000
  H   H168      1.0  0.12720  0.31030  0.47180  1.0000
  H   H169      1.0  0.06030  0.62280  0.72180  1.0000
  H   H170      1.0  0.93970  0.87720  0.72180  1.0000
  H   H171      1.0  0.06030  0.37720  0.77820  1.0000
  H   H172      1.0  0.43970  0.62280  0.27820  1.0000
  H   H173      1.0  0.62720  0.18970  0.52820  1.0000
  H   H174      1.0  0.37280  0.31030  0.52820  1.0000
  H   H175      1.0  0.87280  0.18970  0.47180  1.0000
  H   H176      1.0  0.62720  0.81030  0.97180  1.0000
  H   H177      1.0  0.43970  0.87720  0.77820  1.0000
  H   H178      1.0  0.56030  0.62280  0.77820  1.0000
  H   H179      1.0  0.43970  0.12280  0.72180  1.0000
  H   H180      1.0  0.06030  0.87720  0.22180  1.0000
  H   H181      1.0  0.87280  0.31030  0.97180  1.0000
  H   H182      1.0  0.12720  0.18970  0.97180  1.0000
  H   H183      1.0  0.62720  0.31030  0.02820  1.0000
  H   H184      1.0  0.87280  0.68970  0.52820  1.0000
  H   H185      1.0  0.93970  0.37720  0.27820  1.0000
  H   H186      1.0  0.06030  0.12280  0.27820  1.0000
  H   H187      1.0  0.93970  0.62280  0.22180  1.0000
  H   H188      1.0  0.56030  0.37720  0.72180  1.0000
  H   H189      1.0  0.37280  0.81030  0.47180  1.0000
  H   H190      1.0  0.62720  0.68970  0.47180  1.0000
  H   H191      1.0  0.12720  0.81030  0.52820  1.0000
  H   H192      1.0  0.37280  0.18970  0.02820  1.0000
  K   K1        1.0  0.67509  0.00000  0.25000  1.0000
  K   K2        1.0  0.32491  0.50000  0.25000  1.0000
  K   K3        1.0  0.82491  0.00000  0.75000  1.0000
  K   K4        1.0  0.25000  0.57491  0.00000  1.0000
  K   K5        1.0  0.75000  0.92509  0.00000  1.0000
  K   K6        1.0  0.25000  0.42509  0.50000  1.0000
  K   K7        1.0  0.17509  0.50000  0.75000  1.0000
  K   K8        1.0  0.75000  0.07491  0.50000  1.0000
  K   K9        1.0  0.32491  0.00000  0.75000  1.0000
  K   K10       1.0  0.67509  0.50000  0.75000  1.0000
  K   K11       1.0  0.17509  0.00000  0.25000  1.0000
  K   K12       1.0  0.75000  0.42509  0.00000  1.0000
  K   K13       1.0  0.25000  0.07491  0.00000  1.0000
  K   K14       1.0  0.75000  0.57491  0.50000  1.0000
  K   K15       1.0  0.82491  0.50000  0.25000  1.0000
  K   K16       1.0  0.25000  0.92509  0.50000  1.0000
