data_image0
_chemical_formula_structural       Cd4O32C12H4N4C4N4C4H4C4H4O4H4C20H4N4O4H4C4H4C4N4C16H4C8H4C4H4C4H4C4H4C4H4C12H4C4H4C4H4
_chemical_formula_sum              "Cd4 O40 C112 H64 N16"
_cell_length_a       10.592
_cell_length_b       16.86
_cell_length_c       26.949
_cell_angle_alpha    90
_cell_angle_beta     90
_cell_angle_gamma    90

_space_group_name_H-M_alt    "P 1"
_space_group_IT_number       1

loop_
  _space_group_symop_operation_xyz
  'x, y, z'

loop_
  _atom_site_type_symbol
  _atom_site_label
  _atom_site_symmetry_multiplicity
  _atom_site_fract_x
  _atom_site_fract_y
  _atom_site_fract_z
  _atom_site_occupancy
  Cd  Cd1       1.0  0.75826  0.96170  0.76214  1.0000
  Cd  Cd2       1.0  0.74174  0.03830  0.26214  1.0000
  Cd  Cd3       1.0  0.25826  0.53830  0.23786  1.0000
  Cd  Cd4       1.0  0.24174  0.46170  0.73786  1.0000
  O   O1        1.0  0.91410  0.07060  0.75790  1.0000
  O   O2        1.0  0.58590  0.92940  0.25790  1.0000
  O   O3        1.0  0.41410  0.42940  0.24210  1.0000
  O   O4        1.0  0.08590  0.57060  0.74210  1.0000
  O   O5        1.0  0.33090  0.38970  0.67220  1.0000
  O   O6        1.0  0.16910  0.61030  0.17220  1.0000
  O   O7        1.0  0.83090  0.11030  0.32780  1.0000
  O   O8        1.0  0.66910  0.88970  0.82780  1.0000
  O   O9        1.0  0.39900  0.35160  0.74620  1.0000
  O   O10       1.0  0.10100  0.64840  0.24620  1.0000
  O   O11       1.0  0.89900  0.14840  0.25380  1.0000
  O   O12       1.0  0.60100  0.85160  0.75380  1.0000
  O   O13       1.0  0.10300  0.34020  0.74160  1.0000
  O   O14       1.0  0.39700  0.65980  0.24160  1.0000
  O   O15       1.0  0.60300  0.15980  0.25840  1.0000
  O   O16       1.0  0.89700  0.84020  0.75840  1.0000
  O   O17       1.0  0.59070  0.07920  0.76420  1.0000
  O   O18       1.0  0.90930  0.92080  0.26420  1.0000
  O   O19       1.0  0.09070  0.42080  0.23580  1.0000
  O   O20       1.0  0.40930  0.57920  0.73580  1.0000
  O   O21       1.0  0.67190  0.02890  0.69550  1.0000
  O   O22       1.0  0.82810  0.97110  0.19550  1.0000
  O   O23       1.0  0.17190  0.47110  0.30450  1.0000
  O   O24       1.0  0.32810  0.52890  0.80450  1.0000
  O   O25       1.0  0.84070  0.03160  0.83120  1.0000
  O   O26       1.0  0.65930  0.96840  0.33120  1.0000
  O   O27       1.0  0.34070  0.46840  0.16880  1.0000
  O   O28       1.0  0.15930  0.53160  0.66880  1.0000
  O   O29       1.0  0.15260  0.40360  0.81100  1.0000
  O   O30       1.0  0.34740  0.59640  0.31100  1.0000
  O   O31       1.0  0.65260  0.09640  0.18900  1.0000
  O   O32       1.0  0.84740  0.90360  0.68900  1.0000
  C   C1        1.0  0.60510  0.08010  0.71700  1.0000
  C   C2        1.0  0.89490  0.91990  0.21700  1.0000
  C   C3        1.0  0.10510  0.41990  0.28300  1.0000
  C   C4        1.0  0.39490  0.58010  0.78300  1.0000
  C   C5        1.0  0.44460  0.26920  0.67530  1.0000
  C   C6        1.0  0.05540  0.73080  0.17530  1.0000
  C   C7        1.0  0.94460  0.23080  0.32470  1.0000
  C   C8        1.0  0.55540  0.76920  0.82470  1.0000
  C   C9        1.0  0.49390  0.20980  0.70510  1.0000
  C   C10       1.0  0.00610  0.79020  0.20510  1.0000
  C   C11       1.0  0.99390  0.29020  0.29490  1.0000
  C   C12       1.0  0.50610  0.70980  0.79490  1.0000
  H   H1        1.0  0.49120  0.21500  0.73940  1.0000
  H   H2        1.0  0.00880  0.78500  0.23940  1.0000
  H   H3        1.0  0.99120  0.28500  0.26060  1.0000
  H   H4        1.0  0.50880  0.71500  0.76060  1.0000
  N   N1        1.0  0.50970  0.18450  0.54710  1.0000
  N   N2        1.0  0.99030  0.81550  0.04710  1.0000
  N   N3        1.0  0.00970  0.31550  0.45290  1.0000
  N   N4        1.0  0.49030  0.68450  0.95290  1.0000
  C   C13       1.0  0.90060  0.07860  0.80500  1.0000
  C   C14       1.0  0.59940  0.92140  0.30500  1.0000
  C   C15       1.0  0.40060  0.42140  0.19500  1.0000
  C   C16       1.0  0.09940  0.57860  0.69500  1.0000
  N   N5        1.0  0.02690  0.29300  0.97850  1.0000
  N   N6        1.0  0.47310  0.70700  0.47850  1.0000
  N   N7        1.0  0.52690  0.20700  0.02150  1.0000
  N   N8        1.0  0.97310  0.79300  0.52150  1.0000
  C   C17       1.0  0.00830  0.21070  0.80050  1.0000
  C   C18       1.0  0.49170  0.78930  0.30050  1.0000
  C   C19       1.0  0.50830  0.28930  0.19950  1.0000
  C   C20       1.0  0.99170  0.71070  0.69950  1.0000
  H   H5        1.0  0.01640  0.20270  0.76650  1.0000
  H   H6        1.0  0.48360  0.79730  0.26650  1.0000
  H   H7        1.0  0.51640  0.29730  0.23350  1.0000
  H   H8        1.0  0.98360  0.70270  0.73350  1.0000
  C   C21       1.0  0.93900  0.16560  0.88160  1.0000
  C   C22       1.0  0.56100  0.83440  0.38160  1.0000
  C   C23       1.0  0.43900  0.33440  0.11840  1.0000
  C   C24       1.0  0.06100  0.66560  0.61840  1.0000
  H   H9        1.0  0.90000  0.12720  0.90100  1.0000
  H   H10       1.0  0.60000  0.87280  0.40100  1.0000
  H   H11       1.0  0.40000  0.37280  0.09900  1.0000
  H   H12       1.0  0.10000  0.62720  0.59900  1.0000
  O   O33       1.0  0.91550  0.35890  0.17970  1.0000
  O   O34       1.0  0.58450  0.64110  0.67970  1.0000
  O   O35       1.0  0.41550  0.14110  0.82030  1.0000
  O   O36       1.0  0.08450  0.85890  0.32030  1.0000
  H   H13       1.0  0.97170  0.38460  0.19300  1.0000
  H   H14       1.0  0.52830  0.61540  0.69300  1.0000
  H   H15       1.0  0.47170  0.11540  0.80700  1.0000
  H   H16       1.0  0.02830  0.88460  0.30700  1.0000
  C   C25       1.0  0.95380  0.15260  0.82980  1.0000
  C   C26       1.0  0.54620  0.84740  0.32980  1.0000
  C   C27       1.0  0.45380  0.34740  0.17020  1.0000
  C   C28       1.0  0.04620  0.65260  0.67020  1.0000
  C   C29       1.0  0.54690  0.14280  0.68410  1.0000
  C   C30       1.0  0.95310  0.85720  0.18410  1.0000
  C   C31       1.0  0.04690  0.35720  0.31590  1.0000
  C   C32       1.0  0.45310  0.64280  0.81590  1.0000
  C   C33       1.0  0.38820  0.34200  0.69880  1.0000
  C   C34       1.0  0.11180  0.65800  0.19880  1.0000
  C   C35       1.0  0.88820  0.15800  0.30120  1.0000
  C   C36       1.0  0.61180  0.84200  0.80120  1.0000
  C   C37       1.0  0.94750  0.34430  0.13130  1.0000
  C   C38       1.0  0.55250  0.65570  0.63130  1.0000
  C   C39       1.0  0.44750  0.15570  0.86870  1.0000
  C   C40       1.0  0.05250  0.84430  0.36870  1.0000
  C   C41       1.0  0.55100  0.13620  0.63180  1.0000
  C   C42       1.0  0.94900  0.86380  0.13180  1.0000
  C   C43       1.0  0.05100  0.36380  0.36820  1.0000
  C   C44       1.0  0.44900  0.63620  0.86820  1.0000
  H   H17       1.0  0.58830  0.09190  0.61740  1.0000
  H   H18       1.0  0.91170  0.90810  0.11740  1.0000
  H   H19       1.0  0.08830  0.40810  0.38260  1.0000
  H   H20       1.0  0.41170  0.59190  0.88260  1.0000
  N   N9        1.0  0.43040  0.22320  0.52200  1.0000
  N   N10       1.0  0.06960  0.77680  0.02200  1.0000
  N   N11       1.0  0.93040  0.27680  0.47800  1.0000
  N   N12       1.0  0.56960  0.72320  0.97800  1.0000
  O   O37       1.0  0.42050  0.21540  0.31260  1.0000
  O   O38       1.0  0.07950  0.78460  0.81260  1.0000
  O   O39       1.0  0.92050  0.28460  0.68740  1.0000
  O   O40       1.0  0.57950  0.71540  0.18740  1.0000
  H   H21       1.0  0.48720  0.20030  0.30030  1.0000
  H   H22       1.0  0.01280  0.79970  0.80030  1.0000
  H   H23       1.0  0.98720  0.29970  0.69970  1.0000
  H   H24       1.0  0.51280  0.70030  0.19970  1.0000
  C   C45       1.0  0.03840  0.29250  0.87320  1.0000
  C   C46       1.0  0.46160  0.70750  0.37320  1.0000
  C   C47       1.0  0.53840  0.20750  0.12680  1.0000
  C   C48       1.0  0.96160  0.79250  0.62680  1.0000
  H   H25       1.0  0.06810  0.33920  0.88740  1.0000
  H   H26       1.0  0.43190  0.66080  0.38740  1.0000
  H   H27       1.0  0.56810  0.16080  0.11260  1.0000
  H   H28       1.0  0.93190  0.83920  0.61260  1.0000
  C   C49       1.0  0.49950  0.19560  0.60120  1.0000
  C   C50       1.0  0.00050  0.80440  0.10120  1.0000
  C   C51       1.0  0.99950  0.30440  0.39880  1.0000
  C   C52       1.0  0.50050  0.69560  0.89880  1.0000
  N   N13       1.0  0.95690  0.24440  0.95650  1.0000
  N   N14       1.0  0.54310  0.75560  0.45650  1.0000
  N   N15       1.0  0.45690  0.25560  0.04350  1.0000
  N   N16       1.0  0.04310  0.74440  0.54350  1.0000
  C   C53       1.0  0.10560  0.34550  0.78970  1.0000
  C   C54       1.0  0.39440  0.65450  0.28970  1.0000
  C   C55       1.0  0.60560  0.15450  0.21030  1.0000
  C   C56       1.0  0.89440  0.84550  0.71030  1.0000
  C   C57       1.0  0.05070  0.28070  0.82170  1.0000
  C   C58       1.0  0.44930  0.71930  0.32170  1.0000
  C   C59       1.0  0.55070  0.21930  0.17830  1.0000
  C   C60       1.0  0.94930  0.78070  0.67830  1.0000
  C   C61       1.0  0.43710  0.21930  0.46930  1.0000
  C   C62       1.0  0.06290  0.78070  0.96930  1.0000
  C   C63       1.0  0.93710  0.28070  0.53070  1.0000
  C   C64       1.0  0.56290  0.71930  0.03070  1.0000
  C   C65       1.0  0.05900  0.36750  0.10890  1.0000
  C   C66       1.0  0.44100  0.63250  0.60890  1.0000
  C   C67       1.0  0.55900  0.13250  0.89110  1.0000
  C   C68       1.0  0.94100  0.86750  0.39110  1.0000
  H   H29       1.0  0.11960  0.39480  0.12720  1.0000
  H   H30       1.0  0.38040  0.60520  0.62720  1.0000
  H   H31       1.0  0.61960  0.10520  0.87280  1.0000
  H   H32       1.0  0.88040  0.89480  0.37280  1.0000
  C   C69       1.0  0.98200  0.23480  0.90320  1.0000
  C   C70       1.0  0.51800  0.76520  0.40320  1.0000
  C   C71       1.0  0.48200  0.26520  0.09680  1.0000
  C   C72       1.0  0.01800  0.73480  0.59680  1.0000
  C   C73       1.0  0.88050  0.28550  0.05180  1.0000
  C   C74       1.0  0.61950  0.71450  0.55180  1.0000
  C   C75       1.0  0.38050  0.21450  0.94820  1.0000
  C   C76       1.0  0.11950  0.78550  0.44820  1.0000
  H   H33       1.0  0.82130  0.25720  0.03340  1.0000
  H   H34       1.0  0.67870  0.74280  0.53340  1.0000
  H   H35       1.0  0.32130  0.24280  0.96660  1.0000
  H   H36       1.0  0.17870  0.75720  0.46660  1.0000
  C   C77       1.0  0.44660  0.26180  0.62300  1.0000
  C   C78       1.0  0.05340  0.73820  0.12300  1.0000
  C   C79       1.0  0.94660  0.23820  0.37700  1.0000
  C   C80       1.0  0.55340  0.76180  0.87700  1.0000
  H   H37       1.0  0.41230  0.30160  0.60330  1.0000
  H   H38       1.0  0.08770  0.69840  0.10330  1.0000
  H   H39       1.0  0.91230  0.19840  0.39670  1.0000
  H   H40       1.0  0.58770  0.80160  0.89670  1.0000
  C   C81       1.0  0.53730  0.19150  0.38880  1.0000
  C   C82       1.0  0.96270  0.80850  0.88880  1.0000
  C   C83       1.0  0.03730  0.30850  0.61120  1.0000
  C   C84       1.0  0.46270  0.69150  0.11120  1.0000
  H   H41       1.0  0.60800  0.17510  0.37110  1.0000
  H   H42       1.0  0.89200  0.82490  0.87110  1.0000
  H   H43       1.0  0.10800  0.32490  0.62890  1.0000
  H   H44       1.0  0.39200  0.67510  0.12890  1.0000
  C   C85       1.0  0.08140  0.34970  0.05790  1.0000
  C   C86       1.0  0.41860  0.65030  0.55790  1.0000
  C   C87       1.0  0.58140  0.15030  0.94210  1.0000
  C   C88       1.0  0.91860  0.84970  0.44210  1.0000
  H   H45       1.0  0.15650  0.36640  0.04340  1.0000
  H   H46       1.0  0.34350  0.63360  0.54340  1.0000
  H   H47       1.0  0.65650  0.13360  0.95660  1.0000
  H   H48       1.0  0.84350  0.86640  0.45660  1.0000
  C   C89       1.0  0.54140  0.19250  0.44110  1.0000
  C   C90       1.0  0.95860  0.80750  0.94110  1.0000
  C   C91       1.0  0.04140  0.30750  0.55890  1.0000
  C   C92       1.0  0.45860  0.69250  0.05890  1.0000
  H   H49       1.0  0.61380  0.17530  0.45730  1.0000
  H   H50       1.0  0.88620  0.82470  0.95730  1.0000
  H   H51       1.0  0.11380  0.32470  0.54270  1.0000
  H   H52       1.0  0.38620  0.67530  0.04270  1.0000
  C   C93       1.0  0.99550  0.30840  0.02930  1.0000
  C   C94       1.0  0.50450  0.69160  0.52930  1.0000
  C   C95       1.0  0.49550  0.19160  0.97070  1.0000
  C   C96       1.0  0.00450  0.80840  0.47070  1.0000
  C   C97       1.0  0.43030  0.21460  0.36360  1.0000
  C   C98       1.0  0.06970  0.78540  0.86360  1.0000
  C   C99       1.0  0.93030  0.28540  0.63640  1.0000
  C   C100      1.0  0.56970  0.71460  0.13640  1.0000
  C   C101      1.0  0.85460  0.30490  0.10150  1.0000
  C   C102      1.0  0.64540  0.69510  0.60150  1.0000
  C   C103      1.0  0.35460  0.19510  0.89850  1.0000
  C   C104      1.0  0.14540  0.80490  0.39850  1.0000
  H   H53       1.0  0.77660  0.29200  0.11520  1.0000
  H   H54       1.0  0.72340  0.70800  0.61520  1.0000
  H   H55       1.0  0.27660  0.20800  0.88480  1.0000
  H   H56       1.0  0.22340  0.79200  0.38480  1.0000
  C   C105      1.0  0.33310  0.24400  0.44360  1.0000
  C   C106      1.0  0.16690  0.75600  0.94360  1.0000
  C   C107      1.0  0.83310  0.25600  0.55640  1.0000
  C   C108      1.0  0.66690  0.74400  0.05640  1.0000
  H   H57       1.0  0.26350  0.26290  0.46100  1.0000
  H   H58       1.0  0.23650  0.73710  0.96100  1.0000
  H   H59       1.0  0.76350  0.23710  0.53900  1.0000
  H   H60       1.0  0.73650  0.76290  0.03900  1.0000
  C   C109      1.0  0.32850  0.24140  0.39020  1.0000
  C   C110      1.0  0.17150  0.75860  0.89020  1.0000
  C   C111      1.0  0.82850  0.25860  0.60980  1.0000
  C   C112      1.0  0.67150  0.74140  0.10980  1.0000
  H   H61       1.0  0.25610  0.25810  0.37360  1.0000
  H   H62       1.0  0.24390  0.74190  0.87360  1.0000
  H   H63       1.0  0.75610  0.24190  0.62640  1.0000
  H   H64       1.0  0.74390  0.75810  0.12640  1.0000
