data_image0
_chemical_formula_structural       Cu16N72C8H8C40
_chemical_formula_sum              "Cu16 N72 C48 H8"
_cell_length_a       24.225
_cell_length_b       9.6254
_cell_length_c       16.37
_cell_angle_alpha    90
_cell_angle_beta     118.54
_cell_angle_gamma    90

_space_group_name_H-M_alt    "P 1"
_space_group_IT_number       1

loop_
  _space_group_symop_operation_xyz
  'x, y, z'

loop_
  _atom_site_type_symbol
  _atom_site_label
  _atom_site_symmetry_multiplicity
  _atom_site_fract_x
  _atom_site_fract_y
  _atom_site_fract_z
  _atom_site_occupancy
  Cu  Cu1       1.0  0.04177  0.38001  0.37793  1.0000
  Cu  Cu2       1.0  0.95823  0.38001  0.12207  1.0000
  Cu  Cu3       1.0  0.54177  0.88001  0.37793  1.0000
  Cu  Cu4       1.0  0.45823  0.88001  0.12207  1.0000
  Cu  Cu5       1.0  0.95823  0.61999  0.62207  1.0000
  Cu  Cu6       1.0  0.04177  0.61999  0.87793  1.0000
  Cu  Cu7       1.0  0.45823  0.11999  0.62207  1.0000
  Cu  Cu8       1.0  0.54177  0.11999  0.87793  1.0000
  Cu  Cu9       1.0  0.04178  0.18003  0.03391  1.0000
  Cu  Cu10      1.0  0.95822  0.18003  0.46609  1.0000
  Cu  Cu11      1.0  0.54178  0.68003  0.03391  1.0000
  Cu  Cu12      1.0  0.45822  0.68003  0.46609  1.0000
  Cu  Cu13      1.0  0.95822  0.81997  0.96609  1.0000
  Cu  Cu14      1.0  0.04178  0.81997  0.53391  1.0000
  Cu  Cu15      1.0  0.45822  0.31997  0.96609  1.0000
  Cu  Cu16      1.0  0.54178  0.31997  0.53391  1.0000
  N   N1        1.0  0.13637  0.01550  0.52550  1.0000
  N   N2        1.0  0.86363  0.01550  0.97450  1.0000
  N   N3        1.0  0.63637  0.51550  0.52550  1.0000
  N   N4        1.0  0.36363  0.51550  0.97450  1.0000
  N   N5        1.0  0.86363  0.98450  0.47450  1.0000
  N   N6        1.0  0.13637  0.98450  0.02550  1.0000
  N   N7        1.0  0.36363  0.48450  0.47450  1.0000
  N   N8        1.0  0.63637  0.48450  0.02550  1.0000
  N   N9        1.0  0.07839  0.00270  0.51740  1.0000
  N   N10       1.0  0.92161  0.00270  0.98260  1.0000
  N   N11       1.0  0.57839  0.50270  0.51740  1.0000
  N   N12       1.0  0.42161  0.50270  0.98260  1.0000
  N   N13       1.0  0.92161  0.99730  0.48260  1.0000
  N   N14       1.0  0.07839  0.99730  0.01740  1.0000
  N   N15       1.0  0.42161  0.49730  0.48260  1.0000
  N   N16       1.0  0.57839  0.49730  0.01740  1.0000
  N   N17       1.0  0.04587  0.11610  0.48080  1.0000
  N   N18       1.0  0.95413  0.11610  0.01920  1.0000
  N   N19       1.0  0.54587  0.61610  0.48080  1.0000
  N   N20       1.0  0.45413  0.61610  0.01920  1.0000
  N   N21       1.0  0.95413  0.88390  0.51920  1.0000
  N   N22       1.0  0.04587  0.88390  0.98080  1.0000
  N   N23       1.0  0.45413  0.38390  0.51920  1.0000
  N   N24       1.0  0.54587  0.38390  0.98080  1.0000
  N   N25       1.0  0.08105  0.20620  0.46320  1.0000
  N   N26       1.0  0.91895  0.20620  0.03680  1.0000
  N   N27       1.0  0.58105  0.70620  0.46320  1.0000
  N   N28       1.0  0.41895  0.70620  0.03680  1.0000
  N   N29       1.0  0.91895  0.79380  0.53680  1.0000
  N   N30       1.0  0.08105  0.79380  0.96320  1.0000
  N   N31       1.0  0.41895  0.29380  0.53680  1.0000
  N   N32       1.0  0.58105  0.29380  0.96320  1.0000
  N   N33       1.0  0.14096  0.21420  0.24400  1.0000
  N   N34       1.0  0.85904  0.21420  0.25600  1.0000
  N   N35       1.0  0.64096  0.71420  0.24400  1.0000
  N   N36       1.0  0.35904  0.71420  0.25600  1.0000
  N   N37       1.0  0.85904  0.78580  0.75600  1.0000
  N   N38       1.0  0.14096  0.78580  0.74400  1.0000
  N   N39       1.0  0.35904  0.28580  0.75600  1.0000
  N   N40       1.0  0.64096  0.28580  0.74400  1.0000
  N   N41       1.0  0.08322  0.23750  0.17440  1.0000
  N   N42       1.0  0.91678  0.23750  0.32560  1.0000
  N   N43       1.0  0.58322  0.73750  0.17440  1.0000
  N   N44       1.0  0.41678  0.73750  0.32560  1.0000
  N   N45       1.0  0.91678  0.76250  0.82560  1.0000
  N   N46       1.0  0.08322  0.76250  0.67440  1.0000
  N   N47       1.0  0.41678  0.26250  0.82560  1.0000
  N   N48       1.0  0.58322  0.26250  0.67440  1.0000
  N   N49       1.0  0.04843  0.29560  0.20620  1.0000
  N   N50       1.0  0.95157  0.29560  0.29380  1.0000
  N   N51       1.0  0.54843  0.79560  0.20620  1.0000
  N   N52       1.0  0.45157  0.79560  0.29380  1.0000
  N   N53       1.0  0.95157  0.70440  0.79380  1.0000
  N   N54       1.0  0.04843  0.70440  0.70620  1.0000
  N   N55       1.0  0.45157  0.20440  0.79380  1.0000
  N   N56       1.0  0.54843  0.20440  0.70620  1.0000
  N   N57       1.0  0.08235  0.30990  0.29870  1.0000
  N   N58       1.0  0.91765  0.30990  0.20130  1.0000
  N   N59       1.0  0.58235  0.80990  0.29870  1.0000
  N   N60       1.0  0.41765  0.80990  0.20130  1.0000
  N   N61       1.0  0.91765  0.69010  0.70130  1.0000
  N   N62       1.0  0.08235  0.69010  0.79870  1.0000
  N   N63       1.0  0.41765  0.19010  0.70130  1.0000
  N   N64       1.0  0.58235  0.19010  0.79870  1.0000
  N   N65       1.0  0.04060  0.43880  0.92510  1.0000
  N   N66       1.0  0.95940  0.43880  0.57490  1.0000
  N   N67       1.0  0.54060  0.93880  0.92510  1.0000
  N   N68       1.0  0.45940  0.93880  0.57490  1.0000
  N   N69       1.0  0.95940  0.56120  0.07490  1.0000
  N   N70       1.0  0.04060  0.56120  0.42510  1.0000
  N   N71       1.0  0.45940  0.06120  0.07490  1.0000
  N   N72       1.0  0.54060  0.06120  0.42510  1.0000
  C   C1        1.0  0.25130  0.30180  0.42260  1.0000
  C   C2        1.0  0.74870  0.30180  0.07740  1.0000
  C   C3        1.0  0.75130  0.80180  0.42260  1.0000
  C   C4        1.0  0.24870  0.80180  0.07740  1.0000
  C   C5        1.0  0.74870  0.69820  0.57740  1.0000
  C   C6        1.0  0.25130  0.69820  0.92260  1.0000
  C   C7        1.0  0.24870  0.19820  0.57740  1.0000
  C   C8        1.0  0.75130  0.19820  0.92260  1.0000
  H   H1        1.0  0.25210  0.33660  0.37010  1.0000
  H   H2        1.0  0.74790  0.33660  0.12990  1.0000
  H   H3        1.0  0.75210  0.83660  0.37010  1.0000
  H   H4        1.0  0.24790  0.83660  0.12990  1.0000
  H   H5        1.0  0.74790  0.66340  0.62990  1.0000
  H   H6        1.0  0.25210  0.66340  0.87010  1.0000
  H   H7        1.0  0.24790  0.16340  0.62990  1.0000
  H   H8        1.0  0.75210  0.16340  0.87010  1.0000
  C   C9        1.0  0.19460  0.25440  0.41430  1.0000
  C   C10       1.0  0.80540  0.25440  0.08570  1.0000
  C   C11       1.0  0.69460  0.75440  0.41430  1.0000
  C   C12       1.0  0.30540  0.75440  0.08570  1.0000
  C   C13       1.0  0.80540  0.74560  0.58570  1.0000
  C   C14       1.0  0.19460  0.74560  0.91430  1.0000
  C   C15       1.0  0.30540  0.24560  0.58570  1.0000
  C   C16       1.0  0.69460  0.24560  0.91430  1.0000
  C   C17       1.0  0.19280  0.20100  0.49280  1.0000
  C   C18       1.0  0.80720  0.20100  0.00720  1.0000
  C   C19       1.0  0.69280  0.70100  0.49280  1.0000
  C   C20       1.0  0.30720  0.70100  0.00720  1.0000
  C   C21       1.0  0.80720  0.79900  0.50720  1.0000
  C   C22       1.0  0.19280  0.79900  0.99280  1.0000
  C   C23       1.0  0.30720  0.29900  0.50720  1.0000
  C   C24       1.0  0.69280  0.29900  0.99280  1.0000
  C   C25       1.0  0.13630  0.14170  0.49140  1.0000
  C   C26       1.0  0.86370  0.14170  0.00860  1.0000
  C   C27       1.0  0.63630  0.64170  0.49140  1.0000
  C   C28       1.0  0.36370  0.64170  0.00860  1.0000
  C   C29       1.0  0.86370  0.85830  0.50860  1.0000
  C   C30       1.0  0.13630  0.85830  0.99140  1.0000
  C   C31       1.0  0.36370  0.35830  0.50860  1.0000
  C   C32       1.0  0.63630  0.35830  0.99140  1.0000
  C   C33       1.0  0.13890  0.25810  0.32010  1.0000
  C   C34       1.0  0.86110  0.25810  0.17990  1.0000
  C   C35       1.0  0.63890  0.75810  0.32010  1.0000
  C   C36       1.0  0.36110  0.75810  0.17990  1.0000
  C   C37       1.0  0.86110  0.74190  0.67990  1.0000
  C   C38       1.0  0.13890  0.74190  0.82010  1.0000
  C   C39       1.0  0.36110  0.24190  0.67990  1.0000
  C   C40       1.0  0.63890  0.24190  0.82010  1.0000
  C   C41       1.0  0.03940  0.33610  0.95790  1.0000
  C   C42       1.0  0.96060  0.33610  0.54210  1.0000
  C   C43       1.0  0.53940  0.83610  0.95790  1.0000
  C   C44       1.0  0.46060  0.83610  0.54210  1.0000
  C   C45       1.0  0.96060  0.66390  0.04210  1.0000
  C   C46       1.0  0.03940  0.66390  0.45790  1.0000
  C   C47       1.0  0.46060  0.16390  0.04210  1.0000
  C   C48       1.0  0.53940  0.16390  0.45790  1.0000
