data_image0
_chemical_formula_structural       Cd3C12H12C12H12C24O24
_chemical_formula_sum              "Cd3 C48 H24 O24"
_cell_length_a       15.227
_cell_length_b       15.227
_cell_length_c       12.5453
_cell_angle_alpha    90
_cell_angle_beta     90
_cell_angle_gamma    120

_space_group_name_H-M_alt    "P 1"
_space_group_IT_number       1

loop_
  _space_group_symop_operation_xyz
  'x, y, z'

loop_
  _atom_site_type_symbol
  _atom_site_label
  _atom_site_symmetry_multiplicity
  _atom_site_fract_x
  _atom_site_fract_y
  _atom_site_fract_z
  _atom_site_occupancy
  Cd  Cd1       1.0  0.50000  0.00000  0.00000  1.0000
  Cd  Cd2       1.0  0.00000  0.50000  0.33333  1.0000
  Cd  Cd3       1.0  0.50000  0.50000  0.66667  1.0000
  C   C1        1.0  0.41770  0.17910  0.28800  1.0000
  C   C2        1.0  0.82090  0.23860  0.62133  1.0000
  C   C3        1.0  0.76140  0.58230  0.95467  1.0000
  C   C4        1.0  0.58230  0.82090  0.28800  1.0000
  C   C5        1.0  0.17910  0.76140  0.62133  1.0000
  C   C6        1.0  0.23860  0.41770  0.95467  1.0000
  C   C7        1.0  0.17910  0.41770  0.04533  1.0000
  C   C8        1.0  0.23860  0.82090  0.71200  1.0000
  C   C9        1.0  0.58230  0.76140  0.37867  1.0000
  C   C10       1.0  0.82090  0.58230  0.04533  1.0000
  C   C11       1.0  0.76140  0.17910  0.71200  1.0000
  C   C12       1.0  0.41770  0.23860  0.37867  1.0000
  H   H1        1.0  0.35650  0.12960  0.25920  1.0000
  H   H2        1.0  0.87040  0.22690  0.59253  1.0000
  H   H3        1.0  0.77310  0.64350  0.92587  1.0000
  H   H4        1.0  0.64350  0.87040  0.25920  1.0000
  H   H5        1.0  0.12960  0.77310  0.59253  1.0000
  H   H6        1.0  0.22690  0.35650  0.92587  1.0000
  H   H7        1.0  0.12960  0.35650  0.07413  1.0000
  H   H8        1.0  0.22690  0.87040  0.74080  1.0000
  H   H9        1.0  0.64350  0.77310  0.40747  1.0000
  H   H10       1.0  0.87040  0.64350  0.07413  1.0000
  H   H11       1.0  0.77310  0.12960  0.74080  1.0000
  H   H12       1.0  0.35650  0.22690  0.40747  1.0000
  C   C13       1.0  0.59470  0.26780  0.29220  1.0000
  C   C14       1.0  0.73220  0.32690  0.62553  1.0000
  C   C15       1.0  0.67310  0.40530  0.95887  1.0000
  C   C16       1.0  0.40530  0.73220  0.29220  1.0000
  C   C17       1.0  0.26780  0.67310  0.62553  1.0000
  C   C18       1.0  0.32690  0.59470  0.95887  1.0000
  C   C19       1.0  0.26780  0.59470  0.04113  1.0000
  C   C20       1.0  0.32690  0.73220  0.70780  1.0000
  C   C21       1.0  0.40530  0.67310  0.37447  1.0000
  C   C22       1.0  0.73220  0.40530  0.04113  1.0000
  C   C23       1.0  0.67310  0.26780  0.70780  1.0000
  C   C24       1.0  0.59470  0.32690  0.37447  1.0000
  H   H13       1.0  0.65610  0.27670  0.26720  1.0000
  H   H14       1.0  0.72330  0.37940  0.60053  1.0000
  H   H15       1.0  0.62060  0.34390  0.93387  1.0000
  H   H16       1.0  0.34390  0.72330  0.26720  1.0000
  H   H17       1.0  0.27670  0.62060  0.60053  1.0000
  H   H18       1.0  0.37940  0.65610  0.93387  1.0000
  H   H19       1.0  0.27670  0.65610  0.06613  1.0000
  H   H20       1.0  0.37940  0.72330  0.73280  1.0000
  H   H21       1.0  0.34390  0.62060  0.39947  1.0000
  H   H22       1.0  0.72330  0.34390  0.06613  1.0000
  H   H23       1.0  0.62060  0.27670  0.73280  1.0000
  H   H24       1.0  0.65610  0.37940  0.39947  1.0000
  C   C25       1.0  0.50500  0.19490  0.24570  1.0000
  C   C26       1.0  0.80510  0.31010  0.57903  1.0000
  C   C27       1.0  0.68990  0.49500  0.91237  1.0000
  C   C28       1.0  0.49500  0.80510  0.24570  1.0000
  C   C29       1.0  0.19490  0.68990  0.57903  1.0000
  C   C30       1.0  0.31010  0.50500  0.91237  1.0000
  C   C31       1.0  0.19490  0.50500  0.08763  1.0000
  C   C32       1.0  0.31010  0.80510  0.75430  1.0000
  C   C33       1.0  0.49500  0.68990  0.42097  1.0000
  C   C34       1.0  0.80510  0.49500  0.08763  1.0000
  C   C35       1.0  0.68990  0.19490  0.75430  1.0000
  C   C36       1.0  0.50500  0.31010  0.42097  1.0000
  C   C37       1.0  0.51290  0.13230  0.15570  1.0000
  C   C38       1.0  0.86770  0.38060  0.48903  1.0000
  C   C39       1.0  0.61940  0.48710  0.82237  1.0000
  C   C40       1.0  0.48710  0.86770  0.15570  1.0000
  C   C41       1.0  0.13230  0.61940  0.48903  1.0000
  C   C42       1.0  0.38060  0.51290  0.82237  1.0000
  C   C43       1.0  0.13230  0.51290  0.17763  1.0000
  C   C44       1.0  0.38060  0.86770  0.84430  1.0000
  C   C45       1.0  0.48710  0.61940  0.51097  1.0000
  C   C46       1.0  0.86770  0.48710  0.17763  1.0000
  C   C47       1.0  0.61940  0.13230  0.84430  1.0000
  C   C48       1.0  0.51290  0.38060  0.51097  1.0000
  O   O1        1.0  0.59080  0.14280  0.12770  1.0000
  O   O2        1.0  0.85720  0.44800  0.46103  1.0000
  O   O3        1.0  0.55200  0.40920  0.79437  1.0000
  O   O4        1.0  0.40920  0.85720  0.12770  1.0000
  O   O5        1.0  0.14280  0.55200  0.46103  1.0000
  O   O6        1.0  0.44800  0.59080  0.79437  1.0000
  O   O7        1.0  0.14280  0.59080  0.20563  1.0000
  O   O8        1.0  0.44800  0.85720  0.87230  1.0000
  O   O9        1.0  0.40920  0.55200  0.53897  1.0000
  O   O10       1.0  0.85720  0.40920  0.20563  1.0000
  O   O11       1.0  0.55200  0.14280  0.87230  1.0000
  O   O12       1.0  0.59080  0.44800  0.53897  1.0000
  O   O13       1.0  0.42650  0.06870  0.11380  1.0000
  O   O14       1.0  0.93130  0.35780  0.44713  1.0000
  O   O15       1.0  0.64220  0.57350  0.78047  1.0000
  O   O16       1.0  0.57350  0.93130  0.11380  1.0000
  O   O17       1.0  0.06870  0.64220  0.44713  1.0000
  O   O18       1.0  0.35780  0.42650  0.78047  1.0000
  O   O19       1.0  0.06870  0.42650  0.21953  1.0000
  O   O20       1.0  0.35780  0.93130  0.88620  1.0000
  O   O21       1.0  0.57350  0.64220  0.55287  1.0000
  O   O22       1.0  0.93130  0.57350  0.21953  1.0000
  O   O23       1.0  0.64220  0.06870  0.88620  1.0000
  O   O24       1.0  0.42650  0.35780  0.55287  1.0000
