data_image0
_chemical_formula_structural       Cd48C16H16C16H16C32H16C32H16C16H16C32H16C48H16C16H16C32H16C16H16C32H16C16H16C16H16C16H16C32H16C48H16C16H16C32H16C16H16C32H16C32H16C16H16C96H16C32H16C80O256
_chemical_formula_sum              "Cd48 C768 H384 O256"
_cell_length_a       32.7812
_cell_length_b       34.5802
_cell_length_c       25.0561
_cell_angle_alpha    90
_cell_angle_beta     90
_cell_angle_gamma    90

_space_group_name_H-M_alt    "P 1"
_space_group_IT_number       1

loop_
  _space_group_symop_operation_xyz
  'x, y, z'

loop_
  _atom_site_type_symbol
  _atom_site_label
  _atom_site_symmetry_multiplicity
  _atom_site_fract_x
  _atom_site_fract_y
  _atom_site_fract_z
  _atom_site_occupancy
  Cd  Cd1       1.0  0.14025  0.99815  0.07975  1.0000
  Cd  Cd2       1.0  0.85974  0.00185  0.07975  1.0000
  Cd  Cd3       1.0  0.39026  0.25185  0.32975  1.0000
  Cd  Cd4       1.0  0.10975  0.24815  0.32975  1.0000
  Cd  Cd5       1.0  0.14025  0.49815  0.57975  1.0000
  Cd  Cd6       1.0  0.85974  0.50185  0.57975  1.0000
  Cd  Cd7       1.0  0.39026  0.75185  0.82975  1.0000
  Cd  Cd8       1.0  0.10975  0.74815  0.82975  1.0000
  Cd  Cd9       1.0  0.64026  0.99815  0.57975  1.0000
  Cd  Cd10      1.0  0.35974  0.00185  0.57975  1.0000
  Cd  Cd11      1.0  0.89026  0.25185  0.82975  1.0000
  Cd  Cd12      1.0  0.60974  0.24815  0.82975  1.0000
  Cd  Cd13      1.0  0.64026  0.49815  0.07975  1.0000
  Cd  Cd14      1.0  0.35974  0.50185  0.07975  1.0000
  Cd  Cd15      1.0  0.89026  0.75185  0.32975  1.0000
  Cd  Cd16      1.0  0.60974  0.74815  0.32975  1.0000
  Cd  Cd17      1.0  0.24885  0.05817  0.85674  1.0000
  Cd  Cd18      1.0  0.75115  0.94183  0.85674  1.0000
  Cd  Cd19      1.0  0.49885  0.19183  0.10674  1.0000
  Cd  Cd20      1.0  0.00115  0.30817  0.10674  1.0000
  Cd  Cd21      1.0  0.24885  0.55817  0.35674  1.0000
  Cd  Cd22      1.0  0.75115  0.44183  0.35674  1.0000
  Cd  Cd23      1.0  0.49885  0.69183  0.60674  1.0000
  Cd  Cd24      1.0  0.00115  0.80817  0.60674  1.0000
  Cd  Cd25      1.0  0.74885  0.05817  0.35674  1.0000
  Cd  Cd26      1.0  0.25115  0.94183  0.35674  1.0000
  Cd  Cd27      1.0  0.99885  0.19183  0.60674  1.0000
  Cd  Cd28      1.0  0.50115  0.30817  0.60674  1.0000
  Cd  Cd29      1.0  0.74885  0.55817  0.85674  1.0000
  Cd  Cd30      1.0  0.25115  0.44183  0.85674  1.0000
  Cd  Cd31      1.0  0.99885  0.69183  0.10674  1.0000
  Cd  Cd32      1.0  0.50115  0.80817  0.10674  1.0000
  Cd  Cd33      1.0  0.19254  0.02534  0.96471  1.0000
  Cd  Cd34      1.0  0.80746  0.97466  0.96471  1.0000
  Cd  Cd35      1.0  0.44254  0.22466  0.21471  1.0000
  Cd  Cd36      1.0  0.05746  0.27534  0.21471  1.0000
  Cd  Cd37      1.0  0.19254  0.52534  0.46471  1.0000
  Cd  Cd38      1.0  0.80746  0.47466  0.46471  1.0000
  Cd  Cd39      1.0  0.44254  0.72466  0.71471  1.0000
  Cd  Cd40      1.0  0.05746  0.77534  0.71471  1.0000
  Cd  Cd41      1.0  0.69254  0.02534  0.46471  1.0000
  Cd  Cd42      1.0  0.30746  0.97466  0.46471  1.0000
  Cd  Cd43      1.0  0.94254  0.22466  0.71471  1.0000
  Cd  Cd44      1.0  0.55746  0.27534  0.71471  1.0000
  Cd  Cd45      1.0  0.69254  0.52534  0.96471  1.0000
  Cd  Cd46      1.0  0.30746  0.47466  0.96471  1.0000
  Cd  Cd47      1.0  0.94254  0.72466  0.21471  1.0000
  Cd  Cd48      1.0  0.55746  0.77534  0.21471  1.0000
  C   C1        1.0  0.36380  0.15450  0.83960  1.0000
  C   C2        1.0  0.63620  0.84550  0.83960  1.0000
  C   C3        1.0  0.61380  0.09550  0.08960  1.0000
  C   C4        1.0  0.88620  0.40450  0.08960  1.0000
  C   C5        1.0  0.36380  0.65450  0.33960  1.0000
  C   C6        1.0  0.63620  0.34550  0.33960  1.0000
  C   C7        1.0  0.61380  0.59550  0.58960  1.0000
  C   C8        1.0  0.88620  0.90450  0.58960  1.0000
  C   C9        1.0  0.86380  0.15450  0.33960  1.0000
  C   C10       1.0  0.13620  0.84550  0.33960  1.0000
  C   C11       1.0  0.11380  0.09550  0.58960  1.0000
  C   C12       1.0  0.38620  0.40450  0.58960  1.0000
  C   C13       1.0  0.86380  0.65450  0.83960  1.0000
  C   C14       1.0  0.13620  0.34550  0.83960  1.0000
  C   C15       1.0  0.11380  0.59550  0.08960  1.0000
  C   C16       1.0  0.38620  0.90450  0.08960  1.0000
  H   H1        1.0  0.35790  0.15000  0.87540  1.0000
  H   H2        1.0  0.64210  0.85000  0.87540  1.0000
  H   H3        1.0  0.60790  0.10000  0.12540  1.0000
  H   H4        1.0  0.89210  0.40000  0.12540  1.0000
  H   H5        1.0  0.35790  0.65000  0.37540  1.0000
  H   H6        1.0  0.64210  0.35000  0.37540  1.0000
  H   H7        1.0  0.60790  0.60000  0.62540  1.0000
  H   H8        1.0  0.89210  0.90000  0.62540  1.0000
  H   H9        1.0  0.85790  0.15000  0.37540  1.0000
  H   H10       1.0  0.14210  0.85000  0.37540  1.0000
  H   H11       1.0  0.10790  0.10000  0.62540  1.0000
  H   H12       1.0  0.39210  0.40000  0.62540  1.0000
  H   H13       1.0  0.85790  0.65000  0.87540  1.0000
  H   H14       1.0  0.14210  0.35000  0.87540  1.0000
  H   H15       1.0  0.10790  0.60000  0.12540  1.0000
  H   H16       1.0  0.39210  0.90000  0.12540  1.0000
  C   C17       1.0  0.34580  0.14280  0.74860  1.0000
  C   C18       1.0  0.65420  0.85720  0.74860  1.0000
  C   C19       1.0  0.59580  0.10720  0.99860  1.0000
  C   C20       1.0  0.90420  0.39280  0.99860  1.0000
  C   C21       1.0  0.34580  0.64280  0.24860  1.0000
  C   C22       1.0  0.65420  0.35720  0.24860  1.0000
  C   C23       1.0  0.59580  0.60720  0.49860  1.0000
  C   C24       1.0  0.90420  0.89280  0.49860  1.0000
  C   C25       1.0  0.84580  0.14280  0.24860  1.0000
  C   C26       1.0  0.15420  0.85720  0.24860  1.0000
  C   C27       1.0  0.09580  0.10720  0.49860  1.0000
  C   C28       1.0  0.40420  0.39280  0.49860  1.0000
  C   C29       1.0  0.84580  0.64280  0.74860  1.0000
  C   C30       1.0  0.15420  0.35720  0.74860  1.0000
  C   C31       1.0  0.09580  0.60720  0.99860  1.0000
  C   C32       1.0  0.40420  0.89280  0.99860  1.0000
  H   H17       1.0  0.33340  0.13000  0.72030  1.0000
  H   H18       1.0  0.66660  0.87000  0.72030  1.0000
  H   H19       1.0  0.58340  0.12000  0.97030  1.0000
  H   H20       1.0  0.91660  0.38000  0.97030  1.0000
  H   H21       1.0  0.33340  0.63000  0.22030  1.0000
  H   H22       1.0  0.66660  0.37000  0.22030  1.0000
  H   H23       1.0  0.58340  0.62000  0.47030  1.0000
  H   H24       1.0  0.91660  0.88000  0.47030  1.0000
  H   H25       1.0  0.83340  0.13000  0.22030  1.0000
  H   H26       1.0  0.16660  0.87000  0.22030  1.0000
  H   H27       1.0  0.08340  0.12000  0.47030  1.0000
  H   H28       1.0  0.41660  0.38000  0.47030  1.0000
  H   H29       1.0  0.83340  0.63000  0.72030  1.0000
  H   H30       1.0  0.16660  0.37000  0.72030  1.0000
  H   H31       1.0  0.08340  0.62000  0.97030  1.0000
  H   H32       1.0  0.41660  0.88000  0.97030  1.0000
  C   C33       1.0  0.27770  0.86560  0.97960  1.0000
  C   C34       1.0  0.72230  0.13440  0.97960  1.0000
  C   C35       1.0  0.52770  0.38440  0.22960  1.0000
  C   C36       1.0  0.97230  0.11560  0.22960  1.0000
  C   C37       1.0  0.27770  0.36560  0.47960  1.0000
  C   C38       1.0  0.72230  0.63440  0.47960  1.0000
  C   C39       1.0  0.52770  0.88440  0.72960  1.0000
  C   C40       1.0  0.97230  0.61560  0.72960  1.0000
  C   C41       1.0  0.77770  0.86560  0.47960  1.0000
  C   C42       1.0  0.22230  0.13440  0.47960  1.0000
  C   C43       1.0  0.02770  0.38440  0.72960  1.0000
  C   C44       1.0  0.47230  0.11560  0.72960  1.0000
  C   C45       1.0  0.77770  0.36560  0.97960  1.0000
  C   C46       1.0  0.22230  0.63440  0.97960  1.0000
  C   C47       1.0  0.02770  0.88440  0.22960  1.0000
  C   C48       1.0  0.47230  0.61560  0.22960  1.0000
  C   C49       1.0  0.26030  0.88710  0.89290  1.0000
  C   C50       1.0  0.73970  0.11290  0.89290  1.0000
  C   C51       1.0  0.51030  0.36290  0.14290  1.0000
  C   C52       1.0  0.98970  0.13710  0.14290  1.0000
  C   C53       1.0  0.26030  0.38710  0.39290  1.0000
  C   C54       1.0  0.73970  0.61290  0.39290  1.0000
  C   C55       1.0  0.51030  0.86290  0.64290  1.0000
  C   C56       1.0  0.98970  0.63710  0.64290  1.0000
  C   C57       1.0  0.76030  0.88710  0.39290  1.0000
  C   C58       1.0  0.23970  0.11290  0.39290  1.0000
  C   C59       1.0  0.01030  0.36290  0.64290  1.0000
  C   C60       1.0  0.48970  0.13710  0.64290  1.0000
  C   C61       1.0  0.76030  0.38710  0.89290  1.0000
  C   C62       1.0  0.23970  0.61290  0.89290  1.0000
  C   C63       1.0  0.01030  0.86290  0.14290  1.0000
  C   C64       1.0  0.48970  0.63710  0.14290  1.0000
  H   H33       1.0  0.24360  0.90340  0.87310  1.0000
  H   H34       1.0  0.75640  0.09660  0.87310  1.0000
  H   H35       1.0  0.49360  0.34660  0.12310  1.0000
  H   H36       1.0  0.00640  0.15340  0.12310  1.0000
  H   H37       1.0  0.24360  0.40340  0.37310  1.0000
  H   H38       1.0  0.75640  0.59660  0.37310  1.0000
  H   H39       1.0  0.49360  0.84660  0.62310  1.0000
  H   H40       1.0  0.00640  0.65340  0.62310  1.0000
  H   H41       1.0  0.74360  0.90340  0.37310  1.0000
  H   H42       1.0  0.25640  0.09660  0.37310  1.0000
  H   H43       1.0  0.99360  0.34660  0.62310  1.0000
  H   H44       1.0  0.50640  0.15340  0.62310  1.0000
  H   H45       1.0  0.74360  0.40340  0.87310  1.0000
  H   H46       1.0  0.25640  0.59660  0.87310  1.0000
  H   H47       1.0  0.99360  0.84660  0.12310  1.0000
  H   H48       1.0  0.50640  0.65340  0.12310  1.0000
  C   C65       1.0  0.37410  0.17310  0.74350  1.0000
  C   C66       1.0  0.62590  0.82690  0.74350  1.0000
  C   C67       1.0  0.62410  0.07690  0.99350  1.0000
  C   C68       1.0  0.87590  0.42310  0.99350  1.0000
  C   C69       1.0  0.37410  0.67310  0.24350  1.0000
  C   C70       1.0  0.62590  0.32690  0.24350  1.0000
  C   C71       1.0  0.62410  0.57690  0.49350  1.0000
  C   C72       1.0  0.87590  0.92310  0.49350  1.0000
  C   C73       1.0  0.87410  0.17310  0.24350  1.0000
  C   C74       1.0  0.12590  0.82690  0.24350  1.0000
  C   C75       1.0  0.12410  0.07690  0.49350  1.0000
  C   C76       1.0  0.37590  0.42310  0.49350  1.0000
  C   C77       1.0  0.87410  0.67310  0.74350  1.0000
  C   C78       1.0  0.12590  0.32690  0.74350  1.0000
  C   C79       1.0  0.12410  0.57690  0.99350  1.0000
  C   C80       1.0  0.37590  0.92310  0.99350  1.0000
  C   C81       1.0  0.42850  0.21930  0.76140  1.0000
  C   C82       1.0  0.57150  0.78070  0.76140  1.0000
  C   C83       1.0  0.67850  0.03070  0.01140  1.0000
  C   C84       1.0  0.82150  0.46930  0.01140  1.0000
  C   C85       1.0  0.42850  0.71930  0.26140  1.0000
  C   C86       1.0  0.57150  0.28070  0.26140  1.0000
  C   C87       1.0  0.67850  0.53070  0.51140  1.0000
  C   C88       1.0  0.82150  0.96930  0.51140  1.0000
  C   C89       1.0  0.92850  0.21930  0.26140  1.0000
  C   C90       1.0  0.07150  0.78070  0.26140  1.0000
  C   C91       1.0  0.17850  0.03070  0.51140  1.0000
  C   C92       1.0  0.32150  0.46930  0.51140  1.0000
  C   C93       1.0  0.92850  0.71930  0.76140  1.0000
  C   C94       1.0  0.07150  0.28070  0.76140  1.0000
  C   C95       1.0  0.17850  0.53070  0.01140  1.0000
  C   C96       1.0  0.32150  0.96930  0.01140  1.0000
  H   H49       1.0  0.44470  0.23320  0.78500  1.0000
  H   H50       1.0  0.55530  0.76680  0.78500  1.0000
  H   H51       1.0  0.69470  0.01680  0.03500  1.0000
  H   H52       1.0  0.80530  0.48320  0.03500  1.0000
  H   H53       1.0  0.44470  0.73320  0.28500  1.0000
  H   H54       1.0  0.55530  0.26680  0.28500  1.0000
  H   H55       1.0  0.69470  0.51680  0.53500  1.0000
  H   H56       1.0  0.80530  0.98320  0.53500  1.0000
  H   H57       1.0  0.94470  0.23320  0.28500  1.0000
  H   H58       1.0  0.05530  0.76680  0.28500  1.0000
  H   H59       1.0  0.19470  0.01680  0.53500  1.0000
  H   H60       1.0  0.30530  0.48320  0.53500  1.0000
  H   H61       1.0  0.94470  0.73320  0.78500  1.0000
  H   H62       1.0  0.05530  0.26680  0.78500  1.0000
  H   H63       1.0  0.19470  0.51680  0.03500  1.0000
  H   H64       1.0  0.30530  0.98320  0.03500  1.0000
  C   C97       1.0  0.39820  0.18170  0.83270  1.0000
  C   C98       1.0  0.60180  0.81830  0.83270  1.0000
  C   C99       1.0  0.64820  0.06830  0.08270  1.0000
  C   C100      1.0  0.85180  0.43170  0.08270  1.0000
  C   C101      1.0  0.39820  0.68170  0.33270  1.0000
  C   C102      1.0  0.60180  0.31830  0.33270  1.0000
  C   C103      1.0  0.64820  0.56830  0.58270  1.0000
  C   C104      1.0  0.85180  0.93170  0.58270  1.0000
  C   C105      1.0  0.89820  0.18170  0.33270  1.0000
  C   C106      1.0  0.10180  0.81830  0.33270  1.0000
  C   C107      1.0  0.14820  0.06830  0.58270  1.0000
  C   C108      1.0  0.35180  0.43170  0.58270  1.0000
  C   C109      1.0  0.89820  0.68170  0.83270  1.0000
  C   C110      1.0  0.10180  0.31830  0.83270  1.0000
  C   C111      1.0  0.14820  0.56830  0.08270  1.0000
  C   C112      1.0  0.35180  0.93170  0.08270  1.0000
  H   H65       1.0  0.41480  0.19060  0.86020  1.0000
  H   H66       1.0  0.58520  0.80940  0.86020  1.0000
  H   H67       1.0  0.66480  0.05940  0.11020  1.0000
  H   H68       1.0  0.83520  0.44060  0.11020  1.0000
  H   H69       1.0  0.41480  0.69060  0.36020  1.0000
  H   H70       1.0  0.58520  0.30940  0.36020  1.0000
  H   H71       1.0  0.66480  0.55940  0.61020  1.0000
  H   H72       1.0  0.83520  0.94060  0.61020  1.0000
  H   H73       1.0  0.91480  0.19060  0.36020  1.0000
  H   H74       1.0  0.08520  0.80940  0.36020  1.0000
  H   H75       1.0  0.16480  0.05940  0.61020  1.0000
  H   H76       1.0  0.33520  0.44060  0.61020  1.0000
  H   H77       1.0  0.91480  0.69060  0.86020  1.0000
  H   H78       1.0  0.08520  0.30940  0.86020  1.0000
  H   H79       1.0  0.16480  0.55940  0.11020  1.0000
  H   H80       1.0  0.33520  0.94060  0.11020  1.0000
  C   C113      1.0  0.33860  0.13440  0.80640  1.0000
  C   C114      1.0  0.66140  0.86560  0.80640  1.0000
  C   C115      1.0  0.58860  0.11560  0.05640  1.0000
  C   C116      1.0  0.91140  0.38440  0.05640  1.0000
  C   C117      1.0  0.33860  0.63440  0.30640  1.0000
  C   C118      1.0  0.66140  0.36560  0.30640  1.0000
  C   C119      1.0  0.58860  0.61560  0.55640  1.0000
  C   C120      1.0  0.91140  0.88440  0.55640  1.0000
  C   C121      1.0  0.83860  0.13440  0.30640  1.0000
  C   C122      1.0  0.16140  0.86560  0.30640  1.0000
  C   C123      1.0  0.08860  0.11560  0.55640  1.0000
  C   C124      1.0  0.41140  0.38440  0.55640  1.0000
  C   C125      1.0  0.83860  0.63440  0.80640  1.0000
  C   C126      1.0  0.16140  0.36560  0.80640  1.0000
  C   C127      1.0  0.08860  0.61560  0.05640  1.0000
  C   C128      1.0  0.41140  0.88440  0.05640  1.0000
  C   C129      1.0  0.40690  0.20690  0.67180  1.0000
  C   C130      1.0  0.59310  0.79310  0.67180  1.0000
  C   C131      1.0  0.65690  0.04310  0.92180  1.0000
  C   C132      1.0  0.84310  0.45690  0.92180  1.0000
  C   C133      1.0  0.40690  0.70690  0.17180  1.0000
  C   C134      1.0  0.59310  0.29310  0.17180  1.0000
  C   C135      1.0  0.65690  0.54310  0.42180  1.0000
  C   C136      1.0  0.84310  0.95690  0.42180  1.0000
  C   C137      1.0  0.90690  0.20690  0.17180  1.0000
  C   C138      1.0  0.09310  0.79310  0.17180  1.0000
  C   C139      1.0  0.15690  0.04310  0.42180  1.0000
  C   C140      1.0  0.34310  0.45690  0.42180  1.0000
  C   C141      1.0  0.90690  0.70690  0.67180  1.0000
  C   C142      1.0  0.09310  0.29310  0.67180  1.0000
  C   C143      1.0  0.15690  0.54310  0.92180  1.0000
  C   C144      1.0  0.34310  0.95690  0.92180  1.0000
  H   H81       1.0  0.40940  0.21110  0.63530  1.0000
  H   H82       1.0  0.59060  0.78890  0.63530  1.0000
  H   H83       1.0  0.65940  0.03890  0.88530  1.0000
  H   H84       1.0  0.84060  0.46110  0.88530  1.0000
  H   H85       1.0  0.40940  0.71110  0.13530  1.0000
  H   H86       1.0  0.59060  0.28890  0.13530  1.0000
  H   H87       1.0  0.65940  0.53890  0.38530  1.0000
  H   H88       1.0  0.84060  0.96110  0.38530  1.0000
  H   H89       1.0  0.90940  0.21110  0.13530  1.0000
  H   H90       1.0  0.09060  0.78890  0.13530  1.0000
  H   H91       1.0  0.15940  0.03890  0.38530  1.0000
  H   H92       1.0  0.34060  0.46110  0.38530  1.0000
  H   H93       1.0  0.90940  0.71110  0.63530  1.0000
  H   H94       1.0  0.09060  0.28890  0.63530  1.0000
  H   H95       1.0  0.15940  0.53890  0.88530  1.0000
  H   H96       1.0  0.34060  0.96110  0.88530  1.0000
  C   C145      1.0  0.40230  0.19200  0.78000  1.0000
  C   C146      1.0  0.59770  0.80800  0.78000  1.0000
  C   C147      1.0  0.65230  0.05800  0.03000  1.0000
  C   C148      1.0  0.84770  0.44200  0.03000  1.0000
  C   C149      1.0  0.40230  0.69200  0.28000  1.0000
  C   C150      1.0  0.59770  0.30800  0.28000  1.0000
  C   C151      1.0  0.65230  0.55800  0.53000  1.0000
  C   C152      1.0  0.84770  0.94200  0.53000  1.0000
  C   C153      1.0  0.90230  0.19200  0.28000  1.0000
  C   C154      1.0  0.09770  0.80800  0.28000  1.0000
  C   C155      1.0  0.15230  0.05800  0.53000  1.0000
  C   C156      1.0  0.34770  0.44200  0.53000  1.0000
  C   C157      1.0  0.90230  0.69200  0.78000  1.0000
  C   C158      1.0  0.09770  0.30800  0.78000  1.0000
  C   C159      1.0  0.15230  0.55800  0.03000  1.0000
  C   C160      1.0  0.34770  0.94200  0.03000  1.0000
  C   C161      1.0  0.26250  0.88350  0.94260  1.0000
  C   C162      1.0  0.73750  0.11650  0.94260  1.0000
  C   C163      1.0  0.51250  0.36650  0.19260  1.0000
  C   C164      1.0  0.98750  0.13350  0.19260  1.0000
  C   C165      1.0  0.26250  0.38350  0.44260  1.0000
  C   C166      1.0  0.73750  0.61650  0.44260  1.0000
  C   C167      1.0  0.51250  0.86650  0.69260  1.0000
  C   C168      1.0  0.98750  0.63350  0.69260  1.0000
  C   C169      1.0  0.76250  0.88350  0.44260  1.0000
  C   C170      1.0  0.23750  0.11650  0.44260  1.0000
  C   C171      1.0  0.01250  0.36650  0.69260  1.0000
  C   C172      1.0  0.48750  0.13350  0.69260  1.0000
  C   C173      1.0  0.76250  0.38350  0.94260  1.0000
  C   C174      1.0  0.23750  0.61650  0.94260  1.0000
  C   C175      1.0  0.01250  0.86650  0.19260  1.0000
  C   C176      1.0  0.48750  0.63350  0.19260  1.0000
  C   C177      1.0  0.37790  0.17970  0.69110  1.0000
  C   C178      1.0  0.62210  0.82030  0.69110  1.0000
  C   C179      1.0  0.62790  0.07030  0.94110  1.0000
  C   C180      1.0  0.87210  0.42970  0.94110  1.0000
  C   C181      1.0  0.37790  0.67970  0.19110  1.0000
  C   C182      1.0  0.62210  0.32030  0.19110  1.0000
  C   C183      1.0  0.62790  0.57030  0.44110  1.0000
  C   C184      1.0  0.87210  0.92970  0.44110  1.0000
  C   C185      1.0  0.87790  0.17970  0.19110  1.0000
  C   C186      1.0  0.12210  0.82030  0.19110  1.0000
  C   C187      1.0  0.12790  0.07030  0.44110  1.0000
  C   C188      1.0  0.37210  0.42970  0.44110  1.0000
  C   C189      1.0  0.87790  0.67970  0.69110  1.0000
  C   C190      1.0  0.12210  0.32030  0.69110  1.0000
  C   C191      1.0  0.12790  0.57030  0.94110  1.0000
  C   C192      1.0  0.37210  0.92970  0.94110  1.0000
  H   H97       1.0  0.36140  0.16640  0.66710  1.0000
  H   H98       1.0  0.63860  0.83360  0.66710  1.0000
  H   H99       1.0  0.61140  0.08360  0.91710  1.0000
  H   H100      1.0  0.88860  0.41640  0.91710  1.0000
  H   H101      1.0  0.36140  0.66640  0.16710  1.0000
  H   H102      1.0  0.63860  0.33360  0.16710  1.0000
  H   H103      1.0  0.61140  0.58360  0.41710  1.0000
  H   H104      1.0  0.88860  0.91640  0.41710  1.0000
  H   H105      1.0  0.86140  0.16640  0.16710  1.0000
  H   H106      1.0  0.13860  0.83360  0.16710  1.0000
  H   H107      1.0  0.11140  0.08360  0.41710  1.0000
  H   H108      1.0  0.38860  0.41640  0.41710  1.0000
  H   H109      1.0  0.86140  0.66640  0.66710  1.0000
  H   H110      1.0  0.13860  0.33360  0.66710  1.0000
  H   H111      1.0  0.11140  0.58360  0.91710  1.0000
  H   H112      1.0  0.38860  0.91640  0.91710  1.0000
  C   C193      1.0  0.24730  0.89410  0.04110  1.0000
  C   C194      1.0  0.75270  0.10590  0.04110  1.0000
  C   C195      1.0  0.49730  0.35590  0.29110  1.0000
  C   C196      1.0  0.00270  0.14410  0.29110  1.0000
  C   C197      1.0  0.24730  0.39410  0.54110  1.0000
  C   C198      1.0  0.75270  0.60590  0.54110  1.0000
  C   C199      1.0  0.49730  0.85590  0.79110  1.0000
  C   C200      1.0  0.00270  0.64410  0.79110  1.0000
  C   C201      1.0  0.74730  0.89410  0.54110  1.0000
  C   C202      1.0  0.25270  0.10590  0.54110  1.0000
  C   C203      1.0  0.99730  0.35590  0.79110  1.0000
  C   C204      1.0  0.50270  0.14410  0.79110  1.0000
  C   C205      1.0  0.74730  0.39410  0.04110  1.0000
  C   C206      1.0  0.25270  0.60590  0.04110  1.0000
  C   C207      1.0  0.99730  0.85590  0.29110  1.0000
  C   C208      1.0  0.50270  0.64410  0.29110  1.0000
  H   H113      1.0  0.24070  0.89550  0.07720  1.0000
  H   H114      1.0  0.75930  0.10450  0.07720  1.0000
  H   H115      1.0  0.49070  0.35450  0.32720  1.0000
  H   H116      1.0  0.00930  0.14550  0.32720  1.0000
  H   H117      1.0  0.24070  0.39550  0.57720  1.0000
  H   H118      1.0  0.75930  0.60450  0.57720  1.0000
  H   H119      1.0  0.49070  0.85450  0.82720  1.0000
  H   H120      1.0  0.00930  0.64550  0.82720  1.0000
  H   H121      1.0  0.74070  0.89550  0.57720  1.0000
  H   H122      1.0  0.25930  0.10450  0.57720  1.0000
  H   H123      1.0  0.99070  0.35450  0.82720  1.0000
  H   H124      1.0  0.50930  0.14550  0.82720  1.0000
  H   H125      1.0  0.74070  0.39550  0.07720  1.0000
  H   H126      1.0  0.25930  0.60450  0.07720  1.0000
  H   H127      1.0  0.99070  0.85450  0.32720  1.0000
  H   H128      1.0  0.50930  0.64550  0.32720  1.0000
  C   C209      1.0  0.30610  0.10590  0.82420  1.0000
  C   C210      1.0  0.69390  0.89410  0.82420  1.0000
  C   C211      1.0  0.55610  0.14410  0.07420  1.0000
  C   C212      1.0  0.94390  0.35590  0.07420  1.0000
  C   C213      1.0  0.30610  0.60590  0.32420  1.0000
  C   C214      1.0  0.69390  0.39410  0.32420  1.0000
  C   C215      1.0  0.55610  0.64410  0.57420  1.0000
  C   C216      1.0  0.94390  0.85590  0.57420  1.0000
  C   C217      1.0  0.80610  0.10590  0.32420  1.0000
  C   C218      1.0  0.19390  0.89410  0.32420  1.0000
  C   C219      1.0  0.05610  0.14410  0.57420  1.0000
  C   C220      1.0  0.44390  0.35590  0.57420  1.0000
  C   C221      1.0  0.80610  0.60590  0.82420  1.0000
  C   C222      1.0  0.19390  0.39410  0.82420  1.0000
  C   C223      1.0  0.05610  0.64410  0.07420  1.0000
  C   C224      1.0  0.44390  0.85590  0.07420  1.0000
  C   C225      1.0  0.29150  0.85800  0.87350  1.0000
  C   C226      1.0  0.70850  0.14200  0.87350  1.0000
  C   C227      1.0  0.54150  0.39200  0.12350  1.0000
  C   C228      1.0  0.95850  0.10800  0.12350  1.0000
  C   C229      1.0  0.29150  0.35800  0.37350  1.0000
  C   C230      1.0  0.70850  0.64200  0.37350  1.0000
  C   C231      1.0  0.54150  0.89200  0.62350  1.0000
  C   C232      1.0  0.95850  0.60800  0.62350  1.0000
  C   C233      1.0  0.79150  0.85800  0.37350  1.0000
  C   C234      1.0  0.20850  0.14200  0.37350  1.0000
  C   C235      1.0  0.04150  0.39200  0.62350  1.0000
  C   C236      1.0  0.45850  0.10800  0.62350  1.0000
  C   C237      1.0  0.79150  0.35800  0.87350  1.0000
  C   C238      1.0  0.20850  0.64200  0.87350  1.0000
  C   C239      1.0  0.04150  0.89200  0.12350  1.0000
  C   C240      1.0  0.45850  0.60800  0.12350  1.0000
  H   H129      1.0  0.29740  0.85710  0.83720  1.0000
  H   H130      1.0  0.70260  0.14290  0.83720  1.0000
  H   H131      1.0  0.54740  0.39290  0.08720  1.0000
  H   H132      1.0  0.95260  0.10710  0.08720  1.0000
  H   H133      1.0  0.29740  0.35710  0.33720  1.0000
  H   H134      1.0  0.70260  0.64290  0.33720  1.0000
  H   H135      1.0  0.54740  0.89290  0.58720  1.0000
  H   H136      1.0  0.95260  0.60710  0.58720  1.0000
  H   H137      1.0  0.79740  0.85710  0.33720  1.0000
  H   H138      1.0  0.20260  0.14290  0.33720  1.0000
  H   H139      1.0  0.04740  0.39290  0.58720  1.0000
  H   H140      1.0  0.45260  0.10710  0.58720  1.0000
  H   H141      1.0  0.79740  0.35710  0.83720  1.0000
  H   H142      1.0  0.20260  0.64290  0.83720  1.0000
  H   H143      1.0  0.04740  0.89290  0.08720  1.0000
  H   H144      1.0  0.45260  0.60710  0.08720  1.0000
  C   C241      1.0  0.13950  0.93950  0.83410  1.0000
  C   C242      1.0  0.86050  0.06050  0.83410  1.0000
  C   C243      1.0  0.38950  0.31050  0.08410  1.0000
  C   C244      1.0  0.11050  0.18950  0.08410  1.0000
  C   C245      1.0  0.13950  0.43950  0.33410  1.0000
  C   C246      1.0  0.86050  0.56050  0.33410  1.0000
  C   C247      1.0  0.38950  0.81050  0.58410  1.0000
  C   C248      1.0  0.11050  0.68950  0.58410  1.0000
  C   C249      1.0  0.63950  0.93950  0.33410  1.0000
  C   C250      1.0  0.36050  0.06050  0.33410  1.0000
  C   C251      1.0  0.88950  0.31050  0.58410  1.0000
  C   C252      1.0  0.61050  0.18950  0.58410  1.0000
  C   C253      1.0  0.63950  0.43950  0.83410  1.0000
  C   C254      1.0  0.36050  0.56050  0.83410  1.0000
  C   C255      1.0  0.88950  0.81050  0.08410  1.0000
  C   C256      1.0  0.61050  0.68950  0.08410  1.0000
  H   H145      1.0  0.13880  0.94060  0.87110  1.0000
  H   H146      1.0  0.86120  0.05940  0.87110  1.0000
  H   H147      1.0  0.38880  0.30940  0.12110  1.0000
  H   H148      1.0  0.11120  0.19060  0.12110  1.0000
  H   H149      1.0  0.13880  0.44060  0.37110  1.0000
  H   H150      1.0  0.86120  0.55940  0.37110  1.0000
  H   H151      1.0  0.38880  0.80940  0.62110  1.0000
  H   H152      1.0  0.11120  0.69060  0.62110  1.0000
  H   H153      1.0  0.63880  0.94060  0.37110  1.0000
  H   H154      1.0  0.36120  0.05940  0.37110  1.0000
  H   H155      1.0  0.88880  0.30940  0.62110  1.0000
  H   H156      1.0  0.61120  0.19060  0.62110  1.0000
  H   H157      1.0  0.63880  0.44060  0.87110  1.0000
  H   H158      1.0  0.36120  0.55940  0.87110  1.0000
  H   H159      1.0  0.88880  0.80940  0.12110  1.0000
  H   H160      1.0  0.61120  0.69060  0.12110  1.0000
  C   C257      1.0  0.22590  0.91890  0.01200  1.0000
  C   C258      1.0  0.77410  0.08110  0.01200  1.0000
  C   C259      1.0  0.47590  0.33110  0.26200  1.0000
  C   C260      1.0  0.02410  0.16890  0.26200  1.0000
  C   C261      1.0  0.22590  0.41890  0.51200  1.0000
  C   C262      1.0  0.77410  0.58110  0.51200  1.0000
  C   C263      1.0  0.47590  0.83110  0.76200  1.0000
  C   C264      1.0  0.02410  0.66890  0.76200  1.0000
  C   C265      1.0  0.72590  0.91890  0.51200  1.0000
  C   C266      1.0  0.27410  0.08110  0.51200  1.0000
  C   C267      1.0  0.97590  0.33110  0.76200  1.0000
  C   C268      1.0  0.52410  0.16890  0.76200  1.0000
  C   C269      1.0  0.72590  0.41890  0.01200  1.0000
  C   C270      1.0  0.27410  0.58110  0.01200  1.0000
  C   C271      1.0  0.97590  0.83110  0.26200  1.0000
  C   C272      1.0  0.52410  0.66890  0.26200  1.0000
  C   C273      1.0  0.22920  0.91610  0.96210  1.0000
  C   C274      1.0  0.77080  0.08390  0.96210  1.0000
  C   C275      1.0  0.47920  0.33390  0.21210  1.0000
  C   C276      1.0  0.02080  0.16610  0.21210  1.0000
  C   C277      1.0  0.22920  0.41610  0.46210  1.0000
  C   C278      1.0  0.77080  0.58390  0.46210  1.0000
  C   C279      1.0  0.47920  0.83390  0.71210  1.0000
  C   C280      1.0  0.02080  0.66610  0.71210  1.0000
  C   C281      1.0  0.72920  0.91610  0.46210  1.0000
  C   C282      1.0  0.27080  0.08390  0.46210  1.0000
  C   C283      1.0  0.97920  0.33390  0.71210  1.0000
  C   C284      1.0  0.52080  0.16610  0.71210  1.0000
  C   C285      1.0  0.72920  0.41610  0.96210  1.0000
  C   C286      1.0  0.27080  0.58390  0.96210  1.0000
  C   C287      1.0  0.97920  0.83390  0.21210  1.0000
  C   C288      1.0  0.52080  0.66610  0.21210  1.0000
  H   H161      1.0  0.21410  0.93110  0.93840  1.0000
  H   H162      1.0  0.78590  0.06890  0.93840  1.0000
  H   H163      1.0  0.46410  0.31890  0.18840  1.0000
  H   H164      1.0  0.03590  0.18110  0.18840  1.0000
  H   H165      1.0  0.21410  0.43110  0.43840  1.0000
  H   H166      1.0  0.78590  0.56890  0.43840  1.0000
  H   H167      1.0  0.46410  0.81890  0.68840  1.0000
  H   H168      1.0  0.03590  0.68110  0.68840  1.0000
  H   H169      1.0  0.71410  0.93110  0.43840  1.0000
  H   H170      1.0  0.28590  0.06890  0.43840  1.0000
  H   H171      1.0  0.96410  0.31890  0.68840  1.0000
  H   H172      1.0  0.53590  0.18110  0.68840  1.0000
  H   H173      1.0  0.71410  0.43110  0.93840  1.0000
  H   H174      1.0  0.28590  0.56890  0.93840  1.0000
  H   H175      1.0  0.96410  0.81890  0.18840  1.0000
  H   H176      1.0  0.53590  0.68110  0.18840  1.0000
  C   C289      1.0  0.28190  0.13420  0.09960  1.0000
  C   C290      1.0  0.71810  0.86580  0.09960  1.0000
  C   C291      1.0  0.53190  0.11580  0.34960  1.0000
  C   C292      1.0  0.96810  0.38420  0.34960  1.0000
  C   C293      1.0  0.28190  0.63420  0.59960  1.0000
  C   C294      1.0  0.71810  0.36580  0.59960  1.0000
  C   C295      1.0  0.53190  0.61580  0.84960  1.0000
  C   C296      1.0  0.96810  0.88420  0.84960  1.0000
  C   C297      1.0  0.78190  0.13420  0.59960  1.0000
  C   C298      1.0  0.21810  0.86580  0.59960  1.0000
  C   C299      1.0  0.03190  0.11580  0.84960  1.0000
  C   C300      1.0  0.46810  0.38420  0.84960  1.0000
  C   C301      1.0  0.78190  0.63420  0.09960  1.0000
  C   C302      1.0  0.21810  0.36580  0.09960  1.0000
  C   C303      1.0  0.03190  0.61580  0.34960  1.0000
  C   C304      1.0  0.46810  0.88420  0.34960  1.0000
  H   H177      1.0  0.29850  0.14780  0.07610  1.0000
  H   H178      1.0  0.70150  0.85220  0.07610  1.0000
  H   H179      1.0  0.54850  0.10220  0.32610  1.0000
  H   H180      1.0  0.95150  0.39780  0.32610  1.0000
  H   H181      1.0  0.29850  0.64780  0.57610  1.0000
  H   H182      1.0  0.70150  0.35220  0.57610  1.0000
  H   H183      1.0  0.54850  0.60220  0.82610  1.0000
  H   H184      1.0  0.95150  0.89780  0.82610  1.0000
  H   H185      1.0  0.79850  0.14780  0.57610  1.0000
  H   H186      1.0  0.20150  0.85220  0.57610  1.0000
  H   H187      1.0  0.04850  0.10220  0.82610  1.0000
  H   H188      1.0  0.45150  0.39780  0.82610  1.0000
  H   H189      1.0  0.79850  0.64780  0.07610  1.0000
  H   H190      1.0  0.20150  0.35220  0.07610  1.0000
  H   H191      1.0  0.04850  0.60220  0.32610  1.0000
  H   H192      1.0  0.45150  0.89780  0.32610  1.0000
  C   C305      1.0  0.30980  0.83430  0.96060  1.0000
  C   C306      1.0  0.69020  0.16570  0.96060  1.0000
  C   C307      1.0  0.55980  0.41570  0.21060  1.0000
  C   C308      1.0  0.94020  0.08430  0.21060  1.0000
  C   C309      1.0  0.30980  0.33430  0.46060  1.0000
  C   C310      1.0  0.69020  0.66570  0.46060  1.0000
  C   C311      1.0  0.55980  0.91570  0.71060  1.0000
  C   C312      1.0  0.94020  0.58430  0.71060  1.0000
  C   C313      1.0  0.80980  0.83430  0.46060  1.0000
  C   C314      1.0  0.19020  0.16570  0.46060  1.0000
  C   C315      1.0  0.05980  0.41570  0.71060  1.0000
  C   C316      1.0  0.44020  0.08430  0.71060  1.0000
  C   C317      1.0  0.80980  0.33430  0.96060  1.0000
  C   C318      1.0  0.19020  0.66570  0.96060  1.0000
  C   C319      1.0  0.05980  0.91570  0.21060  1.0000
  C   C320      1.0  0.44020  0.58430  0.21060  1.0000
  H   H193      1.0  0.32490  0.81980  0.98480  1.0000
  H   H194      1.0  0.67510  0.18020  0.98480  1.0000
  H   H195      1.0  0.57490  0.43020  0.23480  1.0000
  H   H196      1.0  0.92510  0.06980  0.23480  1.0000
  H   H197      1.0  0.32490  0.31980  0.48480  1.0000
  H   H198      1.0  0.67510  0.68020  0.48480  1.0000
  H   H199      1.0  0.57490  0.93020  0.73480  1.0000
  H   H200      1.0  0.92510  0.56980  0.73480  1.0000
  H   H201      1.0  0.82490  0.81980  0.48480  1.0000
  H   H202      1.0  0.17510  0.18020  0.48480  1.0000
  H   H203      1.0  0.07490  0.43020  0.73480  1.0000
  H   H204      1.0  0.42510  0.06980  0.73480  1.0000
  H   H205      1.0  0.82490  0.31980  0.98480  1.0000
  H   H206      1.0  0.17510  0.68020  0.98480  1.0000
  H   H207      1.0  0.07490  0.93020  0.23480  1.0000
  H   H208      1.0  0.42510  0.56980  0.23480  1.0000
  C   C321      1.0  0.11680  0.91440  0.81000  1.0000
  C   C322      1.0  0.88320  0.08560  0.81000  1.0000
  C   C323      1.0  0.36680  0.33560  0.06000  1.0000
  C   C324      1.0  0.13320  0.16440  0.06000  1.0000
  C   C325      1.0  0.11680  0.41440  0.31000  1.0000
  C   C326      1.0  0.88320  0.58560  0.31000  1.0000
  C   C327      1.0  0.36680  0.83560  0.56000  1.0000
  C   C328      1.0  0.13320  0.66440  0.56000  1.0000
  C   C329      1.0  0.61680  0.91440  0.31000  1.0000
  C   C330      1.0  0.38320  0.08560  0.31000  1.0000
  C   C331      1.0  0.86680  0.33560  0.56000  1.0000
  C   C332      1.0  0.63320  0.16440  0.56000  1.0000
  C   C333      1.0  0.61680  0.41440  0.81000  1.0000
  C   C334      1.0  0.38320  0.58560  0.81000  1.0000
  C   C335      1.0  0.86680  0.83560  0.06000  1.0000
  C   C336      1.0  0.63320  0.66440  0.06000  1.0000
  H   H209      1.0  0.10110  0.89750  0.83020  1.0000
  H   H210      1.0  0.89890  0.10250  0.83020  1.0000
  H   H211      1.0  0.35110  0.35250  0.08020  1.0000
  H   H212      1.0  0.14890  0.14750  0.08020  1.0000
  H   H213      1.0  0.10110  0.39750  0.33020  1.0000
  H   H214      1.0  0.89890  0.60250  0.33020  1.0000
  H   H215      1.0  0.35110  0.85250  0.58020  1.0000
  H   H216      1.0  0.14890  0.64750  0.58020  1.0000
  H   H217      1.0  0.60110  0.89750  0.33020  1.0000
  H   H218      1.0  0.39890  0.10250  0.33020  1.0000
  H   H219      1.0  0.85110  0.35250  0.58020  1.0000
  H   H220      1.0  0.64890  0.14750  0.58020  1.0000
  H   H221      1.0  0.60110  0.39750  0.83020  1.0000
  H   H222      1.0  0.39890  0.60250  0.83020  1.0000
  H   H223      1.0  0.85110  0.85250  0.08020  1.0000
  H   H224      1.0  0.64890  0.64750  0.08020  1.0000
  C   C337      1.0  0.34080  0.80210  0.88100  1.0000
  C   C338      1.0  0.65920  0.19790  0.88100  1.0000
  C   C339      1.0  0.59080  0.44790  0.13100  1.0000
  C   C340      1.0  0.90920  0.05210  0.13100  1.0000
  C   C341      1.0  0.34080  0.30210  0.38100  1.0000
  C   C342      1.0  0.65920  0.69790  0.38100  1.0000
  C   C343      1.0  0.59080  0.94790  0.63100  1.0000
  C   C344      1.0  0.90920  0.55210  0.63100  1.0000
  C   C345      1.0  0.84080  0.80210  0.38100  1.0000
  C   C346      1.0  0.15920  0.19790  0.38100  1.0000
  C   C347      1.0  0.09080  0.44790  0.63100  1.0000
  C   C348      1.0  0.40920  0.05210  0.63100  1.0000
  C   C349      1.0  0.84080  0.30210  0.88100  1.0000
  C   C350      1.0  0.15920  0.69790  0.88100  1.0000
  C   C351      1.0  0.09080  0.94790  0.13100  1.0000
  C   C352      1.0  0.40920  0.55210  0.13100  1.0000
  C   C353      1.0  0.27610  0.86740  0.03150  1.0000
  C   C354      1.0  0.72390  0.13260  0.03150  1.0000
  C   C355      1.0  0.52610  0.38260  0.28150  1.0000
  C   C356      1.0  0.97390  0.11740  0.28150  1.0000
  C   C357      1.0  0.27610  0.36740  0.53150  1.0000
  C   C358      1.0  0.72390  0.63260  0.53150  1.0000
  C   C359      1.0  0.52610  0.88260  0.78150  1.0000
  C   C360      1.0  0.97390  0.61740  0.78150  1.0000
  C   C361      1.0  0.77610  0.86740  0.53150  1.0000
  C   C362      1.0  0.22390  0.13260  0.53150  1.0000
  C   C363      1.0  0.02610  0.38260  0.78150  1.0000
  C   C364      1.0  0.47390  0.11740  0.78150  1.0000
  C   C365      1.0  0.77610  0.36740  0.03150  1.0000
  C   C366      1.0  0.22390  0.63260  0.03150  1.0000
  C   C367      1.0  0.02610  0.88260  0.28150  1.0000
  C   C368      1.0  0.47390  0.61740  0.28150  1.0000
  H   H225      1.0  0.29130  0.85340  0.05610  1.0000
  H   H226      1.0  0.70870  0.14660  0.05610  1.0000
  H   H227      1.0  0.54130  0.39660  0.30610  1.0000
  H   H228      1.0  0.95870  0.10340  0.30610  1.0000
  H   H229      1.0  0.29130  0.35340  0.55610  1.0000
  H   H230      1.0  0.70870  0.64660  0.55610  1.0000
  H   H231      1.0  0.54130  0.89660  0.80610  1.0000
  H   H232      1.0  0.95870  0.60340  0.80610  1.0000
  H   H233      1.0  0.79130  0.85340  0.55610  1.0000
  H   H234      1.0  0.20870  0.14660  0.55610  1.0000
  H   H235      1.0  0.04130  0.39660  0.80610  1.0000
  H   H236      1.0  0.45870  0.10340  0.80610  1.0000
  H   H237      1.0  0.79130  0.35340  0.05610  1.0000
  H   H238      1.0  0.20870  0.64660  0.05610  1.0000
  H   H239      1.0  0.04130  0.89660  0.30610  1.0000
  H   H240      1.0  0.45870  0.60340  0.30610  1.0000
  C   C369      1.0  0.31390  0.82990  0.91060  1.0000
  C   C370      1.0  0.68610  0.17010  0.91060  1.0000
  C   C371      1.0  0.56390  0.42010  0.16060  1.0000
  C   C372      1.0  0.93610  0.07990  0.16060  1.0000
  C   C373      1.0  0.31390  0.32990  0.41060  1.0000
  C   C374      1.0  0.68610  0.67010  0.41060  1.0000
  C   C375      1.0  0.56390  0.92010  0.66060  1.0000
  C   C376      1.0  0.93610  0.57990  0.66060  1.0000
  C   C377      1.0  0.81390  0.82990  0.41060  1.0000
  C   C378      1.0  0.18610  0.17010  0.41060  1.0000
  C   C379      1.0  0.06390  0.42010  0.66060  1.0000
  C   C380      1.0  0.43610  0.07990  0.66060  1.0000
  C   C381      1.0  0.81390  0.32990  0.91060  1.0000
  C   C382      1.0  0.18610  0.67010  0.91060  1.0000
  C   C383      1.0  0.06390  0.92010  0.16060  1.0000
  C   C384      1.0  0.43610  0.57990  0.16060  1.0000
  C   C385      1.0  0.19690  0.94720  0.03930  1.0000
  C   C386      1.0  0.80310  0.05280  0.03930  1.0000
  C   C387      1.0  0.44690  0.30280  0.28930  1.0000
  C   C388      1.0  0.05310  0.19720  0.28930  1.0000
  C   C389      1.0  0.19690  0.44720  0.53930  1.0000
  C   C390      1.0  0.80310  0.55280  0.53930  1.0000
  C   C391      1.0  0.44690  0.80280  0.78930  1.0000
  C   C392      1.0  0.05310  0.69720  0.78930  1.0000
  C   C393      1.0  0.69690  0.94720  0.53930  1.0000
  C   C394      1.0  0.30310  0.05280  0.53930  1.0000
  C   C395      1.0  0.94690  0.30280  0.78930  1.0000
  C   C396      1.0  0.55310  0.19720  0.78930  1.0000
  C   C397      1.0  0.69690  0.44720  0.03930  1.0000
  C   C398      1.0  0.30310  0.55280  0.03930  1.0000
  C   C399      1.0  0.94690  0.80280  0.28930  1.0000
  C   C400      1.0  0.55310  0.69720  0.28930  1.0000
  C   C401      1.0  0.31570  0.16670  0.17480  1.0000
  C   C402      1.0  0.68430  0.83330  0.17480  1.0000
  C   C403      1.0  0.56570  0.08330  0.42480  1.0000
  C   C404      1.0  0.93430  0.41670  0.42480  1.0000
  C   C405      1.0  0.31570  0.66670  0.67480  1.0000
  C   C406      1.0  0.68430  0.33330  0.67480  1.0000
  C   C407      1.0  0.56570  0.58330  0.92480  1.0000
  C   C408      1.0  0.93430  0.91670  0.92480  1.0000
  C   C409      1.0  0.81570  0.16670  0.67480  1.0000
  C   C410      1.0  0.18430  0.83330  0.67480  1.0000
  C   C411      1.0  0.06570  0.08330  0.92480  1.0000
  C   C412      1.0  0.43430  0.41670  0.92480  1.0000
  C   C413      1.0  0.81570  0.66670  0.17480  1.0000
  C   C414      1.0  0.18430  0.33330  0.17480  1.0000
  C   C415      1.0  0.06570  0.58330  0.42480  1.0000
  C   C416      1.0  0.43430  0.91670  0.42480  1.0000
  H   H241      1.0  0.33230  0.18060  0.15140  1.0000
  H   H242      1.0  0.66770  0.81940  0.15140  1.0000
  H   H243      1.0  0.58230  0.06940  0.40140  1.0000
  H   H244      1.0  0.91770  0.43060  0.40140  1.0000
  H   H245      1.0  0.33230  0.68060  0.65140  1.0000
  H   H246      1.0  0.66770  0.31940  0.65140  1.0000
  H   H247      1.0  0.58230  0.56940  0.90140  1.0000
  H   H248      1.0  0.91770  0.93060  0.90140  1.0000
  H   H249      1.0  0.83230  0.18060  0.65140  1.0000
  H   H250      1.0  0.16770  0.81940  0.65140  1.0000
  H   H251      1.0  0.08230  0.06940  0.90140  1.0000
  H   H252      1.0  0.41770  0.43060  0.90140  1.0000
  H   H253      1.0  0.83230  0.68060  0.15140  1.0000
  H   H254      1.0  0.16770  0.31940  0.15140  1.0000
  H   H255      1.0  0.08230  0.56940  0.40140  1.0000
  H   H256      1.0  0.41770  0.93060  0.40140  1.0000
  C   C417      1.0  0.26550  0.12660  0.24480  1.0000
  C   C418      1.0  0.73450  0.87340  0.24480  1.0000
  C   C419      1.0  0.51550  0.12340  0.49480  1.0000
  C   C420      1.0  0.98450  0.37660  0.49480  1.0000
  C   C421      1.0  0.26550  0.62660  0.74480  1.0000
  C   C422      1.0  0.73450  0.37340  0.74480  1.0000
  C   C423      1.0  0.51550  0.62340  0.99480  1.0000
  C   C424      1.0  0.98450  0.87660  0.99480  1.0000
  C   C425      1.0  0.76550  0.12660  0.74480  1.0000
  C   C426      1.0  0.23450  0.87340  0.74480  1.0000
  C   C427      1.0  0.01550  0.12340  0.99480  1.0000
  C   C428      1.0  0.48450  0.37660  0.99480  1.0000
  C   C429      1.0  0.76550  0.62660  0.24480  1.0000
  C   C430      1.0  0.23450  0.37340  0.24480  1.0000
  C   C431      1.0  0.01550  0.62340  0.49480  1.0000
  C   C432      1.0  0.48450  0.87660  0.49480  1.0000
  H   H257      1.0  0.24910  0.11290  0.26850  1.0000
  H   H258      1.0  0.75090  0.88710  0.26850  1.0000
  H   H259      1.0  0.49910  0.13710  0.51850  1.0000
  H   H260      1.0  0.00090  0.36290  0.51850  1.0000
  H   H261      1.0  0.24910  0.61290  0.76850  1.0000
  H   H262      1.0  0.75090  0.38710  0.76850  1.0000
  H   H263      1.0  0.49910  0.63710  0.01850  1.0000
  H   H264      1.0  0.00090  0.86290  0.01850  1.0000
  H   H265      1.0  0.74910  0.11290  0.76850  1.0000
  H   H266      1.0  0.25090  0.88710  0.76850  1.0000
  H   H267      1.0  0.99910  0.13710  0.01850  1.0000
  H   H268      1.0  0.50090  0.36290  0.01850  1.0000
  H   H269      1.0  0.74910  0.61290  0.26850  1.0000
  H   H270      1.0  0.25090  0.38710  0.26850  1.0000
  H   H271      1.0  0.99910  0.63710  0.51850  1.0000
  H   H272      1.0  0.50090  0.86290  0.51850  1.0000
  C   C433      1.0  0.11530  0.91190  0.75420  1.0000
  C   C434      1.0  0.88470  0.08810  0.75420  1.0000
  C   C435      1.0  0.36530  0.33810  0.00420  1.0000
  C   C436      1.0  0.13470  0.16190  0.00420  1.0000
  C   C437      1.0  0.11530  0.41190  0.25420  1.0000
  C   C438      1.0  0.88470  0.58810  0.25420  1.0000
  C   C439      1.0  0.36530  0.83810  0.50420  1.0000
  C   C440      1.0  0.13470  0.66190  0.50420  1.0000
  C   C441      1.0  0.61530  0.91190  0.25420  1.0000
  C   C442      1.0  0.38470  0.08810  0.25420  1.0000
  C   C443      1.0  0.86530  0.33810  0.50420  1.0000
  C   C444      1.0  0.63470  0.16190  0.50420  1.0000
  C   C445      1.0  0.61530  0.41190  0.75420  1.0000
  C   C446      1.0  0.38470  0.58810  0.75420  1.0000
  C   C447      1.0  0.86530  0.83810  0.00420  1.0000
  C   C448      1.0  0.63470  0.66190  0.00420  1.0000
  C   C449      1.0  0.11480  0.90780  0.64360  1.0000
  C   C450      1.0  0.88520  0.09220  0.64360  1.0000
  C   C451      1.0  0.36480  0.34220  0.89360  1.0000
  C   C452      1.0  0.13520  0.15780  0.89360  1.0000
  C   C453      1.0  0.11480  0.40780  0.14360  1.0000
  C   C454      1.0  0.88520  0.59220  0.14360  1.0000
  C   C455      1.0  0.36480  0.84220  0.39360  1.0000
  C   C456      1.0  0.13520  0.65780  0.39360  1.0000
  C   C457      1.0  0.61480  0.90780  0.14360  1.0000
  C   C458      1.0  0.38520  0.09220  0.14360  1.0000
  C   C459      1.0  0.86480  0.34220  0.39360  1.0000
  C   C460      1.0  0.63520  0.15780  0.39360  1.0000
  C   C461      1.0  0.61480  0.40780  0.64360  1.0000
  C   C462      1.0  0.38520  0.59220  0.64360  1.0000
  C   C463      1.0  0.86480  0.84220  0.89360  1.0000
  C   C464      1.0  0.63520  0.65780  0.89360  1.0000
  H   H273      1.0  0.11660  0.90430  0.60680  1.0000
  H   H274      1.0  0.88340  0.09570  0.60680  1.0000
  H   H275      1.0  0.36660  0.34570  0.85680  1.0000
  H   H276      1.0  0.13340  0.15430  0.85680  1.0000
  H   H277      1.0  0.11660  0.40430  0.10680  1.0000
  H   H278      1.0  0.88340  0.59570  0.10680  1.0000
  H   H279      1.0  0.36660  0.84570  0.35680  1.0000
  H   H280      1.0  0.13340  0.65430  0.35680  1.0000
  H   H281      1.0  0.61660  0.90430  0.10680  1.0000
  H   H282      1.0  0.38340  0.09570  0.10680  1.0000
  H   H283      1.0  0.86660  0.34570  0.35680  1.0000
  H   H284      1.0  0.63340  0.15430  0.35680  1.0000
  H   H285      1.0  0.61660  0.40430  0.60680  1.0000
  H   H286      1.0  0.38340  0.59570  0.60680  1.0000
  H   H287      1.0  0.86660  0.84570  0.85680  1.0000
  H   H288      1.0  0.63340  0.65430  0.85680  1.0000
  C   C465      1.0  0.13880  0.93510  0.66800  1.0000
  C   C466      1.0  0.86120  0.06490  0.66800  1.0000
  C   C467      1.0  0.38880  0.31490  0.91800  1.0000
  C   C468      1.0  0.11120  0.18510  0.91800  1.0000
  C   C469      1.0  0.13880  0.43510  0.16800  1.0000
  C   C470      1.0  0.86120  0.56490  0.16800  1.0000
  C   C471      1.0  0.38880  0.81490  0.41800  1.0000
  C   C472      1.0  0.11120  0.68510  0.41800  1.0000
  C   C473      1.0  0.63880  0.93510  0.16800  1.0000
  C   C474      1.0  0.36120  0.06490  0.16800  1.0000
  C   C475      1.0  0.88880  0.31490  0.41800  1.0000
  C   C476      1.0  0.61120  0.18510  0.41800  1.0000
  C   C477      1.0  0.63880  0.43510  0.66800  1.0000
  C   C478      1.0  0.36120  0.56490  0.66800  1.0000
  C   C479      1.0  0.88880  0.81490  0.91800  1.0000
  C   C480      1.0  0.61120  0.68510  0.91800  1.0000
  H   H289      1.0  0.15440  0.95190  0.64760  1.0000
  H   H290      1.0  0.84560  0.04810  0.64760  1.0000
  H   H291      1.0  0.40440  0.29810  0.89760  1.0000
  H   H292      1.0  0.09560  0.20190  0.89760  1.0000
  H   H293      1.0  0.15440  0.45190  0.14760  1.0000
  H   H294      1.0  0.84560  0.54810  0.14760  1.0000
  H   H295      1.0  0.40440  0.79810  0.39760  1.0000
  H   H296      1.0  0.09560  0.70190  0.39760  1.0000
  H   H297      1.0  0.65440  0.95190  0.14760  1.0000
  H   H298      1.0  0.34560  0.04810  0.14760  1.0000
  H   H299      1.0  0.90440  0.29810  0.39760  1.0000
  H   H300      1.0  0.59560  0.20190  0.39760  1.0000
  H   H301      1.0  0.65440  0.45190  0.64760  1.0000
  H   H302      1.0  0.34560  0.54810  0.64760  1.0000
  H   H303      1.0  0.90440  0.79810  0.89760  1.0000
  H   H304      1.0  0.59560  0.70190  0.89760  1.0000
  C   C481      1.0  0.28620  0.14080  0.15330  1.0000
  C   C482      1.0  0.71380  0.85920  0.15330  1.0000
  C   C483      1.0  0.53620  0.10920  0.40330  1.0000
  C   C484      1.0  0.96380  0.39080  0.40330  1.0000
  C   C485      1.0  0.28620  0.64080  0.65330  1.0000
  C   C486      1.0  0.71380  0.35920  0.65330  1.0000
  C   C487      1.0  0.53620  0.60920  0.90330  1.0000
  C   C488      1.0  0.96380  0.89080  0.90330  1.0000
  C   C489      1.0  0.78620  0.14080  0.65330  1.0000
  C   C490      1.0  0.21380  0.85920  0.65330  1.0000
  C   C491      1.0  0.03620  0.10920  0.90330  1.0000
  C   C492      1.0  0.46380  0.39080  0.90330  1.0000
  C   C493      1.0  0.78620  0.64080  0.15330  1.0000
  C   C494      1.0  0.21380  0.35920  0.15330  1.0000
  C   C495      1.0  0.03620  0.60920  0.40330  1.0000
  C   C496      1.0  0.46380  0.89080  0.40330  1.0000
  C   C497      1.0  0.16520  0.96270  0.75250  1.0000
  C   C498      1.0  0.83480  0.03730  0.75250  1.0000
  C   C499      1.0  0.41520  0.28730  0.00250  1.0000
  C   C500      1.0  0.08480  0.21270  0.00250  1.0000
  C   C501      1.0  0.16520  0.46270  0.25250  1.0000
  C   C502      1.0  0.83480  0.53730  0.25250  1.0000
  C   C503      1.0  0.41520  0.78730  0.50250  1.0000
  C   C504      1.0  0.08480  0.71270  0.50250  1.0000
  C   C505      1.0  0.66520  0.96270  0.25250  1.0000
  C   C506      1.0  0.33480  0.03730  0.25250  1.0000
  C   C507      1.0  0.91520  0.28730  0.50250  1.0000
  C   C508      1.0  0.58480  0.21270  0.50250  1.0000
  C   C509      1.0  0.66520  0.46270  0.75250  1.0000
  C   C510      1.0  0.33480  0.53730  0.75250  1.0000
  C   C511      1.0  0.91520  0.78730  0.00250  1.0000
  C   C512      1.0  0.58480  0.71270  0.00250  1.0000
  H   H305      1.0  0.18300  0.97860  0.73380  1.0000
  H   H306      1.0  0.81700  0.02140  0.73380  1.0000
  H   H307      1.0  0.43300  0.27140  0.98380  1.0000
  H   H308      1.0  0.06700  0.22860  0.98380  1.0000
  H   H309      1.0  0.18300  0.47860  0.23380  1.0000
  H   H310      1.0  0.81700  0.52140  0.23380  1.0000
  H   H311      1.0  0.43300  0.77140  0.48380  1.0000
  H   H312      1.0  0.06700  0.72860  0.48380  1.0000
  H   H313      1.0  0.68300  0.97860  0.23380  1.0000
  H   H314      1.0  0.31700  0.02140  0.23380  1.0000
  H   H315      1.0  0.93300  0.27140  0.48380  1.0000
  H   H316      1.0  0.56700  0.22860  0.48380  1.0000
  H   H317      1.0  0.68300  0.47860  0.73380  1.0000
  H   H318      1.0  0.31700  0.52140  0.73380  1.0000
  H   H319      1.0  0.93300  0.77140  0.98380  1.0000
  H   H320      1.0  0.56700  0.72860  0.98380  1.0000
  C   C513      1.0  0.13960  0.93770  0.72440  1.0000
  C   C514      1.0  0.86040  0.06230  0.72440  1.0000
  C   C515      1.0  0.38960  0.31230  0.97440  1.0000
  C   C516      1.0  0.11040  0.18770  0.97440  1.0000
  C   C517      1.0  0.13960  0.43770  0.22440  1.0000
  C   C518      1.0  0.86040  0.56230  0.22440  1.0000
  C   C519      1.0  0.38960  0.81230  0.47440  1.0000
  C   C520      1.0  0.11040  0.68770  0.47440  1.0000
  C   C521      1.0  0.63960  0.93770  0.22440  1.0000
  C   C522      1.0  0.36040  0.06230  0.22440  1.0000
  C   C523      1.0  0.88960  0.31230  0.47440  1.0000
  C   C524      1.0  0.61040  0.18770  0.47440  1.0000
  C   C525      1.0  0.63960  0.43770  0.72440  1.0000
  C   C526      1.0  0.36040  0.56230  0.72440  1.0000
  C   C527      1.0  0.88960  0.81230  0.97440  1.0000
  C   C528      1.0  0.61040  0.68770  0.97440  1.0000
  C   C529      1.0  0.29250  0.15090  0.26360  1.0000
  C   C530      1.0  0.70750  0.84910  0.26360  1.0000
  C   C531      1.0  0.54250  0.09910  0.51360  1.0000
  C   C532      1.0  0.95750  0.40090  0.51360  1.0000
  C   C533      1.0  0.29250  0.65090  0.76360  1.0000
  C   C534      1.0  0.70750  0.34910  0.76360  1.0000
  C   C535      1.0  0.54250  0.59910  0.01360  1.0000
  C   C536      1.0  0.95750  0.90090  0.01360  1.0000
  C   C537      1.0  0.79250  0.15090  0.76360  1.0000
  C   C538      1.0  0.20750  0.84910  0.76360  1.0000
  C   C539      1.0  0.04250  0.09910  0.01360  1.0000
  C   C540      1.0  0.45750  0.40090  0.01360  1.0000
  C   C541      1.0  0.79250  0.65090  0.26360  1.0000
  C   C542      1.0  0.20750  0.34910  0.26360  1.0000
  C   C543      1.0  0.04250  0.59910  0.51360  1.0000
  C   C544      1.0  0.45750  0.90090  0.51360  1.0000
  H   H321      1.0  0.29430  0.15520  0.30020  1.0000
  H   H322      1.0  0.70570  0.84480  0.30020  1.0000
  H   H323      1.0  0.54430  0.09480  0.55020  1.0000
  H   H324      1.0  0.95570  0.40520  0.55020  1.0000
  H   H325      1.0  0.29430  0.65520  0.80020  1.0000
  H   H326      1.0  0.70570  0.34480  0.80020  1.0000
  H   H327      1.0  0.54430  0.59480  0.05020  1.0000
  H   H328      1.0  0.95570  0.90520  0.05020  1.0000
  H   H329      1.0  0.79430  0.15520  0.80020  1.0000
  H   H330      1.0  0.20570  0.84480  0.80020  1.0000
  H   H331      1.0  0.04430  0.09480  0.05020  1.0000
  H   H332      1.0  0.45570  0.40520  0.05020  1.0000
  H   H333      1.0  0.79430  0.65520  0.30020  1.0000
  H   H334      1.0  0.20570  0.34480  0.30020  1.0000
  H   H335      1.0  0.04430  0.59480  0.55020  1.0000
  H   H336      1.0  0.45570  0.90520  0.55020  1.0000
  C   C545      1.0  0.25410  0.10830  0.07870  1.0000
  C   C546      1.0  0.74590  0.89170  0.07870  1.0000
  C   C547      1.0  0.50410  0.14170  0.32870  1.0000
  C   C548      1.0  0.99590  0.35830  0.32870  1.0000
  C   C549      1.0  0.25410  0.60830  0.57870  1.0000
  C   C550      1.0  0.74590  0.39170  0.57870  1.0000
  C   C551      1.0  0.50410  0.64170  0.82870  1.0000
  C   C552      1.0  0.99590  0.85830  0.82870  1.0000
  C   C553      1.0  0.75410  0.10830  0.57870  1.0000
  C   C554      1.0  0.24590  0.89170  0.57870  1.0000
  C   C555      1.0  0.00410  0.14170  0.82870  1.0000
  C   C556      1.0  0.49590  0.35830  0.82870  1.0000
  C   C557      1.0  0.75410  0.60830  0.07870  1.0000
  C   C558      1.0  0.24590  0.39170  0.07870  1.0000
  C   C559      1.0  0.00410  0.64170  0.32870  1.0000
  C   C560      1.0  0.49590  0.85830  0.32870  1.0000
  H   H337      1.0  0.25210  0.10440  0.04210  1.0000
  H   H338      1.0  0.74790  0.89560  0.04210  1.0000
  H   H339      1.0  0.50210  0.14560  0.29210  1.0000
  H   H340      1.0  0.99790  0.35440  0.29210  1.0000
  H   H341      1.0  0.25210  0.60440  0.54210  1.0000
  H   H342      1.0  0.74790  0.39560  0.54210  1.0000
  H   H343      1.0  0.50210  0.64560  0.79210  1.0000
  H   H344      1.0  0.99790  0.85440  0.79210  1.0000
  H   H345      1.0  0.75210  0.10440  0.54210  1.0000
  H   H346      1.0  0.24790  0.89560  0.54210  1.0000
  H   H347      1.0  0.00210  0.14560  0.79210  1.0000
  H   H348      1.0  0.49790  0.35440  0.79210  1.0000
  H   H349      1.0  0.75210  0.60440  0.04210  1.0000
  H   H350      1.0  0.24790  0.39560  0.04210  1.0000
  H   H351      1.0  0.00210  0.64560  0.29210  1.0000
  H   H352      1.0  0.49790  0.85440  0.29210  1.0000
  C   C561      1.0  0.16460  0.96450  0.80700  1.0000
  C   C562      1.0  0.83540  0.03550  0.80700  1.0000
  C   C563      1.0  0.41460  0.28550  0.05700  1.0000
  C   C564      1.0  0.08540  0.21450  0.05700  1.0000
  C   C565      1.0  0.16460  0.46450  0.30700  1.0000
  C   C566      1.0  0.83540  0.53550  0.30700  1.0000
  C   C567      1.0  0.41460  0.78550  0.55700  1.0000
  C   C568      1.0  0.08540  0.71450  0.55700  1.0000
  C   C569      1.0  0.66460  0.96450  0.30700  1.0000
  C   C570      1.0  0.33540  0.03550  0.30700  1.0000
  C   C571      1.0  0.91460  0.28550  0.55700  1.0000
  C   C572      1.0  0.58540  0.21450  0.55700  1.0000
  C   C573      1.0  0.66460  0.46450  0.80700  1.0000
  C   C574      1.0  0.33540  0.53550  0.80700  1.0000
  C   C575      1.0  0.91460  0.78550  0.05700  1.0000
  C   C576      1.0  0.58540  0.71450  0.05700  1.0000
  C   C577      1.0  0.46320  0.25390  0.68570  1.0000
  C   C578      1.0  0.53680  0.74610  0.68570  1.0000
  C   C579      1.0  0.71320  0.99610  0.93570  1.0000
  C   C580      1.0  0.78680  0.50390  0.93570  1.0000
  C   C581      1.0  0.46320  0.75390  0.18570  1.0000
  C   C582      1.0  0.53680  0.24610  0.18570  1.0000
  C   C583      1.0  0.71320  0.49610  0.43570  1.0000
  C   C584      1.0  0.78680  0.00390  0.43570  1.0000
  C   C585      1.0  0.96320  0.25390  0.18570  1.0000
  C   C586      1.0  0.03680  0.74610  0.18570  1.0000
  C   C587      1.0  0.21320  0.99610  0.43570  1.0000
  C   C588      1.0  0.28680  0.50390  0.43570  1.0000
  C   C589      1.0  0.96320  0.75390  0.68570  1.0000
  C   C590      1.0  0.03680  0.24610  0.68570  1.0000
  C   C591      1.0  0.21320  0.49610  0.93570  1.0000
  C   C592      1.0  0.28680  0.00390  0.93570  1.0000
  C   C593      1.0  0.35010  0.19920  0.24870  1.0000
  C   C594      1.0  0.64990  0.80080  0.24870  1.0000
  C   C595      1.0  0.60010  0.05080  0.49870  1.0000
  C   C596      1.0  0.89990  0.44920  0.49870  1.0000
  C   C597      1.0  0.35010  0.69920  0.74870  1.0000
  C   C598      1.0  0.64990  0.30080  0.74870  1.0000
  C   C599      1.0  0.60010  0.55080  0.99870  1.0000
  C   C600      1.0  0.89990  0.94920  0.99870  1.0000
  C   C601      1.0  0.85010  0.19920  0.74870  1.0000
  C   C602      1.0  0.14990  0.80080  0.74870  1.0000
  C   C603      1.0  0.10010  0.05080  0.99870  1.0000
  C   C604      1.0  0.39990  0.44920  0.99870  1.0000
  C   C605      1.0  0.85010  0.69920  0.24870  1.0000
  C   C606      1.0  0.14990  0.30080  0.24870  1.0000
  C   C607      1.0  0.10010  0.55080  0.49870  1.0000
  C   C608      1.0  0.39990  0.94920  0.49870  1.0000
  C   C609      1.0  0.08780  0.88510  0.67320  1.0000
  C   C610      1.0  0.91220  0.11490  0.67320  1.0000
  C   C611      1.0  0.33780  0.36490  0.92320  1.0000
  C   C612      1.0  0.16220  0.13510  0.92320  1.0000
  C   C613      1.0  0.08780  0.38510  0.17320  1.0000
  C   C614      1.0  0.91220  0.61490  0.17320  1.0000
  C   C615      1.0  0.33780  0.86490  0.42320  1.0000
  C   C616      1.0  0.16220  0.63510  0.42320  1.0000
  C   C617      1.0  0.58780  0.88510  0.17320  1.0000
  C   C618      1.0  0.41220  0.11490  0.17320  1.0000
  C   C619      1.0  0.83780  0.36490  0.42320  1.0000
  C   C620      1.0  0.66220  0.13510  0.42320  1.0000
  C   C621      1.0  0.58780  0.38510  0.67320  1.0000
  C   C622      1.0  0.41220  0.61490  0.67320  1.0000
  C   C623      1.0  0.83780  0.86490  0.92320  1.0000
  C   C624      1.0  0.66220  0.63510  0.92320  1.0000
  C   C625      1.0  0.26070  0.12050  0.18840  1.0000
  C   C626      1.0  0.73930  0.87950  0.18840  1.0000
  C   C627      1.0  0.51070  0.12950  0.43840  1.0000
  C   C628      1.0  0.98930  0.37050  0.43840  1.0000
  C   C629      1.0  0.26070  0.62050  0.68840  1.0000
  C   C630      1.0  0.73930  0.37950  0.68840  1.0000
  C   C631      1.0  0.51070  0.62950  0.93840  1.0000
  C   C632      1.0  0.98930  0.87050  0.93840  1.0000
  C   C633      1.0  0.76070  0.12050  0.68840  1.0000
  C   C634      1.0  0.23930  0.87950  0.68840  1.0000
  C   C635      1.0  0.01070  0.12950  0.93840  1.0000
  C   C636      1.0  0.48930  0.37050  0.93840  1.0000
  C   C637      1.0  0.76070  0.62050  0.18840  1.0000
  C   C638      1.0  0.23930  0.37950  0.18840  1.0000
  C   C639      1.0  0.01070  0.62950  0.43840  1.0000
  C   C640      1.0  0.48930  0.87050  0.43840  1.0000
  C   C641      1.0  0.23180  0.09280  0.16910  1.0000
  C   C642      1.0  0.76820  0.90720  0.16910  1.0000
  C   C643      1.0  0.48180  0.15720  0.41910  1.0000
  C   C644      1.0  0.01820  0.34280  0.41910  1.0000
  C   C645      1.0  0.23180  0.59280  0.66910  1.0000
  C   C646      1.0  0.76820  0.40720  0.66910  1.0000
  C   C647      1.0  0.48180  0.65720  0.91910  1.0000
  C   C648      1.0  0.01820  0.84280  0.91910  1.0000
  C   C649      1.0  0.73180  0.09280  0.66910  1.0000
  C   C650      1.0  0.26820  0.90720  0.66910  1.0000
  C   C651      1.0  0.98180  0.15720  0.91910  1.0000
  C   C652      1.0  0.51820  0.34280  0.91910  1.0000
  C   C653      1.0  0.73180  0.59280  0.16910  1.0000
  C   C654      1.0  0.26820  0.40720  0.16910  1.0000
  C   C655      1.0  0.98180  0.65720  0.41910  1.0000
  C   C656      1.0  0.51820  0.84280  0.41910  1.0000
  H   H353      1.0  0.21570  0.07860  0.19250  1.0000
  H   H354      1.0  0.78430  0.92140  0.19250  1.0000
  H   H355      1.0  0.46570  0.17140  0.44250  1.0000
  H   H356      1.0  0.03430  0.32860  0.44250  1.0000
  H   H357      1.0  0.21570  0.57860  0.69250  1.0000
  H   H358      1.0  0.78430  0.42140  0.69250  1.0000
  H   H359      1.0  0.46570  0.67140  0.94250  1.0000
  H   H360      1.0  0.03430  0.82860  0.94250  1.0000
  H   H361      1.0  0.71570  0.07860  0.69250  1.0000
  H   H362      1.0  0.28430  0.92140  0.69250  1.0000
  H   H363      1.0  0.96570  0.17140  0.94250  1.0000
  H   H364      1.0  0.53430  0.32860  0.94250  1.0000
  H   H365      1.0  0.71570  0.57860  0.19250  1.0000
  H   H366      1.0  0.28430  0.42140  0.19250  1.0000
  H   H367      1.0  0.96570  0.67140  0.44250  1.0000
  H   H368      1.0  0.53430  0.82860  0.44250  1.0000
  C   C657      1.0  0.22870  0.08780  0.11520  1.0000
  C   C658      1.0  0.77130  0.91220  0.11520  1.0000
  C   C659      1.0  0.47870  0.16220  0.36520  1.0000
  C   C660      1.0  0.02130  0.33780  0.36520  1.0000
  C   C661      1.0  0.22870  0.58780  0.61520  1.0000
  C   C662      1.0  0.77130  0.41220  0.61520  1.0000
  C   C663      1.0  0.47870  0.66220  0.86520  1.0000
  C   C664      1.0  0.02130  0.83780  0.86520  1.0000
  C   C665      1.0  0.72870  0.08780  0.61520  1.0000
  C   C666      1.0  0.27130  0.91220  0.61520  1.0000
  C   C667      1.0  0.97870  0.16220  0.86520  1.0000
  C   C668      1.0  0.52130  0.33780  0.86520  1.0000
  C   C669      1.0  0.72870  0.58780  0.11520  1.0000
  C   C670      1.0  0.27130  0.41220  0.11520  1.0000
  C   C671      1.0  0.97870  0.66220  0.36520  1.0000
  C   C672      1.0  0.52130  0.83780  0.36520  1.0000
  C   C673      1.0  0.08980  0.88520  0.72590  1.0000
  C   C674      1.0  0.91020  0.11480  0.72590  1.0000
  C   C675      1.0  0.33980  0.36480  0.97590  1.0000
  C   C676      1.0  0.16020  0.13520  0.97590  1.0000
  C   C677      1.0  0.08980  0.38520  0.22590  1.0000
  C   C678      1.0  0.91020  0.61480  0.22590  1.0000
  C   C679      1.0  0.33980  0.86480  0.47590  1.0000
  C   C680      1.0  0.16020  0.63520  0.47590  1.0000
  C   C681      1.0  0.58980  0.88520  0.22590  1.0000
  C   C682      1.0  0.41020  0.11480  0.22590  1.0000
  C   C683      1.0  0.83980  0.36480  0.47590  1.0000
  C   C684      1.0  0.66020  0.13520  0.47590  1.0000
  C   C685      1.0  0.58980  0.38520  0.72590  1.0000
  C   C686      1.0  0.41020  0.61480  0.72590  1.0000
  C   C687      1.0  0.83980  0.86480  0.97590  1.0000
  C   C688      1.0  0.66020  0.63520  0.97590  1.0000
  H   H369      1.0  0.07420  0.86750  0.74500  1.0000
  H   H370      1.0  0.92580  0.13250  0.74500  1.0000
  H   H371      1.0  0.32420  0.38250  0.99500  1.0000
  H   H372      1.0  0.17580  0.11750  0.99500  1.0000
  H   H373      1.0  0.07420  0.36750  0.24500  1.0000
  H   H374      1.0  0.92580  0.63250  0.24500  1.0000
  H   H375      1.0  0.32420  0.88250  0.49500  1.0000
  H   H376      1.0  0.17580  0.61750  0.49500  1.0000
  H   H377      1.0  0.57420  0.86750  0.24500  1.0000
  H   H378      1.0  0.42580  0.13250  0.24500  1.0000
  H   H379      1.0  0.82420  0.38250  0.49500  1.0000
  H   H380      1.0  0.67580  0.11750  0.49500  1.0000
  H   H381      1.0  0.57420  0.36750  0.74500  1.0000
  H   H382      1.0  0.42580  0.63250  0.74500  1.0000
  H   H383      1.0  0.82420  0.88250  0.99500  1.0000
  H   H384      1.0  0.67580  0.61750  0.99500  1.0000
  C   C689      1.0  0.43100  0.22660  0.70640  1.0000
  C   C690      1.0  0.56900  0.77340  0.70640  1.0000
  C   C691      1.0  0.68100  0.02340  0.95640  1.0000
  C   C692      1.0  0.81900  0.47660  0.95640  1.0000
  C   C693      1.0  0.43100  0.72660  0.20640  1.0000
  C   C694      1.0  0.56900  0.27340  0.20640  1.0000
  C   C695      1.0  0.68100  0.52340  0.45640  1.0000
  C   C696      1.0  0.81900  0.97660  0.45640  1.0000
  C   C697      1.0  0.93100  0.22660  0.20640  1.0000
  C   C698      1.0  0.06900  0.77340  0.20640  1.0000
  C   C699      1.0  0.18100  0.02340  0.45640  1.0000
  C   C700      1.0  0.31900  0.47660  0.45640  1.0000
  C   C701      1.0  0.93100  0.72660  0.70640  1.0000
  C   C702      1.0  0.06900  0.27340  0.70640  1.0000
  C   C703      1.0  0.18100  0.52340  0.95640  1.0000
  C   C704      1.0  0.31900  0.97660  0.95640  1.0000
  C   C705      1.0  0.32040  0.17170  0.22610  1.0000
  C   C706      1.0  0.67960  0.82830  0.22610  1.0000
  C   C707      1.0  0.57040  0.07830  0.47610  1.0000
  C   C708      1.0  0.92960  0.42170  0.47610  1.0000
  C   C709      1.0  0.32040  0.67170  0.72610  1.0000
  C   C710      1.0  0.67960  0.32830  0.72610  1.0000
  C   C711      1.0  0.57040  0.57830  0.97610  1.0000
  C   C712      1.0  0.92960  0.92170  0.97610  1.0000
  C   C713      1.0  0.82040  0.17170  0.72610  1.0000
  C   C714      1.0  0.17960  0.82830  0.72610  1.0000
  C   C715      1.0  0.07040  0.07830  0.97610  1.0000
  C   C716      1.0  0.42960  0.42170  0.97610  1.0000
  C   C717      1.0  0.82040  0.67170  0.22610  1.0000
  C   C718      1.0  0.17960  0.32830  0.22610  1.0000
  C   C719      1.0  0.07040  0.57830  0.47610  1.0000
  C   C720      1.0  0.42960  0.92170  0.47610  1.0000
  C   C721      1.0  0.06010  0.85650  0.64520  1.0000
  C   C722      1.0  0.93990  0.14350  0.64520  1.0000
  C   C723      1.0  0.31010  0.39350  0.89520  1.0000
  C   C724      1.0  0.18990  0.10650  0.89520  1.0000
  C   C725      1.0  0.06010  0.35650  0.14520  1.0000
  C   C726      1.0  0.93990  0.64350  0.14520  1.0000
  C   C727      1.0  0.31010  0.89350  0.39520  1.0000
  C   C728      1.0  0.18990  0.60650  0.39520  1.0000
  C   C729      1.0  0.56010  0.85650  0.14520  1.0000
  C   C730      1.0  0.43990  0.14350  0.14520  1.0000
  C   C731      1.0  0.81010  0.39350  0.39520  1.0000
  C   C732      1.0  0.68990  0.10650  0.39520  1.0000
  C   C733      1.0  0.56010  0.35650  0.64520  1.0000
  C   C734      1.0  0.43990  0.64350  0.64520  1.0000
  C   C735      1.0  0.81010  0.89350  0.89520  1.0000
  C   C736      1.0  0.68990  0.60650  0.89520  1.0000
  C   C737      1.0  0.18950  0.99600  0.83580  1.0000
  C   C738      1.0  0.81050  0.00400  0.83580  1.0000
  C   C739      1.0  0.43950  0.25400  0.08580  1.0000
  C   C740      1.0  0.06050  0.24600  0.08580  1.0000
  C   C741      1.0  0.18950  0.49600  0.33580  1.0000
  C   C742      1.0  0.81050  0.50400  0.33580  1.0000
  C   C743      1.0  0.43950  0.75400  0.58580  1.0000
  C   C744      1.0  0.06050  0.74600  0.58580  1.0000
  C   C745      1.0  0.68950  0.99600  0.33580  1.0000
  C   C746      1.0  0.31050  0.00400  0.33580  1.0000
  C   C747      1.0  0.93950  0.25400  0.58580  1.0000
  C   C748      1.0  0.56050  0.24600  0.58580  1.0000
  C   C749      1.0  0.68950  0.49600  0.83580  1.0000
  C   C750      1.0  0.31050  0.50400  0.83580  1.0000
  C   C751      1.0  0.93950  0.75400  0.08580  1.0000
  C   C752      1.0  0.56050  0.74600  0.08580  1.0000
  C   C753      1.0  0.19810  0.05870  0.09440  1.0000
  C   C754      1.0  0.80190  0.94130  0.09440  1.0000
  C   C755      1.0  0.44810  0.19130  0.34440  1.0000
  C   C756      1.0  0.05190  0.30870  0.34440  1.0000
  C   C757      1.0  0.19810  0.55870  0.59440  1.0000
  C   C758      1.0  0.80190  0.44130  0.59440  1.0000
  C   C759      1.0  0.44810  0.69130  0.84440  1.0000
  C   C760      1.0  0.05190  0.80870  0.84440  1.0000
  C   C761      1.0  0.69810  0.05870  0.59440  1.0000
  C   C762      1.0  0.30190  0.94130  0.59440  1.0000
  C   C763      1.0  0.94810  0.19130  0.84440  1.0000
  C   C764      1.0  0.55190  0.30870  0.84440  1.0000
  C   C765      1.0  0.69810  0.55870  0.09440  1.0000
  C   C766      1.0  0.30190  0.44130  0.09440  1.0000
  C   C767      1.0  0.94810  0.69130  0.34440  1.0000
  C   C768      1.0  0.55190  0.80870  0.34440  1.0000
  O   O1        1.0  0.29850  0.10840  0.87210  1.0000
  O   O2        1.0  0.70150  0.89160  0.87210  1.0000
  O   O3        1.0  0.54850  0.14160  0.12210  1.0000
  O   O4        1.0  0.95150  0.35840  0.12210  1.0000
  O   O5        1.0  0.29850  0.60840  0.37210  1.0000
  O   O6        1.0  0.70150  0.39160  0.37210  1.0000
  O   O7        1.0  0.54850  0.64160  0.62210  1.0000
  O   O8        1.0  0.95150  0.85840  0.62210  1.0000
  O   O9        1.0  0.79850  0.10840  0.37210  1.0000
  O   O10       1.0  0.20150  0.89160  0.37210  1.0000
  O   O11       1.0  0.04850  0.14160  0.62210  1.0000
  O   O12       1.0  0.45150  0.35840  0.62210  1.0000
  O   O13       1.0  0.79850  0.60840  0.87210  1.0000
  O   O14       1.0  0.20150  0.39160  0.87210  1.0000
  O   O15       1.0  0.04850  0.64160  0.12210  1.0000
  O   O16       1.0  0.45150  0.85840  0.12210  1.0000
  O   O17       1.0  0.28750  0.08550  0.79030  1.0000
  O   O18       1.0  0.71250  0.91450  0.79030  1.0000
  O   O19       1.0  0.53750  0.16450  0.04030  1.0000
  O   O20       1.0  0.96250  0.33550  0.04030  1.0000
  O   O21       1.0  0.28750  0.58550  0.29030  1.0000
  O   O22       1.0  0.71250  0.41450  0.29030  1.0000
  O   O23       1.0  0.53750  0.66450  0.54030  1.0000
  O   O24       1.0  0.96250  0.83550  0.54030  1.0000
  O   O25       1.0  0.78750  0.08550  0.29030  1.0000
  O   O26       1.0  0.21250  0.91450  0.29030  1.0000
  O   O27       1.0  0.03750  0.16450  0.54030  1.0000
  O   O28       1.0  0.46250  0.33550  0.54030  1.0000
  O   O29       1.0  0.78750  0.58550  0.79030  1.0000
  O   O30       1.0  0.21250  0.41450  0.79030  1.0000
  O   O31       1.0  0.03750  0.66450  0.04030  1.0000
  O   O32       1.0  0.46250  0.83550  0.04030  1.0000
  O   O33       1.0  0.18840  0.99620  0.88500  1.0000
  O   O34       1.0  0.81160  0.00380  0.88500  1.0000
  O   O35       1.0  0.43840  0.25380  0.13500  1.0000
  O   O36       1.0  0.06160  0.24620  0.13500  1.0000
  O   O37       1.0  0.18840  0.49620  0.38500  1.0000
  O   O38       1.0  0.81160  0.50380  0.38500  1.0000
  O   O39       1.0  0.43840  0.75380  0.63500  1.0000
  O   O40       1.0  0.06160  0.74620  0.63500  1.0000
  O   O41       1.0  0.68840  0.99620  0.38500  1.0000
  O   O42       1.0  0.31160  0.00380  0.38500  1.0000
  O   O43       1.0  0.93840  0.25380  0.63500  1.0000
  O   O44       1.0  0.56160  0.24620  0.63500  1.0000
  O   O45       1.0  0.68840  0.49620  0.88500  1.0000
  O   O46       1.0  0.31160  0.50380  0.88500  1.0000
  O   O47       1.0  0.93840  0.75380  0.13500  1.0000
  O   O48       1.0  0.56160  0.74620  0.13500  1.0000
  O   O49       1.0  0.49040  0.26570  0.71520  1.0000
  O   O50       1.0  0.50960  0.73430  0.71520  1.0000
  O   O51       1.0  0.74040  0.98430  0.96520  1.0000
  O   O52       1.0  0.75960  0.51570  0.96520  1.0000
  O   O53       1.0  0.49040  0.76570  0.21520  1.0000
  O   O54       1.0  0.50960  0.23430  0.21520  1.0000
  O   O55       1.0  0.74040  0.48430  0.46520  1.0000
  O   O56       1.0  0.75960  0.01570  0.46520  1.0000
  O   O57       1.0  0.99040  0.26570  0.21520  1.0000
  O   O58       1.0  0.00960  0.73430  0.21520  1.0000
  O   O59       1.0  0.24040  0.98430  0.46520  1.0000
  O   O60       1.0  0.25960  0.51570  0.46520  1.0000
  O   O61       1.0  0.99040  0.76570  0.71520  1.0000
  O   O62       1.0  0.00960  0.23430  0.71520  1.0000
  O   O63       1.0  0.24040  0.48430  0.96520  1.0000
  O   O64       1.0  0.25960  0.01570  0.96520  1.0000
  O   O65       1.0  0.36440  0.77930  0.91000  1.0000
  O   O66       1.0  0.63560  0.22070  0.91000  1.0000
  O   O67       1.0  0.61440  0.47070  0.16000  1.0000
  O   O68       1.0  0.88560  0.02930  0.16000  1.0000
  O   O69       1.0  0.36440  0.27930  0.41000  1.0000
  O   O70       1.0  0.63560  0.72070  0.41000  1.0000
  O   O71       1.0  0.61440  0.97070  0.66000  1.0000
  O   O72       1.0  0.88560  0.52930  0.66000  1.0000
  O   O73       1.0  0.86440  0.77930  0.41000  1.0000
  O   O74       1.0  0.13560  0.22070  0.41000  1.0000
  O   O75       1.0  0.11440  0.47070  0.66000  1.0000
  O   O76       1.0  0.38560  0.02930  0.66000  1.0000
  O   O77       1.0  0.86440  0.27930  0.91000  1.0000
  O   O78       1.0  0.13560  0.72070  0.91000  1.0000
  O   O79       1.0  0.11440  0.97070  0.16000  1.0000
  O   O80       1.0  0.38560  0.52930  0.16000  1.0000
  O   O81       1.0  0.45920  0.26300  0.63740  1.0000
  O   O82       1.0  0.54080  0.73700  0.63740  1.0000
  O   O83       1.0  0.70920  0.98700  0.88740  1.0000
  O   O84       1.0  0.79080  0.51300  0.88740  1.0000
  O   O85       1.0  0.45920  0.76300  0.13740  1.0000
  O   O86       1.0  0.54080  0.23700  0.13740  1.0000
  O   O87       1.0  0.70920  0.48700  0.38740  1.0000
  O   O88       1.0  0.79080  0.01300  0.38740  1.0000
  O   O89       1.0  0.95920  0.26300  0.13740  1.0000
  O   O90       1.0  0.04080  0.73700  0.13740  1.0000
  O   O91       1.0  0.20920  0.98700  0.38740  1.0000
  O   O92       1.0  0.29080  0.51300  0.38740  1.0000
  O   O93       1.0  0.95920  0.76300  0.63740  1.0000
  O   O94       1.0  0.04080  0.23700  0.63740  1.0000
  O   O95       1.0  0.20920  0.48700  0.88740  1.0000
  O   O96       1.0  0.29080  0.01300  0.88740  1.0000
  O   O97       1.0  0.21250  0.01700  0.80810  1.0000
  O   O98       1.0  0.78750  0.98300  0.80810  1.0000
  O   O99       1.0  0.46250  0.23300  0.05810  1.0000
  O   O100      1.0  0.03750  0.26700  0.05810  1.0000
  O   O101      1.0  0.21250  0.51700  0.30810  1.0000
  O   O102      1.0  0.78750  0.48300  0.30810  1.0000
  O   O103      1.0  0.46250  0.73300  0.55810  1.0000
  O   O104      1.0  0.03750  0.76700  0.55810  1.0000
  O   O105      1.0  0.71250  0.01700  0.30810  1.0000
  O   O106      1.0  0.28750  0.98300  0.30810  1.0000
  O   O107      1.0  0.96250  0.23300  0.55810  1.0000
  O   O108      1.0  0.53750  0.26700  0.55810  1.0000
  O   O109      1.0  0.71250  0.51700  0.80810  1.0000
  O   O110      1.0  0.28750  0.48300  0.80810  1.0000
  O   O111      1.0  0.96250  0.73300  0.05810  1.0000
  O   O112      1.0  0.53750  0.76700  0.05810  1.0000
  O   O113      1.0  0.34930  0.20840  0.29590  1.0000
  O   O114      1.0  0.65070  0.79160  0.29590  1.0000
  O   O115      1.0  0.59930  0.04160  0.54590  1.0000
  O   O116      1.0  0.90070  0.45840  0.54590  1.0000
  O   O117      1.0  0.34930  0.70840  0.79590  1.0000
  O   O118      1.0  0.65070  0.29160  0.79590  1.0000
  O   O119      1.0  0.59930  0.54160  0.04590  1.0000
  O   O120      1.0  0.90070  0.95840  0.04590  1.0000
  O   O121      1.0  0.84930  0.20840  0.79590  1.0000
  O   O122      1.0  0.15070  0.79160  0.79590  1.0000
  O   O123      1.0  0.09930  0.04160  0.04590  1.0000
  O   O124      1.0  0.40070  0.45840  0.04590  1.0000
  O   O125      1.0  0.84930  0.70840  0.29590  1.0000
  O   O126      1.0  0.15070  0.29160  0.29590  1.0000
  O   O127      1.0  0.09930  0.54160  0.54590  1.0000
  O   O128      1.0  0.40070  0.95840  0.54590  1.0000
  O   O129      1.0  0.37600  0.21271  0.21480  1.0000
  O   O130      1.0  0.62400  0.78729  0.21480  1.0000
  O   O131      1.0  0.62600  0.03729  0.46480  1.0000
  O   O132      1.0  0.87400  0.46271  0.46480  1.0000
  O   O133      1.0  0.37600  0.71271  0.71480  1.0000
  O   O134      1.0  0.62400  0.28729  0.71480  1.0000
  O   O135      1.0  0.62600  0.53729  0.96480  1.0000
  O   O136      1.0  0.87400  0.96271  0.96480  1.0000
  O   O137      1.0  0.87600  0.21271  0.71480  1.0000
  O   O138      1.0  0.12400  0.78729  0.71480  1.0000
  O   O139      1.0  0.12600  0.03729  0.96480  1.0000
  O   O140      1.0  0.37400  0.46271  0.96480  1.0000
  O   O141      1.0  0.87600  0.71271  0.21480  1.0000
  O   O142      1.0  0.12400  0.28729  0.21480  1.0000
  O   O143      1.0  0.12600  0.53729  0.46480  1.0000
  O   O144      1.0  0.37400  0.96271  0.46480  1.0000
  O   O145      1.0  0.19710  0.05420  0.04530  1.0000
  O   O146      1.0  0.80290  0.94580  0.04530  1.0000
  O   O147      1.0  0.44710  0.19580  0.29530  1.0000
  O   O148      1.0  0.05290  0.30420  0.29530  1.0000
  O   O149      1.0  0.19710  0.55420  0.54530  1.0000
  O   O150      1.0  0.80290  0.44580  0.54530  1.0000
  O   O151      1.0  0.44710  0.69580  0.79530  1.0000
  O   O152      1.0  0.05290  0.80420  0.79530  1.0000
  O   O153      1.0  0.69710  0.05420  0.54530  1.0000
  O   O154      1.0  0.30290  0.94580  0.54530  1.0000
  O   O155      1.0  0.94710  0.19580  0.79530  1.0000
  O   O156      1.0  0.55290  0.30420  0.79530  1.0000
  O   O157      1.0  0.69710  0.55420  0.04530  1.0000
  O   O158      1.0  0.30290  0.44580  0.04530  1.0000
  O   O159      1.0  0.94710  0.69580  0.29530  1.0000
  O   O160      1.0  0.55290  0.80420  0.29530  1.0000
  O   O161      1.0  0.05580  0.85910  0.59680  1.0000
  O   O162      1.0  0.94420  0.14090  0.59680  1.0000
  O   O163      1.0  0.30580  0.39090  0.84680  1.0000
  O   O164      1.0  0.19420  0.10910  0.84680  1.0000
  O   O165      1.0  0.05580  0.35910  0.09680  1.0000
  O   O166      1.0  0.94420  0.64090  0.09680  1.0000
  O   O167      1.0  0.30580  0.89090  0.34680  1.0000
  O   O168      1.0  0.19420  0.60910  0.34680  1.0000
  O   O169      1.0  0.55580  0.85910  0.09680  1.0000
  O   O170      1.0  0.44420  0.14090  0.09680  1.0000
  O   O171      1.0  0.80580  0.39090  0.34680  1.0000
  O   O172      1.0  0.69420  0.10910  0.34680  1.0000
  O   O173      1.0  0.55580  0.35910  0.59680  1.0000
  O   O174      1.0  0.44420  0.64090  0.59680  1.0000
  O   O175      1.0  0.80580  0.89090  0.84680  1.0000
  O   O176      1.0  0.69420  0.60910  0.84680  1.0000
  O   O177      1.0  0.17630  0.96960  0.01100  1.0000
  O   O178      1.0  0.82370  0.03040  0.01100  1.0000
  O   O179      1.0  0.42630  0.28040  0.26100  1.0000
  O   O180      1.0  0.07370  0.21960  0.26100  1.0000
  O   O181      1.0  0.17630  0.46960  0.51100  1.0000
  O   O182      1.0  0.82370  0.53040  0.51100  1.0000
  O   O183      1.0  0.42630  0.78040  0.76100  1.0000
  O   O184      1.0  0.07370  0.71960  0.76100  1.0000
  O   O185      1.0  0.67630  0.96960  0.51100  1.0000
  O   O186      1.0  0.32370  0.03040  0.51100  1.0000
  O   O187      1.0  0.92630  0.28040  0.76100  1.0000
  O   O188      1.0  0.57370  0.21960  0.76100  1.0000
  O   O189      1.0  0.67630  0.46960  0.01100  1.0000
  O   O190      1.0  0.32370  0.53040  0.01100  1.0000
  O   O191      1.0  0.92630  0.78040  0.26100  1.0000
  O   O192      1.0  0.57370  0.71960  0.26100  1.0000
  O   O193      1.0  0.04050  0.83282  0.67310  1.0000
  O   O194      1.0  0.95950  0.16718  0.67310  1.0000
  O   O195      1.0  0.29050  0.41718  0.92310  1.0000
  O   O196      1.0  0.20950  0.08282  0.92310  1.0000
  O   O197      1.0  0.04050  0.33282  0.17310  1.0000
  O   O198      1.0  0.95950  0.66718  0.17310  1.0000
  O   O199      1.0  0.29050  0.91718  0.42310  1.0000
  O   O200      1.0  0.20950  0.58282  0.42310  1.0000
  O   O201      1.0  0.54050  0.83282  0.17310  1.0000
  O   O202      1.0  0.45950  0.16718  0.17310  1.0000
  O   O203      1.0  0.79050  0.41718  0.42310  1.0000
  O   O204      1.0  0.70950  0.08282  0.42310  1.0000
  O   O205      1.0  0.54050  0.33282  0.67310  1.0000
  O   O206      1.0  0.45950  0.66718  0.67310  1.0000
  O   O207      1.0  0.79050  0.91718  0.92310  1.0000
  O   O208      1.0  0.70950  0.58282  0.92310  1.0000
  O   O209      1.0  0.34150  0.79970  0.83220  1.0000
  O   O210      1.0  0.65850  0.20030  0.83220  1.0000
  O   O211      1.0  0.59150  0.45030  0.08220  1.0000
  O   O212      1.0  0.90850  0.04970  0.08220  1.0000
  O   O213      1.0  0.34150  0.29970  0.33220  1.0000
  O   O214      1.0  0.65850  0.70030  0.33220  1.0000
  O   O215      1.0  0.59150  0.95030  0.58220  1.0000
  O   O216      1.0  0.90850  0.54970  0.58220  1.0000
  O   O217      1.0  0.84150  0.79970  0.33220  1.0000
  O   O218      1.0  0.15850  0.20030  0.33220  1.0000
  O   O219      1.0  0.09150  0.45030  0.58220  1.0000
  O   O220      1.0  0.40850  0.04970  0.58220  1.0000
  O   O221      1.0  0.84150  0.29970  0.83220  1.0000
  O   O222      1.0  0.15850  0.70030  0.83220  1.0000
  O   O223      1.0  0.09150  0.95030  0.08220  1.0000
  O   O224      1.0  0.40850  0.54970  0.08220  1.0000
  O   O225      1.0  0.19450  0.94780  0.08730  1.0000
  O   O226      1.0  0.80550  0.05220  0.08730  1.0000
  O   O227      1.0  0.44450  0.30220  0.33730  1.0000
  O   O228      1.0  0.05550  0.19780  0.33730  1.0000
  O   O229      1.0  0.19450  0.44780  0.58730  1.0000
  O   O230      1.0  0.80550  0.55220  0.58730  1.0000
  O   O231      1.0  0.44450  0.80220  0.83730  1.0000
  O   O232      1.0  0.05550  0.69780  0.83730  1.0000
  O   O233      1.0  0.69450  0.94780  0.58730  1.0000
  O   O234      1.0  0.30550  0.05220  0.58730  1.0000
  O   O235      1.0  0.94450  0.30220  0.83730  1.0000
  O   O236      1.0  0.55550  0.19780  0.83730  1.0000
  O   O237      1.0  0.69450  0.44780  0.08730  1.0000
  O   O238      1.0  0.30550  0.55220  0.08730  1.0000
  O   O239      1.0  0.94450  0.80220  0.33730  1.0000
  O   O240      1.0  0.55550  0.69780  0.33730  1.0000
  O   O241      1.0  0.17830  0.03960  0.12590  1.0000
  O   O242      1.0  0.82170  0.96040  0.12590  1.0000
  O   O243      1.0  0.42830  0.21040  0.37590  1.0000
  O   O244      1.0  0.07170  0.28960  0.37590  1.0000
  O   O245      1.0  0.17830  0.53960  0.62590  1.0000
  O   O246      1.0  0.82170  0.46040  0.62590  1.0000
  O   O247      1.0  0.42830  0.71040  0.87590  1.0000
  O   O248      1.0  0.07170  0.78960  0.87590  1.0000
  O   O249      1.0  0.67830  0.03960  0.62590  1.0000
  O   O250      1.0  0.32170  0.96040  0.62590  1.0000
  O   O251      1.0  0.92830  0.21040  0.87590  1.0000
  O   O252      1.0  0.57170  0.28960  0.87590  1.0000
  O   O253      1.0  0.67830  0.53960  0.12590  1.0000
  O   O254      1.0  0.32170  0.46040  0.12590  1.0000
  O   O255      1.0  0.92830  0.71040  0.37590  1.0000
  O   O256      1.0  0.57170  0.78960  0.37590  1.0000
