data_image0
_chemical_formula_structural       Sn8O56C8H4C8H4C8H4C12H8C12H4C8H4C8H4C12H8C4
_chemical_formula_sum              "Sn8 O56 C80 H40"
_cell_length_a       9.4392
_cell_length_b       16.4399
_cell_length_c       22.6504
_cell_angle_alpha    90
_cell_angle_beta     94.128
_cell_angle_gamma    90

_space_group_name_H-M_alt    "P 1"
_space_group_IT_number       1

loop_
  _space_group_symop_operation_xyz
  'x, y, z'

loop_
  _atom_site_type_symbol
  _atom_site_label
  _atom_site_symmetry_multiplicity
  _atom_site_fract_x
  _atom_site_fract_y
  _atom_site_fract_z
  _atom_site_occupancy
  Sn  Sn1       1.0  0.42345  0.27337  0.64702  1.0000
  Sn  Sn2       1.0  0.07655  0.77337  0.85298  1.0000
  Sn  Sn3       1.0  0.57655  0.72663  0.35298  1.0000
  Sn  Sn4       1.0  0.92345  0.22663  0.14702  1.0000
  Sn  Sn5       1.0  0.98731  0.80680  0.67628  1.0000
  Sn  Sn6       1.0  0.51269  0.30680  0.82372  1.0000
  Sn  Sn7       1.0  0.01269  0.19320  0.32372  1.0000
  Sn  Sn8       1.0  0.48731  0.69320  0.17628  1.0000
  O   O1        1.0  0.19020  0.73562  0.77824  1.0000
  O   O2        1.0  0.30980  0.23562  0.72176  1.0000
  O   O3        1.0  0.80980  0.26438  0.22176  1.0000
  O   O4        1.0  0.69020  0.76438  0.27824  1.0000
  O   O5        1.0  0.19730  0.61149  0.81680  1.0000
  O   O6        1.0  0.30270  0.11149  0.68320  1.0000
  O   O7        1.0  0.80270  0.38851  0.18320  1.0000
  O   O8        1.0  0.69730  0.88851  0.31680  1.0000
  O   O9        1.0  0.38060  0.39069  0.68252  1.0000
  O   O10       1.0  0.11940  0.89069  0.81748  1.0000
  O   O11       1.0  0.61940  0.60931  0.31748  1.0000
  O   O12       1.0  0.88060  0.10931  0.18252  1.0000
  O   O13       1.0  0.56690  0.42630  0.63299  1.0000
  O   O14       1.0  0.93310  0.92630  0.86701  1.0000
  O   O15       1.0  0.43310  0.57370  0.36701  1.0000
  O   O16       1.0  0.06690  0.07370  0.13299  1.0000
  O   O17       1.0  0.50290  0.73673  0.61591  1.0000
  O   O18       1.0  0.99710  0.23673  0.88409  1.0000
  O   O19       1.0  0.49710  0.26327  0.38409  1.0000
  O   O20       1.0  0.00290  0.76327  0.11591  1.0000
  O   O21       1.0  0.77960  0.79361  0.62813  1.0000
  O   O22       1.0  0.72040  0.29361  0.87187  1.0000
  O   O23       1.0  0.22040  0.20639  0.37187  1.0000
  O   O24       1.0  0.27960  0.70639  0.12813  1.0000
  O   O25       1.0  0.84310  0.68510  0.57698  1.0000
  O   O26       1.0  0.65690  0.18510  0.92302  1.0000
  O   O27       1.0  0.15690  0.31490  0.42302  1.0000
  O   O28       1.0  0.34310  0.81490  0.07698  1.0000
  O   O29       1.0  0.47760  0.45180  0.87756  1.0000
  O   O30       1.0  0.02240  0.95180  0.62244  1.0000
  O   O31       1.0  0.52240  0.54820  0.12244  1.0000
  O   O32       1.0  0.97760  0.04820  0.37756  1.0000
  O   O33       1.0  0.59620  0.42464  0.80057  1.0000
  O   O34       1.0  0.90380  0.92464  0.69943  1.0000
  O   O35       1.0  0.40380  0.57536  0.19943  1.0000
  O   O36       1.0  0.09620  0.07536  0.30057  1.0000
  O   O37       1.0  0.86850  0.65086  0.70974  1.0000
  O   O38       1.0  0.63150  0.15086  0.79026  1.0000
  O   O39       1.0  0.13150  0.34914  0.29026  1.0000
  O   O40       1.0  0.36850  0.84914  0.20974  1.0000
  O   O41       1.0  0.86820  0.77270  0.75211  1.0000
  O   O42       1.0  0.63180  0.27270  0.74789  1.0000
  O   O43       1.0  0.13180  0.22730  0.24789  1.0000
  O   O44       1.0  0.36820  0.72730  0.25211  1.0000
  O   O45       1.0  0.57630  0.75168  0.92166  1.0000
  O   O46       1.0  0.92370  0.25168  0.57834  1.0000
  O   O47       1.0  0.42370  0.24832  0.07834  1.0000
  O   O48       1.0  0.07630  0.74832  0.42166  1.0000
  O   O49       1.0  0.23450  0.69240  0.96237  1.0000
  O   O50       1.0  0.26550  0.19240  0.53763  1.0000
  O   O51       1.0  0.76550  0.30760  0.03763  1.0000
  O   O52       1.0  0.73450  0.80760  0.46237  1.0000
  O   O53       1.0  0.29620  0.78025  0.89409  1.0000
  O   O54       1.0  0.20380  0.28025  0.60591  1.0000
  O   O55       1.0  0.70380  0.21975  0.10591  1.0000
  O   O56       1.0  0.79620  0.71975  0.39409  1.0000
  C   C1        1.0  0.31990  0.63510  0.72996  1.0000
  C   C2        1.0  0.18010  0.13510  0.77004  1.0000
  C   C3        1.0  0.68010  0.36490  0.27004  1.0000
  C   C4        1.0  0.81990  0.86490  0.22996  1.0000
  C   C5        1.0  0.34820  0.55360  0.71993  1.0000
  C   C6        1.0  0.15180  0.05360  0.78007  1.0000
  C   C7        1.0  0.65180  0.44640  0.28007  1.0000
  C   C8        1.0  0.84820  0.94640  0.21993  1.0000
  H   H1        1.0  0.30840  0.51370  0.74270  1.0000
  H   H2        1.0  0.19160  0.01370  0.75730  1.0000
  H   H3        1.0  0.69160  0.48630  0.25730  1.0000
  H   H4        1.0  0.80840  0.98630  0.24270  1.0000
  C   C9        1.0  0.43500  0.53160  0.67622  1.0000
  C   C10       1.0  0.06500  0.03160  0.82378  1.0000
  C   C11       1.0  0.56500  0.46840  0.32378  1.0000
  C   C12       1.0  0.93500  0.96840  0.17622  1.0000
  C   C13       1.0  0.49680  0.59200  0.64216  1.0000
  C   C14       1.0  0.00320  0.09200  0.85784  1.0000
  C   C15       1.0  0.50320  0.40800  0.35784  1.0000
  C   C16       1.0  0.99680  0.90800  0.14216  1.0000
  H   H5        1.0  0.56040  0.57770  0.61440  1.0000
  H   H6        1.0  0.93960  0.07770  0.88560  1.0000
  H   H7        1.0  0.43960  0.42230  0.38560  1.0000
  H   H8        1.0  0.06040  0.92230  0.11440  1.0000
  C   C17       1.0  0.46220  0.67210  0.65030  1.0000
  C   C18       1.0  0.03780  0.17210  0.84970  1.0000
  C   C19       1.0  0.53780  0.32790  0.34970  1.0000
  C   C20       1.0  0.96220  0.82790  0.15030  1.0000
  C   C21       1.0  0.37490  0.69380  0.69464  1.0000
  C   C22       1.0  0.12510  0.19380  0.80536  1.0000
  C   C23       1.0  0.62510  0.30620  0.30536  1.0000
  C   C24       1.0  0.87490  0.80620  0.19464  1.0000
  H   H9        1.0  0.35350  0.74820  0.70050  1.0000
  H   H10       1.0  0.14650  0.24820  0.79950  1.0000
  H   H11       1.0  0.64650  0.25180  0.29950  1.0000
  H   H12       1.0  0.85350  0.75180  0.20050  1.0000
  C   C25       1.0  0.22870  0.66080  0.77877  1.0000
  C   C26       1.0  0.27130  0.16080  0.72123  1.0000
  C   C27       1.0  0.77130  0.33920  0.22123  1.0000
  C   C28       1.0  0.72870  0.83920  0.27877  1.0000
  C   C29       1.0  0.46530  0.44460  0.66245  1.0000
  C   C30       1.0  0.03470  0.94460  0.83755  1.0000
  C   C31       1.0  0.53470  0.55540  0.33755  1.0000
  C   C32       1.0  0.96530  0.05540  0.16245  1.0000
  C   C33       1.0  0.59820  0.72180  0.57106  1.0000
  C   C34       1.0  0.90180  0.22180  0.92894  1.0000
  C   C35       1.0  0.40180  0.27820  0.42894  1.0000
  C   C36       1.0  0.09820  0.77820  0.07106  1.0000
  H   H13       1.0  0.57740  0.75950  0.53860  1.0000
  H   H14       1.0  0.92260  0.25950  0.96140  1.0000
  H   H15       1.0  0.42260  0.24050  0.46140  1.0000
  H   H16       1.0  0.07740  0.74050  0.03860  1.0000
  H   H17       1.0  0.58270  0.66720  0.55580  1.0000
  H   H18       1.0  0.91730  0.16720  0.94420  1.0000
  H   H19       1.0  0.41730  0.33280  0.44420  1.0000
  H   H20       1.0  0.08270  0.83280  0.05580  1.0000
  C   C37       1.0  0.75400  0.73100  0.59332  1.0000
  C   C38       1.0  0.74600  0.23100  0.90668  1.0000
  C   C39       1.0  0.24600  0.26900  0.40668  1.0000
  C   C40       1.0  0.25400  0.76900  0.09332  1.0000
  C   C41       1.0  0.59630  0.56170  0.83522  1.0000
  C   C42       1.0  0.90370  0.06170  0.66478  1.0000
  C   C43       1.0  0.40370  0.43830  0.16478  1.0000
  C   C44       1.0  0.09630  0.93830  0.33522  1.0000
  C   C45       1.0  0.68560  0.58830  0.79253  1.0000
  C   C46       1.0  0.81440  0.08830  0.70747  1.0000
  C   C47       1.0  0.31440  0.41170  0.20747  1.0000
  C   C48       1.0  0.18560  0.91170  0.29253  1.0000
  H   H21       1.0  0.71300  0.55260  0.76360  1.0000
  H   H22       1.0  0.78700  0.05260  0.73640  1.0000
  H   H23       1.0  0.28700  0.44740  0.23640  1.0000
  H   H24       1.0  0.21300  0.94740  0.26360  1.0000
  C   C49       1.0  0.73300  0.66800  0.79352  1.0000
  C   C50       1.0  0.76700  0.16800  0.70648  1.0000
  C   C51       1.0  0.26700  0.33200  0.20648  1.0000
  C   C52       1.0  0.23300  0.83200  0.29352  1.0000
  C   C53       1.0  0.69360  0.72140  0.83745  1.0000
  C   C54       1.0  0.80640  0.22140  0.66255  1.0000
  C   C55       1.0  0.30640  0.27860  0.16255  1.0000
  C   C56       1.0  0.19360  0.77860  0.33745  1.0000
  H   H25       1.0  0.72730  0.77450  0.83870  1.0000
  H   H26       1.0  0.77270  0.27450  0.66130  1.0000
  H   H27       1.0  0.27270  0.22550  0.16130  1.0000
  H   H28       1.0  0.22730  0.72550  0.33870  1.0000
  C   C57       1.0  0.60350  0.69440  0.87925  1.0000
  C   C58       1.0  0.89650  0.19440  0.62075  1.0000
  C   C59       1.0  0.39650  0.30560  0.12075  1.0000
  C   C60       1.0  0.10350  0.80560  0.37925  1.0000
  C   C61       1.0  0.55340  0.61530  0.87823  1.0000
  C   C62       1.0  0.94660  0.11530  0.62177  1.0000
  C   C63       1.0  0.44660  0.38470  0.12177  1.0000
  C   C64       1.0  0.05340  0.88470  0.37823  1.0000
  H   H29       1.0  0.49170  0.59800  0.90590  1.0000
  H   H30       1.0  0.00830  0.09800  0.59410  1.0000
  H   H31       1.0  0.50830  0.40200  0.09410  1.0000
  H   H32       1.0  0.99170  0.90200  0.40590  1.0000
  C   C65       1.0  0.55100  0.47470  0.83835  1.0000
  C   C66       1.0  0.94900  0.97470  0.66165  1.0000
  C   C67       1.0  0.44900  0.52530  0.16165  1.0000
  C   C68       1.0  0.05100  0.02530  0.33835  1.0000
  C   C69       1.0  0.82920  0.69700  0.74826  1.0000
  C   C70       1.0  0.67080  0.19700  0.75174  1.0000
  C   C71       1.0  0.17080  0.30300  0.25174  1.0000
  C   C72       1.0  0.32920  0.80300  0.24826  1.0000
  C   C73       1.0  0.47720  0.73030  0.96391  1.0000
  C   C74       1.0  0.02280  0.23030  0.53609  1.0000
  C   C75       1.0  0.52280  0.26970  0.03609  1.0000
  C   C76       1.0  0.97720  0.76970  0.46391  1.0000
  H   H33       1.0  0.48810  0.76750  0.99710  1.0000
  H   H34       1.0  0.01190  0.26750  0.50290  1.0000
  H   H35       1.0  0.51190  0.23250  0.00290  1.0000
  H   H36       1.0  0.98810  0.73250  0.49710  1.0000
  H   H37       1.0  0.49890  0.67600  0.97870  1.0000
  H   H38       1.0  0.00110  0.17600  0.52130  1.0000
  H   H39       1.0  0.50110  0.32400  0.02130  1.0000
  H   H40       1.0  0.99890  0.82400  0.47870  1.0000
  C   C77       1.0  0.32370  0.73250  0.93820  1.0000
  C   C78       1.0  0.17630  0.23250  0.56180  1.0000
  C   C79       1.0  0.67630  0.26750  0.06180  1.0000
  C   C80       1.0  0.82370  0.76750  0.43820  1.0000
