data_image0
_chemical_formula_structural       Zn4O16C4O4C16H4C4H4C12O4H4
_chemical_formula_sum              "Zn4 O24 C36 H12"
_cell_length_a       9.4352
_cell_length_b       15.3422
_cell_length_c       13.2775
_cell_angle_alpha    90
_cell_angle_beta     106.271
_cell_angle_gamma    90

_space_group_name_H-M_alt    "P 1"
_space_group_IT_number       1

loop_
  _space_group_symop_operation_xyz
  'x, y, z'

loop_
  _atom_site_type_symbol
  _atom_site_label
  _atom_site_symmetry_multiplicity
  _atom_site_fract_x
  _atom_site_fract_y
  _atom_site_fract_z
  _atom_site_occupancy
  Zn  Zn1       1.0  0.87451  0.09567  0.51331  1.0000
  Zn  Zn2       1.0  0.62549  0.59567  0.98669  1.0000
  Zn  Zn3       1.0  0.12549  0.90433  0.48669  1.0000
  Zn  Zn4       1.0  0.37451  0.40433  0.01331  1.0000
  O   O1        1.0  0.06450  0.10400  0.62030  1.0000
  O   O2        1.0  0.43550  0.60400  0.87970  1.0000
  O   O3        1.0  0.93550  0.89600  0.37970  1.0000
  O   O4        1.0  0.56450  0.39600  0.12030  1.0000
  O   O5        1.0  0.79390  0.99030  0.43600  1.0000
  O   O6        1.0  0.70610  0.49030  0.06400  1.0000
  O   O7        1.0  0.20610  0.00970  0.56400  1.0000
  O   O8        1.0  0.29390  0.50970  0.93600  1.0000
  O   O9        1.0  0.71640  0.09780  0.58320  1.0000
  O   O10       1.0  0.78360  0.59780  0.91680  1.0000
  O   O11       1.0  0.28360  0.90220  0.41680  1.0000
  O   O12       1.0  0.21640  0.40220  0.08320  1.0000
  O   O13       1.0  0.83400  0.19170  0.40880  1.0000
  O   O14       1.0  0.66600  0.69170  0.09120  1.0000
  O   O15       1.0  0.16600  0.80830  0.59120  1.0000
  O   O16       1.0  0.33400  0.30830  0.90880  1.0000
  C   C1        1.0  0.70870  0.16450  0.64060  1.0000
  C   C2        1.0  0.79130  0.66450  0.85940  1.0000
  C   C3        1.0  0.29130  0.83550  0.35940  1.0000
  C   C4        1.0  0.20870  0.33550  0.14060  1.0000
  O   O17       1.0  0.80720  0.22140  0.66500  1.0000
  O   O18       1.0  0.69280  0.72140  0.83500  1.0000
  O   O19       1.0  0.19280  0.77860  0.33500  1.0000
  O   O20       1.0  0.30720  0.27860  0.16500  1.0000
  C   C5        1.0  0.57190  0.17130  0.67610  1.0000
  C   C6        1.0  0.92810  0.67130  0.82390  1.0000
  C   C7        1.0  0.42810  0.82870  0.32390  1.0000
  C   C8        1.0  0.07190  0.32870  0.17610  1.0000
  C   C9        1.0  0.56510  0.23380  0.75060  1.0000
  C   C10       1.0  0.93490  0.73380  0.74940  1.0000
  C   C11       1.0  0.43490  0.76620  0.24940  1.0000
  C   C12       1.0  0.06510  0.26620  0.25060  1.0000
  C   C13       1.0  0.44860  0.11890  0.63440  1.0000
  C   C14       1.0  0.05140  0.61890  0.86560  1.0000
  C   C15       1.0  0.55140  0.88110  0.36560  1.0000
  C   C16       1.0  0.94860  0.38110  0.13440  1.0000
  C   C17       1.0  0.43820  0.24400  0.78340  1.0000
  C   C18       1.0  0.06180  0.74400  0.71660  1.0000
  C   C19       1.0  0.56180  0.75600  0.21660  1.0000
  C   C20       1.0  0.93820  0.25600  0.28340  1.0000
  H   H1        1.0  0.64740  0.26960  0.77920  1.0000
  H   H2        1.0  0.85260  0.76960  0.72080  1.0000
  H   H3        1.0  0.35260  0.73040  0.22080  1.0000
  H   H4        1.0  0.14740  0.23040  0.27920  1.0000
  C   C21       1.0  0.32330  0.13020  0.66520  1.0000
  C   C22       1.0  0.17670  0.63020  0.83480  1.0000
  C   C23       1.0  0.67670  0.86980  0.33480  1.0000
  C   C24       1.0  0.82330  0.36980  0.16520  1.0000
  H   H5        1.0  0.45180  0.07570  0.58490  1.0000
  H   H6        1.0  0.04820  0.57570  0.91510  1.0000
  H   H7        1.0  0.54820  0.92430  0.41510  1.0000
  H   H8        1.0  0.95180  0.42430  0.08490  1.0000
  C   C25       1.0  0.43970  0.31130  0.86670  1.0000
  C   C26       1.0  0.06030  0.81130  0.63330  1.0000
  C   C27       1.0  0.56030  0.68870  0.13330  1.0000
  C   C28       1.0  0.93970  0.18870  0.36670  1.0000
  C   C29       1.0  0.31290  0.19120  0.74010  1.0000
  C   C30       1.0  0.18710  0.69120  0.75990  1.0000
  C   C31       1.0  0.68710  0.80880  0.25990  1.0000
  C   C32       1.0  0.81290  0.30880  0.24010  1.0000
  C   C33       1.0  0.18580  0.07670  0.61280  1.0000
  C   C34       1.0  0.31420  0.57670  0.88720  1.0000
  C   C35       1.0  0.81420  0.92330  0.38720  1.0000
  C   C36       1.0  0.68580  0.42330  0.11280  1.0000
  O   O21       1.0  0.53470  0.36650  0.88860  1.0000
  O   O22       1.0  0.96530  0.86650  0.61140  1.0000
  O   O23       1.0  0.46530  0.63350  0.11140  1.0000
  O   O24       1.0  0.03470  0.13350  0.38860  1.0000
  H   H9        1.0  0.22620  0.19710  0.76120  1.0000
  H   H10       1.0  0.27380  0.69710  0.73880  1.0000
  H   H11       1.0  0.77380  0.80290  0.23880  1.0000
  H   H12       1.0  0.72620  0.30290  0.26120  1.0000
