data_image0
_chemical_formula_structural       Cu4O24C4H4C8H8
_chemical_formula_sum              "Cu4 O24 C12 H12"
_cell_length_a       8.5019
_cell_length_b       8.5043
_cell_length_c       11.2256
_cell_angle_alpha    90
_cell_angle_beta     95.055
_cell_angle_gamma    90

_space_group_name_H-M_alt    "P 1"
_space_group_IT_number       1

loop_
  _space_group_symop_operation_xyz
  'x, y, z'

loop_
  _atom_site_type_symbol
  _atom_site_label
  _atom_site_symmetry_multiplicity
  _atom_site_fract_x
  _atom_site_fract_y
  _atom_site_fract_z
  _atom_site_occupancy
  Cu  Cu1       1.0  0.75000  0.75000  0.75000  1.0000
  Cu  Cu2       1.0  0.75000  0.75000  0.25000  1.0000
  Cu  Cu3       1.0  0.25000  0.25000  0.25000  1.0000
  Cu  Cu4       1.0  0.25000  0.25000  0.75000  1.0000
  O   O1        1.0  0.75700  0.86270  0.59840  1.0000
  O   O2        1.0  0.74300  0.86270  0.40160  1.0000
  O   O3        1.0  0.25700  0.36270  0.09840  1.0000
  O   O4        1.0  0.24300  0.36270  0.90160  1.0000
  O   O5        1.0  0.24300  0.13730  0.40160  1.0000
  O   O6        1.0  0.25700  0.13730  0.59840  1.0000
  O   O7        1.0  0.74300  0.63730  0.90160  1.0000
  O   O8        1.0  0.75700  0.63730  0.09840  1.0000
  O   O9        1.0  0.36690  0.47440  0.67440  1.0000
  O   O10       1.0  0.13310  0.47440  0.32560  1.0000
  O   O11       1.0  0.86690  0.97440  0.17440  1.0000
  O   O12       1.0  0.63310  0.97440  0.82560  1.0000
  O   O13       1.0  0.63310  0.52560  0.32560  1.0000
  O   O14       1.0  0.86690  0.52560  0.67440  1.0000
  O   O15       1.0  0.13310  0.02560  0.82560  1.0000
  O   O16       1.0  0.36690  0.02560  0.17440  1.0000
  O   O17       1.0  0.54380  0.66310  0.68790  1.0000
  O   O18       1.0  0.95620  0.66310  0.31210  1.0000
  O   O19       1.0  0.04380  0.16310  0.18790  1.0000
  O   O20       1.0  0.45620  0.16310  0.81210  1.0000
  O   O21       1.0  0.45620  0.33690  0.31210  1.0000
  O   O22       1.0  0.04380  0.33690  0.68790  1.0000
  O   O23       1.0  0.95620  0.83690  0.81210  1.0000
  O   O24       1.0  0.54380  0.83690  0.18790  1.0000
  C   C1        1.0  0.75000  0.79270  0.50000  1.0000
  C   C2        1.0  0.25000  0.29270  0.00000  1.0000
  C   C3        1.0  0.25000  0.20730  0.50000  1.0000
  C   C4        1.0  0.75000  0.70730  0.00000  1.0000
  H   H1        1.0  0.75000  0.68330  0.50000  1.0000
  H   H2        1.0  0.25000  0.18330  0.00000  1.0000
  H   H3        1.0  0.25000  0.31670  0.50000  1.0000
  H   H4        1.0  0.75000  0.81670  0.00000  1.0000
  C   C5        1.0  0.48970  0.53480  0.71780  1.0000
  C   C6        1.0  0.01030  0.53480  0.28220  1.0000
  C   C7        1.0  0.98970  0.03480  0.21780  1.0000
  C   C8        1.0  0.51030  0.03480  0.78220  1.0000
  C   C9        1.0  0.51030  0.46520  0.28220  1.0000
  C   C10       1.0  0.98970  0.46520  0.71780  1.0000
  C   C11       1.0  0.01030  0.96520  0.78220  1.0000
  C   C12       1.0  0.48970  0.96520  0.21780  1.0000
  H   H5        1.0  0.54750  0.47970  0.77850  1.0000
  H   H6        1.0  0.95250  0.47970  0.22150  1.0000
  H   H7        1.0  0.04750  0.97970  0.27850  1.0000
  H   H8        1.0  0.45250  0.97970  0.72150  1.0000
  H   H9        1.0  0.45250  0.52030  0.22150  1.0000
  H   H10       1.0  0.04750  0.52030  0.77850  1.0000
  H   H11       1.0  0.95250  0.02030  0.72150  1.0000
  H   H12       1.0  0.54750  0.02030  0.27850  1.0000
