data_image0
_chemical_formula_structural       Cu4O24C8H8C4H4
_chemical_formula_sum              "Cu4 O24 C12 H12"
_cell_length_a       11.5393
_cell_length_b       8.6391
_cell_length_c       8.8358
_cell_angle_alpha    90
_cell_angle_beta     95.746
_cell_angle_gamma    90

_space_group_name_H-M_alt    "P 1"
_space_group_IT_number       1

loop_
  _space_group_symop_operation_xyz
  'x, y, z'

loop_
  _atom_site_type_symbol
  _atom_site_label
  _atom_site_symmetry_multiplicity
  _atom_site_fract_x
  _atom_site_fract_y
  _atom_site_fract_z
  _atom_site_occupancy
  Cu  Cu1       1.0  0.50000  0.50000  0.00000  1.0000
  Cu  Cu2       1.0  0.00000  0.50000  0.00000  1.0000
  Cu  Cu3       1.0  0.00000  0.00000  0.50000  1.0000
  Cu  Cu4       1.0  0.50000  0.00000  0.50000  1.0000
  O   O1        1.0  0.34630  0.39380  0.00740  1.0000
  O   O2        1.0  0.15370  0.39380  0.99260  1.0000
  O   O3        1.0  0.84630  0.89380  0.50740  1.0000
  O   O4        1.0  0.65370  0.89380  0.49260  1.0000
  O   O5        1.0  0.65370  0.60620  0.99260  1.0000
  O   O6        1.0  0.84630  0.60620  0.00740  1.0000
  O   O7        1.0  0.15370  0.10620  0.49260  1.0000
  O   O8        1.0  0.34630  0.10620  0.50740  1.0000
  O   O9        1.0  0.57170  0.23200  0.37970  1.0000
  O   O10       1.0  0.92830  0.23200  0.62030  1.0000
  O   O11       1.0  0.07170  0.73200  0.87970  1.0000
  O   O12       1.0  0.42830  0.73200  0.12030  1.0000
  O   O13       1.0  0.42830  0.76800  0.62030  1.0000
  O   O14       1.0  0.07170  0.76800  0.37970  1.0000
  O   O15       1.0  0.92830  0.26800  0.12030  1.0000
  O   O16       1.0  0.57170  0.26800  0.87970  1.0000
  O   O17       1.0  0.56000  0.41350  0.20200  1.0000
  O   O18       1.0  0.94000  0.41350  0.79800  1.0000
  O   O19       1.0  0.06000  0.91350  0.70200  1.0000
  O   O20       1.0  0.44000  0.91350  0.29800  1.0000
  O   O21       1.0  0.44000  0.58650  0.79800  1.0000
  O   O22       1.0  0.06000  0.58650  0.20200  1.0000
  O   O23       1.0  0.94000  0.08650  0.29800  1.0000
  O   O24       1.0  0.56000  0.08650  0.70200  1.0000
  C   C1        1.0  0.52790  0.28710  0.25880  1.0000
  C   C2        1.0  0.97210  0.28710  0.74120  1.0000
  C   C3        1.0  0.02790  0.78710  0.75880  1.0000
  C   C4        1.0  0.47210  0.78710  0.24120  1.0000
  C   C5        1.0  0.47210  0.71290  0.74120  1.0000
  C   C6        1.0  0.02790  0.71290  0.25880  1.0000
  C   C7        1.0  0.97210  0.21290  0.24120  1.0000
  C   C8        1.0  0.52790  0.21290  0.75880  1.0000
  H   H1        1.0  0.46736  0.23275  0.20544  1.0000
  H   H2        1.0  0.03264  0.23275  0.79456  1.0000
  H   H3        1.0  0.96736  0.73275  0.70544  1.0000
  H   H4        1.0  0.53264  0.73275  0.29456  1.0000
  H   H5        1.0  0.53264  0.76725  0.79456  1.0000
  H   H6        1.0  0.96736  0.76725  0.20544  1.0000
  H   H7        1.0  0.03264  0.26725  0.29456  1.0000
  H   H8        1.0  0.46736  0.26725  0.70544  1.0000
  C   C9        1.0  0.25000  0.46250  0.00000  1.0000
  C   C10       1.0  0.75000  0.96250  0.50000  1.0000
  C   C11       1.0  0.75000  0.53750  0.00000  1.0000
  C   C12       1.0  0.25000  0.03750  0.50000  1.0000
  H   H9        1.0  0.25000  0.57015  0.00000  1.0000
  H   H10       1.0  0.75000  0.07015  0.50000  1.0000
  H   H11       1.0  0.75000  0.42985  0.00000  1.0000
  H   H12       1.0  0.25000  0.92985  0.50000  1.0000
