data_image0
_chemical_formula_structural       Cu4O24C4H4C8H8
_chemical_formula_sum              "Cu4 O24 C12 H12"
_cell_length_a       11.4292
_cell_length_b       8.7331
_cell_length_c       8.876
_cell_angle_alpha    90
_cell_angle_beta     96.18
_cell_angle_gamma    90

_space_group_name_H-M_alt    "P 1"
_space_group_IT_number       1

loop_
  _space_group_symop_operation_xyz
  'x, y, z'

loop_
  _atom_site_type_symbol
  _atom_site_label
  _atom_site_symmetry_multiplicity
  _atom_site_fract_x
  _atom_site_fract_y
  _atom_site_fract_z
  _atom_site_occupancy
  Cu  Cu1       1.0  0.50000  0.50000  0.50000  1.0000
  Cu  Cu2       1.0  0.00000  0.50000  0.50000  1.0000
  Cu  Cu3       1.0  0.00000  0.00000  0.00000  1.0000
  Cu  Cu4       1.0  0.50000  0.00000  0.00000  1.0000
  O   O1        1.0  0.34690  0.60330  0.50590  1.0000
  O   O2        1.0  0.15310  0.60330  0.49410  1.0000
  O   O3        1.0  0.84690  0.10330  0.00590  1.0000
  O   O4        1.0  0.65310  0.10330  0.99410  1.0000
  O   O5        1.0  0.65310  0.39670  0.49410  1.0000
  O   O6        1.0  0.84690  0.39670  0.50590  1.0000
  O   O7        1.0  0.15310  0.89670  0.99410  1.0000
  O   O8        1.0  0.34690  0.89670  0.00590  1.0000
  O   O9        1.0  0.42750  0.23290  0.12460  1.0000
  O   O10       1.0  0.07250  0.23290  0.87540  1.0000
  O   O11       1.0  0.92750  0.73290  0.62460  1.0000
  O   O12       1.0  0.57250  0.73290  0.37540  1.0000
  O   O13       1.0  0.57250  0.76710  0.87540  1.0000
  O   O14       1.0  0.92750  0.76710  0.12460  1.0000
  O   O15       1.0  0.07250  0.26710  0.37540  1.0000
  O   O16       1.0  0.42750  0.26710  0.62460  1.0000
  O   O17       1.0  0.43930  0.41140  0.30230  1.0000
  O   O18       1.0  0.06070  0.41140  0.69770  1.0000
  O   O19       1.0  0.93930  0.91140  0.80230  1.0000
  O   O20       1.0  0.56070  0.91140  0.19770  1.0000
  O   O21       1.0  0.56070  0.58860  0.69770  1.0000
  O   O22       1.0  0.93930  0.58860  0.30230  1.0000
  O   O23       1.0  0.06070  0.08860  0.19770  1.0000
  O   O24       1.0  0.43930  0.08860  0.80230  1.0000
  C   C1        1.0  0.25000  0.53530  0.50000  1.0000
  C   C2        1.0  0.75000  0.03530  0.00000  1.0000
  C   C3        1.0  0.75000  0.46470  0.50000  1.0000
  C   C4        1.0  0.25000  0.96470  0.00000  1.0000
  H   H1        1.0  0.25000  0.42880  0.50000  1.0000
  H   H2        1.0  0.75000  0.92880  0.00000  1.0000
  H   H3        1.0  0.75000  0.57120  0.50000  1.0000
  H   H4        1.0  0.25000  0.07120  0.00000  1.0000
  C   C5        1.0  0.47110  0.28840  0.24730  1.0000
  C   C6        1.0  0.02890  0.28840  0.75270  1.0000
  C   C7        1.0  0.97110  0.78840  0.74730  1.0000
  C   C8        1.0  0.52890  0.78840  0.25270  1.0000
  C   C9        1.0  0.52890  0.71160  0.75270  1.0000
  C   C10       1.0  0.97110  0.71160  0.24730  1.0000
  C   C11       1.0  0.02890  0.21160  0.25270  1.0000
  C   C12       1.0  0.47110  0.21160  0.74730  1.0000
  H   H5        1.0  0.53162  0.23438  0.30196  1.0000
  H   H6        1.0  0.96838  0.23438  0.69804  1.0000
  H   H7        1.0  0.03162  0.73438  0.80196  1.0000
  H   H8        1.0  0.46838  0.73438  0.19804  1.0000
  H   H9        1.0  0.46838  0.76562  0.69804  1.0000
  H   H10       1.0  0.03162  0.76562  0.30196  1.0000
  H   H11       1.0  0.96838  0.26562  0.19804  1.0000
  H   H12       1.0  0.53162  0.26562  0.80196  1.0000
