data_image0
_chemical_formula_structural       Cu4O24C4H4C8H8
_chemical_formula_sum              "Cu4 O24 C12 H12"
_cell_length_a       10.9738
_cell_length_b       8.4692
_cell_length_c       8.109
_cell_angle_alpha    90
_cell_angle_beta     94.187
_cell_angle_gamma    90

_space_group_name_H-M_alt    "P 1"
_space_group_IT_number       1

loop_
  _space_group_symop_operation_xyz
  'x, y, z'

loop_
  _atom_site_type_symbol
  _atom_site_label
  _atom_site_symmetry_multiplicity
  _atom_site_fract_x
  _atom_site_fract_y
  _atom_site_fract_z
  _atom_site_occupancy
  Cu  Cu1       1.0  0.50000  0.50000  0.50000  1.0000
  Cu  Cu2       1.0  0.00000  0.50000  0.50000  1.0000
  Cu  Cu3       1.0  0.00000  0.00000  0.00000  1.0000
  Cu  Cu4       1.0  0.50000  0.00000  0.00000  1.0000
  O   O1        1.0  0.35010  0.62180  0.50720  1.0000
  O   O2        1.0  0.14990  0.62180  0.49280  1.0000
  O   O3        1.0  0.85010  0.12180  0.00720  1.0000
  O   O4        1.0  0.64990  0.12180  0.99280  1.0000
  O   O5        1.0  0.64990  0.37820  0.49280  1.0000
  O   O6        1.0  0.85010  0.37820  0.50720  1.0000
  O   O7        1.0  0.14990  0.87820  0.99280  1.0000
  O   O8        1.0  0.35010  0.87820  0.00720  1.0000
  O   O9        1.0  0.41590  0.21710  0.11170  1.0000
  O   O10       1.0  0.08410  0.21710  0.88830  1.0000
  O   O11       1.0  0.91590  0.71710  0.61170  1.0000
  O   O12       1.0  0.58410  0.71710  0.38830  1.0000
  O   O13       1.0  0.58410  0.78290  0.88830  1.0000
  O   O14       1.0  0.91590  0.78290  0.11170  1.0000
  O   O15       1.0  0.08410  0.28290  0.38830  1.0000
  O   O16       1.0  0.41590  0.28290  0.61170  1.0000
  O   O17       1.0  0.43440  0.41520  0.28670  1.0000
  O   O18       1.0  0.06560  0.41520  0.71330  1.0000
  O   O19       1.0  0.93440  0.91520  0.78670  1.0000
  O   O20       1.0  0.56560  0.91520  0.21330  1.0000
  O   O21       1.0  0.56560  0.58480  0.71330  1.0000
  O   O22       1.0  0.93440  0.58480  0.28670  1.0000
  O   O23       1.0  0.06560  0.08480  0.21330  1.0000
  O   O24       1.0  0.43440  0.08480  0.78670  1.0000
  C   C1        1.0  0.25000  0.55220  0.50000  1.0000
  C   C2        1.0  0.75000  0.05220  0.00000  1.0000
  C   C3        1.0  0.75000  0.44780  0.50000  1.0000
  C   C4        1.0  0.25000  0.94780  0.00000  1.0000
  H   H1        1.0  0.25000  0.44241  0.50000  1.0000
  H   H2        1.0  0.75000  0.94241  0.00000  1.0000
  H   H3        1.0  0.75000  0.55759  0.50000  1.0000
  H   H4        1.0  0.25000  0.05759  0.00000  1.0000
  C   C5        1.0  0.46270  0.28200  0.23830  1.0000
  C   C6        1.0  0.03730  0.28200  0.76170  1.0000
  C   C7        1.0  0.96270  0.78200  0.73830  1.0000
  C   C8        1.0  0.53730  0.78200  0.26170  1.0000
  C   C9        1.0  0.53730  0.71800  0.76170  1.0000
  C   C10       1.0  0.96270  0.71800  0.23830  1.0000
  C   C11       1.0  0.03730  0.21800  0.26170  1.0000
  C   C12       1.0  0.46270  0.21800  0.73830  1.0000
  H   H5        1.0  0.52294  0.22705  0.30116  1.0000
  H   H6        1.0  0.97706  0.22705  0.69884  1.0000
  H   H7        1.0  0.02294  0.72705  0.80116  1.0000
  H   H8        1.0  0.47706  0.72705  0.19884  1.0000
  H   H9        1.0  0.47706  0.77295  0.69884  1.0000
  H   H10       1.0  0.02294  0.77295  0.30116  1.0000
  H   H11       1.0  0.97706  0.27295  0.19884  1.0000
  H   H12       1.0  0.52294  0.27295  0.80116  1.0000
