data_image0
_chemical_formula_structural       Cu4O8C2H2O6C2H2C2H2O2C2H2C2H2O2C2H2O6
_chemical_formula_sum              "Cu4 O24 C12 H12"
_cell_length_a       7.2332
_cell_length_b       8.5452
_cell_length_c       11.085
_cell_angle_alpha    92.908
_cell_angle_beta     102.278
_cell_angle_gamma    91.268

_space_group_name_H-M_alt    "P 1"
_space_group_IT_number       1

loop_
  _space_group_symop_operation_xyz
  'x, y, z'

loop_
  _atom_site_type_symbol
  _atom_site_label
  _atom_site_symmetry_multiplicity
  _atom_site_fract_x
  _atom_site_fract_y
  _atom_site_fract_z
  _atom_site_occupancy
  Cu  Cu1       1.0  0.74520  0.75590  0.73310  1.0000
  Cu  Cu2       1.0  0.25480  0.24410  0.26690  1.0000
  Cu  Cu3       1.0  0.73970  0.75220  0.23050  1.0000
  Cu  Cu4       1.0  0.26030  0.24780  0.76950  1.0000
  O   O1        1.0  0.70000  0.79870  0.54500  1.0000
  O   O2        1.0  0.30000  0.20130  0.45500  1.0000
  O   O3        1.0  0.86500  0.86880  0.41800  1.0000
  O   O4        1.0  0.13500  0.13120  0.58200  1.0000
  O   O5        1.0  0.76500  0.71710  0.90800  1.0000
  O   O6        1.0  0.23500  0.28290  0.09200  1.0000
  O   O7        1.0  0.37600  0.45000  0.32100  1.0000
  O   O8        1.0  0.62400  0.55000  0.67900  1.0000
  C   C1        1.0  0.13500  0.57100  0.77400  1.0000
  C   C2        1.0  0.86500  0.42900  0.22600  1.0000
  H   H1        1.0  0.25050  0.59750  0.82760  1.0000
  H   H2        1.0  0.74950  0.40250  0.17240  1.0000
  O   O9        1.0  0.95000  0.84810  0.17600  1.0000
  O   O10       1.0  0.05000  0.15190  0.82400  1.0000
  O   O11       1.0  0.17400  0.02950  0.22100  1.0000
  O   O12       1.0  0.82600  0.97050  0.77900  1.0000
  O   O13       1.0  0.53700  0.65980  0.29400  1.0000
  O   O14       1.0  0.46300  0.34020  0.70600  1.0000
  C   C3        1.0  0.00800  0.98500  0.22100  1.0000
  C   C4        1.0  0.99200  0.01500  0.77900  1.0000
  H   H3        1.0  0.92870  0.05040  0.25460  1.0000
  H   H4        1.0  0.07130  0.94960  0.74540  1.0000
  C   C5        1.0  0.46500  0.52600  0.25400  1.0000
  C   C6        1.0  0.53500  0.47400  0.74600  1.0000
  H   H5        1.0  0.47690  0.48370  0.17760  1.0000
  H   H6        1.0  0.52310  0.51630  0.82240  1.0000
  O   O15       1.0  0.40700  0.06100  0.81500  1.0000
  O   O16       1.0  0.59300  0.93900  0.18500  1.0000
  C   C7        1.0  0.85600  0.83400  0.51600  1.0000
  C   C8        1.0  0.14400  0.16600  0.48400  1.0000
  H   H7        1.0  0.96690  0.83120  0.57620  1.0000
  H   H8        1.0  0.03310  0.16880  0.42380  1.0000
  C   C9        1.0  0.62500  0.74000  0.94700  1.0000
  C   C10       1.0  0.37500  0.26000  0.05300  1.0000
  H   H9        1.0  0.54230  0.81790  0.91630  1.0000
  H   H10       1.0  0.45770  0.18210  0.08370  1.0000
  O   O17       1.0  0.41900  0.82000  0.73400  1.0000
  O   O18       1.0  0.58100  0.18000  0.26600  1.0000
  C   C11       1.0  0.41100  0.96600  0.71900  1.0000
  C   C12       1.0  0.58900  0.03400  0.28100  1.0000
  H   H11       1.0  0.40860  0.00510  0.64230  1.0000
  H   H12       1.0  0.59140  0.99490  0.35770  1.0000
  O   O19       1.0  0.09800  0.42700  0.73800  1.0000
  O   O20       1.0  0.90200  0.57300  0.26200  1.0000
  O   O21       1.0  0.02700  0.67510  0.74300  1.0000
  O   O22       1.0  0.97300  0.32490  0.25700  1.0000
  O   O23       1.0  0.59100  0.65450  0.03500  1.0000
  O   O24       1.0  0.40900  0.34550  0.96500  1.0000
