data_image0
_chemical_formula_structural       Cu4O16C4H4O8C8H8
_chemical_formula_sum              "Cu4 O24 C12 H12"
_cell_length_a       8.323
_cell_length_b       8.4733
_cell_length_c       11.1183
_cell_angle_alpha    90
_cell_angle_beta     94.553
_cell_angle_gamma    90

_space_group_name_H-M_alt    "P 1"
_space_group_IT_number       1

loop_
  _space_group_symop_operation_xyz
  'x, y, z'

loop_
  _atom_site_type_symbol
  _atom_site_label
  _atom_site_symmetry_multiplicity
  _atom_site_fract_x
  _atom_site_fract_y
  _atom_site_fract_z
  _atom_site_occupancy
  Cu  Cu1       1.0  0.75000  0.75000  0.75000  1.0000
  Cu  Cu2       1.0  0.75000  0.75000  0.25000  1.0000
  Cu  Cu3       1.0  0.25000  0.25000  0.25000  1.0000
  Cu  Cu4       1.0  0.25000  0.25000  0.75000  1.0000
  O   O1        1.0  0.36240  0.47100  0.67160  1.0000
  O   O2        1.0  0.13760  0.47100  0.32840  1.0000
  O   O3        1.0  0.86240  0.97100  0.17160  1.0000
  O   O4        1.0  0.63760  0.97100  0.82840  1.0000
  O   O5        1.0  0.63760  0.52900  0.32840  1.0000
  O   O6        1.0  0.86240  0.52900  0.67160  1.0000
  O   O7        1.0  0.13760  0.02900  0.82840  1.0000
  O   O8        1.0  0.36240  0.02900  0.17160  1.0000
  O   O9        1.0  0.75790  0.86800  0.59950  1.0000
  O   O10       1.0  0.74210  0.86800  0.40050  1.0000
  O   O11       1.0  0.25790  0.36800  0.09950  1.0000
  O   O12       1.0  0.24210  0.36800  0.90050  1.0000
  O   O13       1.0  0.24210  0.13200  0.40050  1.0000
  O   O14       1.0  0.25790  0.13200  0.59950  1.0000
  O   O15       1.0  0.74210  0.63200  0.90050  1.0000
  O   O16       1.0  0.75790  0.63200  0.09950  1.0000
  C   C1        1.0  0.75000  0.79590  0.50000  1.0000
  C   C2        1.0  0.25000  0.29590  0.00000  1.0000
  C   C3        1.0  0.25000  0.20410  0.50000  1.0000
  C   C4        1.0  0.75000  0.70410  0.00000  1.0000
  H   H1        1.0  0.75000  0.68620  0.50000  1.0000
  H   H2        1.0  0.25000  0.18620  0.00000  1.0000
  H   H3        1.0  0.25000  0.31380  0.50000  1.0000
  H   H4        1.0  0.75000  0.81380  0.00000  1.0000
  O   O17       1.0  0.53980  0.66580  0.68620  1.0000
  O   O18       1.0  0.96020  0.66580  0.31380  1.0000
  O   O19       1.0  0.03980  0.16580  0.18620  1.0000
  O   O20       1.0  0.46020  0.16580  0.81380  1.0000
  O   O21       1.0  0.46020  0.33420  0.31380  1.0000
  O   O22       1.0  0.03980  0.33420  0.68620  1.0000
  O   O23       1.0  0.96020  0.83420  0.81380  1.0000
  O   O24       1.0  0.53980  0.83420  0.18620  1.0000
  C   C5        1.0  0.49020  0.53290  0.71750  1.0000
  C   C6        1.0  0.00980  0.53290  0.28250  1.0000
  C   C7        1.0  0.99020  0.03290  0.21750  1.0000
  C   C8        1.0  0.50980  0.03290  0.78250  1.0000
  C   C9        1.0  0.50980  0.46710  0.28250  1.0000
  C   C10       1.0  0.99020  0.46710  0.71750  1.0000
  C   C11       1.0  0.00980  0.96710  0.78250  1.0000
  C   C12       1.0  0.49020  0.96710  0.21750  1.0000
  H   H5        1.0  0.55090  0.47780  0.77750  1.0000
  H   H6        1.0  0.94910  0.47780  0.22250  1.0000
  H   H7        1.0  0.05090  0.97780  0.27750  1.0000
  H   H8        1.0  0.44910  0.97780  0.72250  1.0000
  H   H9        1.0  0.44910  0.52220  0.22250  1.0000
  H   H10       1.0  0.05090  0.52220  0.77750  1.0000
  H   H11       1.0  0.94910  0.02220  0.72250  1.0000
  H   H12       1.0  0.55090  0.02220  0.27750  1.0000
