data_image0
_chemical_formula_structural       Cu4O24C4H4C8H8
_chemical_formula_sum              "Cu4 O24 C12 H12"
_cell_length_a       11.3229
_cell_length_b       8.5761
_cell_length_c       8.6487
_cell_angle_alpha    90
_cell_angle_beta     95.432
_cell_angle_gamma    90

_space_group_name_H-M_alt    "P 1"
_space_group_IT_number       1

loop_
  _space_group_symop_operation_xyz
  'x, y, z'

loop_
  _atom_site_type_symbol
  _atom_site_label
  _atom_site_symmetry_multiplicity
  _atom_site_fract_x
  _atom_site_fract_y
  _atom_site_fract_z
  _atom_site_occupancy
  Cu  Cu1       1.0  0.50000  0.50000  0.50000  1.0000
  Cu  Cu2       1.0  0.00000  0.50000  0.50000  1.0000
  Cu  Cu3       1.0  0.00000  0.00000  0.00000  1.0000
  Cu  Cu4       1.0  0.50000  0.00000  0.00000  1.0000
  O   O1        1.0  0.34783  0.60900  0.50700  1.0000
  O   O2        1.0  0.15217  0.60900  0.49300  1.0000
  O   O3        1.0  0.84783  0.10900  0.00700  1.0000
  O   O4        1.0  0.65217  0.10900  0.99300  1.0000
  O   O5        1.0  0.65217  0.39100  0.49300  1.0000
  O   O6        1.0  0.84783  0.39100  0.50700  1.0000
  O   O7        1.0  0.15217  0.89100  0.99300  1.0000
  O   O8        1.0  0.34783  0.89100  0.00700  1.0000
  O   O9        1.0  0.42560  0.22740  0.11980  1.0000
  O   O10       1.0  0.07440  0.22740  0.88020  1.0000
  O   O11       1.0  0.92560  0.72740  0.61980  1.0000
  O   O12       1.0  0.57440  0.72740  0.38020  1.0000
  O   O13       1.0  0.57440  0.77260  0.88020  1.0000
  O   O14       1.0  0.92560  0.77260  0.11980  1.0000
  O   O15       1.0  0.07440  0.27260  0.38020  1.0000
  O   O16       1.0  0.42560  0.27260  0.61980  1.0000
  O   O17       1.0  0.43800  0.41240  0.29730  1.0000
  O   O18       1.0  0.06200  0.41240  0.70270  1.0000
  O   O19       1.0  0.93800  0.91240  0.79730  1.0000
  O   O20       1.0  0.56200  0.91240  0.20270  1.0000
  O   O21       1.0  0.56200  0.58760  0.70270  1.0000
  O   O22       1.0  0.93800  0.58760  0.29730  1.0000
  O   O23       1.0  0.06200  0.08760  0.20270  1.0000
  O   O24       1.0  0.43800  0.08760  0.79730  1.0000
  C   C1        1.0  0.25000  0.54040  0.50000  1.0000
  C   C2        1.0  0.75000  0.04040  0.00000  1.0000
  C   C3        1.0  0.75000  0.45960  0.50000  1.0000
  C   C4        1.0  0.25000  0.95960  0.00000  1.0000
  H   H1        1.0  0.25000  0.43201  0.50000  1.0000
  H   H2        1.0  0.75000  0.93201  0.00000  1.0000
  H   H3        1.0  0.75000  0.56799  0.50000  1.0000
  H   H4        1.0  0.25000  0.06799  0.00000  1.0000
  C   C5        1.0  0.46970  0.28540  0.24330  1.0000
  C   C6        1.0  0.03030  0.28540  0.75670  1.0000
  C   C7        1.0  0.96970  0.78540  0.74330  1.0000
  C   C8        1.0  0.53030  0.78540  0.25670  1.0000
  C   C9        1.0  0.53030  0.71460  0.75670  1.0000
  C   C10       1.0  0.96970  0.71460  0.24330  1.0000
  C   C11       1.0  0.03030  0.21460  0.25670  1.0000
  C   C12       1.0  0.46970  0.21460  0.74330  1.0000
  H   H5        1.0  0.53041  0.23082  0.29962  1.0000
  H   H6        1.0  0.96959  0.23082  0.70038  1.0000
  H   H7        1.0  0.03041  0.73082  0.79962  1.0000
  H   H8        1.0  0.46959  0.73082  0.20038  1.0000
  H   H9        1.0  0.46959  0.76918  0.70038  1.0000
  H   H10       1.0  0.03041  0.76918  0.29962  1.0000
  H   H11       1.0  0.96959  0.26918  0.20038  1.0000
  H   H12       1.0  0.53041  0.26918  0.79962  1.0000
