data_image0
_chemical_formula_structural       Cu4C12H12O24
_chemical_formula_sum              "Cu4 C12 H12 O24"
_cell_length_a       11.4204
_cell_length_b       8.7139
_cell_length_c       8.8502
_cell_angle_alpha    90
_cell_angle_beta     96.247
_cell_angle_gamma    90

_space_group_name_H-M_alt    "P 1"
_space_group_IT_number       1

loop_
  _space_group_symop_operation_xyz
  'x, y, z'

loop_
  _atom_site_type_symbol
  _atom_site_label
  _atom_site_symmetry_multiplicity
  _atom_site_fract_x
  _atom_site_fract_y
  _atom_site_fract_z
  _atom_site_occupancy
  Cu  Cu1       1.0  0.25000  0.25000  0.25000  1.0000
  Cu  Cu2       1.0  0.75000  0.75000  0.75000  1.0000
  Cu  Cu3       1.0  0.75000  0.25000  0.25000  1.0000
  Cu  Cu4       1.0  0.25000  0.75000  0.75000  1.0000
  C   C1        1.0  0.50000  0.21403  0.25000  1.0000
  C   C2        1.0  0.00000  0.71403  0.75000  1.0000
  C   C3        1.0  0.50000  0.78597  0.75000  1.0000
  C   C4        1.0  0.00000  0.28597  0.25000  1.0000
  C   C5        1.0  0.27831  0.53774  0.00318  1.0000
  C   C6        1.0  0.77831  0.03774  0.50318  1.0000
  C   C7        1.0  0.72169  0.53774  0.49682  1.0000
  C   C8        1.0  0.22169  0.03774  0.99682  1.0000
  C   C9        1.0  0.72169  0.46226  0.99682  1.0000
  C   C10       1.0  0.22169  0.96226  0.49682  1.0000
  C   C11       1.0  0.27831  0.46226  0.50318  1.0000
  C   C12       1.0  0.77831  0.96226  0.00318  1.0000
  H   H1        1.0  0.50000  0.32320  0.25000  1.0000
  H   H2        1.0  0.00000  0.82320  0.75000  1.0000
  H   H3        1.0  0.50000  0.67680  0.75000  1.0000
  H   H4        1.0  0.00000  0.17680  0.25000  1.0000
  H   H5        1.0  0.21600  0.48120  0.94180  1.0000
  H   H6        1.0  0.71600  0.98120  0.44180  1.0000
  H   H7        1.0  0.78400  0.48120  0.55820  1.0000
  H   H8        1.0  0.28400  0.98120  0.05820  1.0000
  H   H9        1.0  0.78400  0.51880  0.05820  1.0000
  H   H10       1.0  0.28400  0.01880  0.55820  1.0000
  H   H11       1.0  0.21600  0.51880  0.44180  1.0000
  H   H12       1.0  0.71600  0.01880  0.94180  1.0000
  O   O1        1.0  0.40315  0.14722  0.24419  1.0000
  O   O2        1.0  0.90315  0.64722  0.74419  1.0000
  O   O3        1.0  0.59685  0.14722  0.25581  1.0000
  O   O4        1.0  0.09685  0.64722  0.75581  1.0000
  O   O5        1.0  0.59685  0.85278  0.75581  1.0000
  O   O6        1.0  0.09685  0.35278  0.25581  1.0000
  O   O7        1.0  0.40315  0.85278  0.74419  1.0000
  O   O8        1.0  0.90315  0.35278  0.24419  1.0000
  O   O9        1.0  0.32206  0.48315  0.12594  1.0000
  O   O10       1.0  0.82206  0.98315  0.62594  1.0000
  O   O11       1.0  0.67794  0.48315  0.37406  1.0000
  O   O12       1.0  0.17794  0.98315  0.87406  1.0000
  O   O13       1.0  0.67794  0.51685  0.87406  1.0000
  O   O14       1.0  0.17794  0.01685  0.37406  1.0000
  O   O15       1.0  0.32206  0.51685  0.62594  1.0000
  O   O16       1.0  0.82206  0.01685  0.12594  1.0000
  O   O17       1.0  0.31088  0.33920  0.44750  1.0000
  O   O18       1.0  0.81088  0.83920  0.94750  1.0000
  O   O19       1.0  0.68912  0.33920  0.05250  1.0000
  O   O20       1.0  0.18912  0.83920  0.55250  1.0000
  O   O21       1.0  0.68912  0.66080  0.55250  1.0000
  O   O22       1.0  0.18912  0.16080  0.05250  1.0000
  O   O23       1.0  0.31088  0.66080  0.94750  1.0000
  O   O24       1.0  0.81088  0.16080  0.44750  1.0000
