data_image0
_chemical_formula_structural       Cu4O24C4H4C8H8
_chemical_formula_sum              "Cu4 O24 C12 H12"
_cell_length_a       8.6895
_cell_length_b       8.5925
_cell_length_c       11.3323
_cell_angle_alpha    90
_cell_angle_beta     95.623
_cell_angle_gamma    90

_space_group_name_H-M_alt    "P 1"
_space_group_IT_number       1

loop_
  _space_group_symop_operation_xyz
  'x, y, z'

loop_
  _atom_site_type_symbol
  _atom_site_label
  _atom_site_symmetry_multiplicity
  _atom_site_fract_x
  _atom_site_fract_y
  _atom_site_fract_z
  _atom_site_occupancy
  Cu  Cu1       1.0  0.75000  0.75000  0.75000  1.0000
  Cu  Cu2       1.0  0.75000  0.75000  0.25000  1.0000
  Cu  Cu3       1.0  0.25000  0.25000  0.25000  1.0000
  Cu  Cu4       1.0  0.25000  0.25000  0.75000  1.0000
  O   O1        1.0  0.75640  0.85700  0.59740  1.0000
  O   O2        1.0  0.74360  0.85700  0.40260  1.0000
  O   O3        1.0  0.25640  0.35700  0.09740  1.0000
  O   O4        1.0  0.24360  0.35700  0.90260  1.0000
  O   O5        1.0  0.24360  0.14300  0.40260  1.0000
  O   O6        1.0  0.25640  0.14300  0.59740  1.0000
  O   O7        1.0  0.74360  0.64300  0.90260  1.0000
  O   O8        1.0  0.75640  0.64300  0.09740  1.0000
  O   O9        1.0  0.37090  0.47810  0.67580  1.0000
  O   O10       1.0  0.12910  0.47810  0.32420  1.0000
  O   O11       1.0  0.87090  0.97810  0.17580  1.0000
  O   O12       1.0  0.62910  0.97810  0.82420  1.0000
  O   O13       1.0  0.62910  0.52190  0.32420  1.0000
  O   O14       1.0  0.87090  0.52190  0.67580  1.0000
  O   O15       1.0  0.12910  0.02190  0.82420  1.0000
  O   O16       1.0  0.37090  0.02190  0.17580  1.0000
  O   O17       1.0  0.54950  0.66320  0.68930  1.0000
  O   O18       1.0  0.95050  0.66320  0.31070  1.0000
  O   O19       1.0  0.04950  0.16320  0.18930  1.0000
  O   O20       1.0  0.45050  0.16320  0.81070  1.0000
  O   O21       1.0  0.45050  0.33680  0.31070  1.0000
  O   O22       1.0  0.04950  0.33680  0.68930  1.0000
  O   O23       1.0  0.95050  0.83680  0.81070  1.0000
  O   O24       1.0  0.54950  0.83680  0.18930  1.0000
  C   C1        1.0  0.75000  0.78950  0.50000  1.0000
  C   C2        1.0  0.25000  0.28950  0.00000  1.0000
  C   C3        1.0  0.25000  0.21050  0.50000  1.0000
  C   C4        1.0  0.75000  0.71050  0.00000  1.0000
  H   H1        1.0  0.75000  0.68130  0.50000  1.0000
  H   H2        1.0  0.25000  0.18130  0.00000  1.0000
  H   H3        1.0  0.25000  0.31870  0.50000  1.0000
  H   H4        1.0  0.75000  0.81870  0.00000  1.0000
  C   C5        1.0  0.49410  0.53680  0.71910  1.0000
  C   C6        1.0  0.00590  0.53680  0.28090  1.0000
  C   C7        1.0  0.99410  0.03680  0.21910  1.0000
  C   C8        1.0  0.50590  0.03680  0.78090  1.0000
  C   C9        1.0  0.50590  0.46320  0.28090  1.0000
  C   C10       1.0  0.99410  0.46320  0.71910  1.0000
  C   C11       1.0  0.00590  0.96320  0.78090  1.0000
  C   C12       1.0  0.49410  0.96320  0.21910  1.0000
  H   H5        1.0  0.55040  0.48140  0.77920  1.0000
  H   H6        1.0  0.94960  0.48140  0.22080  1.0000
  H   H7        1.0  0.05040  0.98140  0.27920  1.0000
  H   H8        1.0  0.44960  0.98140  0.72080  1.0000
  H   H9        1.0  0.44960  0.51860  0.22080  1.0000
  H   H10       1.0  0.05040  0.51860  0.77920  1.0000
  H   H11       1.0  0.94960  0.01860  0.72080  1.0000
  H   H12       1.0  0.55040  0.01860  0.27920  1.0000
