data_image0
_chemical_formula_structural       Cu4O10C2H2O6C2H2C2H2O2C2H2C2H2O2C2H2O4
_chemical_formula_sum              "Cu4 O24 C12 H12"
_cell_length_a       7.2432
_cell_length_b       8.5444
_cell_length_c       11.2169
_cell_angle_alpha    92.441
_cell_angle_beta     102.055
_cell_angle_gamma    91.298

_space_group_name_H-M_alt    "P 1"
_space_group_IT_number       1

loop_
  _space_group_symop_operation_xyz
  'x, y, z'

loop_
  _atom_site_type_symbol
  _atom_site_label
  _atom_site_symmetry_multiplicity
  _atom_site_fract_x
  _atom_site_fract_y
  _atom_site_fract_z
  _atom_site_occupancy
  Cu  Cu1       1.0  0.74504  0.75491  0.73291  1.0000
  Cu  Cu2       1.0  0.25496  0.24509  0.26709  1.0000
  Cu  Cu3       1.0  0.74164  0.75320  0.23285  1.0000
  Cu  Cu4       1.0  0.25836  0.24680  0.76715  1.0000
  O   O1        1.0  0.71280  0.80000  0.56000  1.0000
  O   O2        1.0  0.28720  0.20000  0.44000  1.0000
  O   O3        1.0  0.59750  0.65670  0.04250  1.0000
  O   O4        1.0  0.40250  0.34330  0.95750  1.0000
  O   O5        1.0  0.86380  0.86710  0.41650  1.0000
  O   O6        1.0  0.13620  0.13290  0.58350  1.0000
  O   O7        1.0  0.76000  0.71670  0.90150  1.0000
  O   O8        1.0  0.24000  0.28330  0.09850  1.0000
  O   O9        1.0  0.37650  0.44930  0.32110  1.0000
  O   O10       1.0  0.62350  0.55070  0.67890  1.0000
  C   C1        1.0  0.13420  0.56390  0.77630  1.0000
  C   C2        1.0  0.86580  0.43610  0.22370  1.0000
  H   H1        1.0  0.24820  0.58490  0.83120  1.0000
  H   H2        1.0  0.75180  0.41510  0.16880  1.0000
  O   O11       1.0  0.94930  0.84930  0.17520  1.0000
  O   O12       1.0  0.05070  0.15070  0.82480  1.0000
  O   O13       1.0  0.17590  0.02920  0.22060  1.0000
  O   O14       1.0  0.82410  0.97080  0.77940  1.0000
  O   O15       1.0  0.53950  0.65940  0.29650  1.0000
  O   O16       1.0  0.46050  0.34060  0.70350  1.0000
  C   C3        1.0  0.00940  0.98200  0.21990  1.0000
  C   C4        1.0  0.99060  0.01800  0.78010  1.0000
  H   H3        1.0  0.93000  0.04700  0.25310  1.0000
  H   H4        1.0  0.07000  0.95300  0.74690  1.0000
  C   C5        1.0  0.46570  0.52720  0.25810  1.0000
  C   C6        1.0  0.53430  0.47280  0.74190  1.0000
  H   H5        1.0  0.47740  0.48670  0.18190  1.0000
  H   H6        1.0  0.52260  0.51330  0.81810  1.0000
  O   O17       1.0  0.40570  0.05650  0.80970  1.0000
  O   O18       1.0  0.59430  0.94350  0.19030  1.0000
  C   C7        1.0  0.85740  0.83490  0.51970  1.0000
  C   C8        1.0  0.14260  0.16510  0.48030  1.0000
  H   H7        1.0  0.97220  0.83620  0.57550  1.0000
  H   H8        1.0  0.02780  0.16380  0.42450  1.0000
  C   C9        1.0  0.63320  0.73910  0.96140  1.0000
  C   C10       1.0  0.36680  0.26090  0.03860  1.0000
  H   H9        1.0  0.55920  0.82590  0.94300  1.0000
  H   H10       1.0  0.44080  0.17410  0.05700  1.0000
  O   O19       1.0  0.42100  0.81830  0.72710  1.0000
  O   O20       1.0  0.57900  0.18170  0.27290  1.0000
  C   C11       1.0  0.41520  0.96240  0.72040  1.0000
  C   C12       1.0  0.58480  0.03760  0.27960  1.0000
  H   H11       1.0  0.41790  0.00440  0.64560  1.0000
  H   H12       1.0  0.58210  0.99560  0.35440  1.0000
  O   O21       1.0  0.09960  0.42590  0.73680  1.0000
  O   O22       1.0  0.90040  0.57410  0.26320  1.0000
  O   O23       1.0  0.03140  0.67500  0.74930  1.0000
  O   O24       1.0  0.96860  0.32500  0.25070  1.0000
