data_image0
_chemical_formula_structural       Cu4O24C4H4C8H8
_chemical_formula_sum              "Cu4 O24 C12 H12"
_cell_length_a       8.2878
_cell_length_b       8.4645
_cell_length_c       11.0942
_cell_angle_alpha    90
_cell_angle_beta     94.521
_cell_angle_gamma    90

_space_group_name_H-M_alt    "P 1"
_space_group_IT_number       1

loop_
  _space_group_symop_operation_xyz
  'x, y, z'

loop_
  _atom_site_type_symbol
  _atom_site_label
  _atom_site_symmetry_multiplicity
  _atom_site_fract_x
  _atom_site_fract_y
  _atom_site_fract_z
  _atom_site_occupancy
  Cu  Cu1       1.0  0.75000  0.25000  0.75000  1.0000
  Cu  Cu2       1.0  0.75000  0.25000  0.25000  1.0000
  Cu  Cu3       1.0  0.25000  0.75000  0.25000  1.0000
  Cu  Cu4       1.0  0.25000  0.75000  0.75000  1.0000
  O   O1        1.0  0.75820  0.13140  0.59938  1.0000
  O   O2        1.0  0.74180  0.13140  0.40062  1.0000
  O   O3        1.0  0.25820  0.63140  0.09938  1.0000
  O   O4        1.0  0.24180  0.63140  0.90062  1.0000
  O   O5        1.0  0.24180  0.86860  0.40062  1.0000
  O   O6        1.0  0.25820  0.86860  0.59938  1.0000
  O   O7        1.0  0.74180  0.36860  0.90062  1.0000
  O   O8        1.0  0.75820  0.36860  0.09938  1.0000
  O   O9        1.0  0.36320  0.52880  0.66991  1.0000
  O   O10       1.0  0.13680  0.52880  0.33009  1.0000
  O   O11       1.0  0.86320  0.02880  0.16991  1.0000
  O   O12       1.0  0.63680  0.02880  0.83009  1.0000
  O   O13       1.0  0.63680  0.47120  0.33009  1.0000
  O   O14       1.0  0.86320  0.47120  0.66991  1.0000
  O   O15       1.0  0.13680  0.97120  0.83009  1.0000
  O   O16       1.0  0.36320  0.97120  0.16991  1.0000
  O   O17       1.0  0.53980  0.33420  0.68611  1.0000
  O   O18       1.0  0.96020  0.33420  0.31389  1.0000
  O   O19       1.0  0.03980  0.83420  0.18611  1.0000
  O   O20       1.0  0.46020  0.83420  0.81389  1.0000
  O   O21       1.0  0.46020  0.66580  0.31389  1.0000
  O   O22       1.0  0.03980  0.66580  0.68611  1.0000
  O   O23       1.0  0.96020  0.16580  0.81389  1.0000
  O   O24       1.0  0.53980  0.16580  0.18611  1.0000
  C   C1        1.0  0.75000  0.20270  0.50000  1.0000
  C   C2        1.0  0.25000  0.70270  0.00000  1.0000
  C   C3        1.0  0.25000  0.79730  0.50000  1.0000
  C   C4        1.0  0.75000  0.29730  0.00000  1.0000
  H   H1        1.0  0.75000  0.31260  0.50000  1.0000
  H   H2        1.0  0.25000  0.81260  0.00000  1.0000
  H   H3        1.0  0.25000  0.68740  0.50000  1.0000
  H   H4        1.0  0.75000  0.18740  0.00000  1.0000
  C   C5        1.0  0.48950  0.46710  0.71590  1.0000
  C   C6        1.0  0.01050  0.46710  0.28410  1.0000
  C   C7        1.0  0.98950  0.96710  0.21590  1.0000
  C   C8        1.0  0.51050  0.96710  0.78410  1.0000
  C   C9        1.0  0.51050  0.53290  0.28410  1.0000
  C   C10       1.0  0.98950  0.53290  0.71590  1.0000
  C   C11       1.0  0.01050  0.03290  0.78410  1.0000
  C   C12       1.0  0.48950  0.03290  0.21590  1.0000
  H   H5        1.0  0.55020  0.52280  0.77580  1.0000
  H   H6        1.0  0.94980  0.52280  0.22420  1.0000
  H   H7        1.0  0.05020  0.02280  0.27580  1.0000
  H   H8        1.0  0.44980  0.02280  0.72420  1.0000
  H   H9        1.0  0.44980  0.47720  0.22420  1.0000
  H   H10       1.0  0.05020  0.47720  0.77580  1.0000
  H   H11       1.0  0.94980  0.97720  0.72420  1.0000
  H   H12       1.0  0.55020  0.97720  0.27580  1.0000
