data_image0
_chemical_formula_structural       Cu4O24C4H4C8H8
_chemical_formula_sum              "Cu4 O24 C12 H12"
_cell_length_a       11.1685
_cell_length_b       8.4704
_cell_length_c       8.3956
_cell_angle_alpha    90
_cell_angle_beta     94.7845
_cell_angle_gamma    90

_space_group_name_H-M_alt    "P 1"
_space_group_IT_number       1

loop_
  _space_group_symop_operation_xyz
  'x, y, z'

loop_
  _atom_site_type_symbol
  _atom_site_label
  _atom_site_symmetry_multiplicity
  _atom_site_fract_x
  _atom_site_fract_y
  _atom_site_fract_z
  _atom_site_occupancy
  Cu  Cu1       1.0  0.50000  0.50000  0.50000  1.0000
  Cu  Cu2       1.0  0.00000  0.50000  0.50000  1.0000
  Cu  Cu3       1.0  0.00000  0.00000  0.00000  1.0000
  Cu  Cu4       1.0  0.50000  0.00000  0.00000  1.0000
  O   O1        1.0  0.34880  0.61520  0.50790  1.0000
  O   O2        1.0  0.15120  0.61520  0.49210  1.0000
  O   O3        1.0  0.84880  0.11520  0.00790  1.0000
  O   O4        1.0  0.65120  0.11520  0.99210  1.0000
  O   O5        1.0  0.65120  0.38480  0.49210  1.0000
  O   O6        1.0  0.84880  0.38480  0.50790  1.0000
  O   O7        1.0  0.15120  0.88480  0.99210  1.0000
  O   O8        1.0  0.34880  0.88480  0.00790  1.0000
  O   O9        1.0  0.42220  0.22230  0.11470  1.0000
  O   O10       1.0  0.07780  0.22230  0.88530  1.0000
  O   O11       1.0  0.92220  0.72230  0.61470  1.0000
  O   O12       1.0  0.57780  0.72230  0.38530  1.0000
  O   O13       1.0  0.57780  0.77770  0.88530  1.0000
  O   O14       1.0  0.92220  0.77770  0.11470  1.0000
  O   O15       1.0  0.07780  0.27770  0.38530  1.0000
  O   O16       1.0  0.42220  0.27770  0.61470  1.0000
  O   O17       1.0  0.43690  0.41470  0.29110  1.0000
  O   O18       1.0  0.06310  0.41470  0.70890  1.0000
  O   O19       1.0  0.93690  0.91470  0.79110  1.0000
  O   O20       1.0  0.56310  0.91470  0.20890  1.0000
  O   O21       1.0  0.56310  0.58530  0.70890  1.0000
  O   O22       1.0  0.93690  0.58530  0.29110  1.0000
  O   O23       1.0  0.06310  0.08530  0.20890  1.0000
  O   O24       1.0  0.43690  0.08530  0.79110  1.0000
  C   C1        1.0  0.25000  0.54610  0.50000  1.0000
  C   C2        1.0  0.75000  0.04610  0.00000  1.0000
  C   C3        1.0  0.75000  0.45390  0.50000  1.0000
  C   C4        1.0  0.25000  0.95390  0.00000  1.0000
  H   H1        1.0  0.25000  0.43630  0.50000  1.0000
  H   H2        1.0  0.75000  0.93630  0.00000  1.0000
  H   H3        1.0  0.75000  0.56370  0.50000  1.0000
  H   H4        1.0  0.25000  0.06370  0.00000  1.0000
  C   C5        1.0  0.46650  0.28370  0.24050  1.0000
  C   C6        1.0  0.03350  0.28370  0.75950  1.0000
  C   C7        1.0  0.96650  0.78370  0.74050  1.0000
  C   C8        1.0  0.53350  0.78370  0.25950  1.0000
  C   C9        1.0  0.53350  0.71630  0.75950  1.0000
  C   C10       1.0  0.96650  0.71630  0.24050  1.0000
  C   C11       1.0  0.03350  0.21630  0.25950  1.0000
  C   C12       1.0  0.46650  0.21630  0.74050  1.0000
  H   H5        1.0  0.52587  0.22784  0.30091  1.0000
  H   H6        1.0  0.97413  0.22784  0.69909  1.0000
  H   H7        1.0  0.02587  0.72784  0.80091  1.0000
  H   H8        1.0  0.47413  0.72784  0.19909  1.0000
  H   H9        1.0  0.47413  0.77216  0.69909  1.0000
  H   H10       1.0  0.02587  0.77216  0.30091  1.0000
  H   H11       1.0  0.97413  0.27216  0.19909  1.0000
  H   H12       1.0  0.52587  0.27216  0.80091  1.0000
