data_image0
_chemical_formula_structural       Cu4O24C4H4C8H8
_chemical_formula_sum              "Cu4 O24 C12 H12"
_cell_length_a       11.3613
_cell_length_b       8.6208
_cell_length_c       8.718
_cell_angle_alpha    90
_cell_angle_beta     95.658
_cell_angle_gamma    90

_space_group_name_H-M_alt    "P 1"
_space_group_IT_number       1

loop_
  _space_group_symop_operation_xyz
  'x, y, z'

loop_
  _atom_site_type_symbol
  _atom_site_label
  _atom_site_symmetry_multiplicity
  _atom_site_fract_x
  _atom_site_fract_y
  _atom_site_fract_z
  _atom_site_occupancy
  Cu  Cu1       1.0  0.50000  0.50000  0.50000  1.0000
  Cu  Cu2       1.0  0.00000  0.50000  0.50000  1.0000
  Cu  Cu3       1.0  0.00000  0.00000  0.00000  1.0000
  Cu  Cu4       1.0  0.50000  0.00000  0.00000  1.0000
  O   O1        1.0  0.34761  0.60720  0.50620  1.0000
  O   O2        1.0  0.15239  0.60720  0.49380  1.0000
  O   O3        1.0  0.84761  0.10720  0.00620  1.0000
  O   O4        1.0  0.65239  0.10720  0.99380  1.0000
  O   O5        1.0  0.65239  0.39280  0.49380  1.0000
  O   O6        1.0  0.84761  0.39280  0.50620  1.0000
  O   O7        1.0  0.15239  0.89280  0.99380  1.0000
  O   O8        1.0  0.34761  0.89280  0.00620  1.0000
  O   O9        1.0  0.42620  0.22930  0.12120  1.0000
  O   O10       1.0  0.07380  0.22930  0.87880  1.0000
  O   O11       1.0  0.92620  0.72930  0.62120  1.0000
  O   O12       1.0  0.57380  0.72930  0.37880  1.0000
  O   O13       1.0  0.57380  0.77070  0.87880  1.0000
  O   O14       1.0  0.92620  0.77070  0.12120  1.0000
  O   O15       1.0  0.07380  0.27070  0.37880  1.0000
  O   O16       1.0  0.42620  0.27070  0.62120  1.0000
  O   O17       1.0  0.43850  0.41160  0.29900  1.0000
  O   O18       1.0  0.06150  0.41160  0.70100  1.0000
  O   O19       1.0  0.93850  0.91160  0.79900  1.0000
  O   O20       1.0  0.56150  0.91160  0.20100  1.0000
  O   O21       1.0  0.56150  0.58840  0.70100  1.0000
  O   O22       1.0  0.93850  0.58840  0.29900  1.0000
  O   O23       1.0  0.06150  0.08840  0.20100  1.0000
  O   O24       1.0  0.43850  0.08840  0.79900  1.0000
  C   C1        1.0  0.25000  0.53850  0.50000  1.0000
  C   C2        1.0  0.75000  0.03850  0.00000  1.0000
  C   C3        1.0  0.75000  0.46150  0.50000  1.0000
  C   C4        1.0  0.25000  0.96150  0.00000  1.0000
  H   H1        1.0  0.25000  0.43066  0.50000  1.0000
  H   H2        1.0  0.75000  0.93066  0.00000  1.0000
  H   H3        1.0  0.75000  0.56934  0.50000  1.0000
  H   H4        1.0  0.25000  0.06934  0.00000  1.0000
  C   C5        1.0  0.46990  0.28670  0.24330  1.0000
  C   C6        1.0  0.03010  0.28670  0.75670  1.0000
  C   C7        1.0  0.96990  0.78670  0.74330  1.0000
  C   C8        1.0  0.53010  0.78670  0.25670  1.0000
  C   C9        1.0  0.53010  0.71330  0.75670  1.0000
  C   C10       1.0  0.96990  0.71330  0.24330  1.0000
  C   C11       1.0  0.03010  0.21330  0.25670  1.0000
  C   C12       1.0  0.46990  0.21330  0.74330  1.0000
  H   H5        1.0  0.53103  0.23251  0.29826  1.0000
  H   H6        1.0  0.96897  0.23251  0.70174  1.0000
  H   H7        1.0  0.03103  0.73251  0.79826  1.0000
  H   H8        1.0  0.46897  0.73251  0.20174  1.0000
  H   H9        1.0  0.46897  0.76749  0.70174  1.0000
  H   H10       1.0  0.03103  0.76749  0.29826  1.0000
  H   H11       1.0  0.96897  0.26749  0.20174  1.0000
  H   H12       1.0  0.53103  0.26749  0.79826  1.0000
