data_image0
_chemical_formula_structural       Cu4O24C4H4C8H8
_chemical_formula_sum              "Cu4 O24 C12 H12"
_cell_length_a       11.2227
_cell_length_b       8.4953
_cell_length_c       8.4836
_cell_angle_alpha    90
_cell_angle_beta     94.9859
_cell_angle_gamma    90

_space_group_name_H-M_alt    "P 1"
_space_group_IT_number       1

loop_
  _space_group_symop_operation_xyz
  'x, y, z'

loop_
  _atom_site_type_symbol
  _atom_site_label
  _atom_site_symmetry_multiplicity
  _atom_site_fract_x
  _atom_site_fract_y
  _atom_site_fract_z
  _atom_site_occupancy
  Cu  Cu1       1.0  0.50000  0.50000  0.50000  1.0000
  Cu  Cu2       1.0  0.00000  0.50000  0.50000  1.0000
  Cu  Cu3       1.0  0.00000  0.00000  0.00000  1.0000
  Cu  Cu4       1.0  0.50000  0.00000  0.00000  1.0000
  O   O1        1.0  0.34840  0.61330  0.50760  1.0000
  O   O2        1.0  0.15160  0.61330  0.49240  1.0000
  O   O3        1.0  0.84840  0.11330  0.00760  1.0000
  O   O4        1.0  0.65160  0.11330  0.99240  1.0000
  O   O5        1.0  0.65160  0.38670  0.49240  1.0000
  O   O6        1.0  0.84840  0.38670  0.50760  1.0000
  O   O7        1.0  0.15160  0.88670  0.99240  1.0000
  O   O8        1.0  0.34840  0.88670  0.00760  1.0000
  O   O9        1.0  0.42330  0.22450  0.11680  1.0000
  O   O10       1.0  0.07670  0.22450  0.88320  1.0000
  O   O11       1.0  0.92330  0.72450  0.61680  1.0000
  O   O12       1.0  0.57670  0.72450  0.38320  1.0000
  O   O13       1.0  0.57670  0.77550  0.88320  1.0000
  O   O14       1.0  0.92330  0.77550  0.11680  1.0000
  O   O15       1.0  0.07670  0.27550  0.38320  1.0000
  O   O16       1.0  0.42330  0.27550  0.61680  1.0000
  O   O17       1.0  0.43760  0.41420  0.29320  1.0000
  O   O18       1.0  0.06240  0.41420  0.70680  1.0000
  O   O19       1.0  0.93760  0.91420  0.79320  1.0000
  O   O20       1.0  0.56240  0.91420  0.20680  1.0000
  O   O21       1.0  0.56240  0.58580  0.70680  1.0000
  O   O22       1.0  0.93760  0.58580  0.29320  1.0000
  O   O23       1.0  0.06240  0.08580  0.20680  1.0000
  O   O24       1.0  0.43760  0.08580  0.79320  1.0000
  C   C1        1.0  0.25000  0.54390  0.50000  1.0000
  C   C2        1.0  0.75000  0.04390  0.00000  1.0000
  C   C3        1.0  0.75000  0.45610  0.50000  1.0000
  C   C4        1.0  0.25000  0.95610  0.00000  1.0000
  H   H1        1.0  0.25000  0.43439  0.50000  1.0000
  H   H2        1.0  0.75000  0.93439  0.00000  1.0000
  H   H3        1.0  0.75000  0.56561  0.50000  1.0000
  H   H4        1.0  0.25000  0.06561  0.00000  1.0000
  C   C5        1.0  0.46770  0.28450  0.24100  1.0000
  C   C6        1.0  0.03230  0.28450  0.75900  1.0000
  C   C7        1.0  0.96770  0.78450  0.74100  1.0000
  C   C8        1.0  0.53230  0.78450  0.25900  1.0000
  C   C9        1.0  0.53230  0.71550  0.75900  1.0000
  C   C10       1.0  0.96770  0.71550  0.24100  1.0000
  C   C11       1.0  0.03230  0.21550  0.25900  1.0000
  C   C12       1.0  0.46770  0.21550  0.74100  1.0000
  H   H5        1.0  0.52780  0.22897  0.29946  1.0000
  H   H6        1.0  0.97220  0.22897  0.70054  1.0000
  H   H7        1.0  0.02780  0.72897  0.79946  1.0000
  H   H8        1.0  0.47220  0.72897  0.20054  1.0000
  H   H9        1.0  0.47220  0.77103  0.70054  1.0000
  H   H10       1.0  0.02780  0.77103  0.29946  1.0000
  H   H11       1.0  0.97220  0.27103  0.20054  1.0000
  H   H12       1.0  0.52780  0.27103  0.79946  1.0000
