data_image0
_chemical_formula_structural       Cu4O24C12H12
_chemical_formula_sum              "Cu4 O24 C12 H12"
_cell_length_a       13.733
_cell_length_b       8.659
_cell_length_c       8.808
_cell_angle_alpha    90
_cell_angle_beta     124.083
_cell_angle_gamma    90

_space_group_name_H-M_alt    "P 1"
_space_group_IT_number       1

loop_
  _space_group_symop_operation_xyz
  'x, y, z'

loop_
  _atom_site_type_symbol
  _atom_site_label
  _atom_site_symmetry_multiplicity
  _atom_site_fract_x
  _atom_site_fract_y
  _atom_site_fract_z
  _atom_site_occupancy
  Cu  Cu1       1.0  0.25000  0.25000  0.00000  1.0000
  Cu  Cu2       1.0  0.75000  0.75000  0.00000  1.0000
  Cu  Cu3       1.0  0.75000  0.25000  0.50000  1.0000
  Cu  Cu4       1.0  0.25000  0.75000  0.50000  1.0000
  O   O1        1.0  0.40255  0.35625  0.16034  1.0000
  O   O2        1.0  0.90255  0.85625  0.16034  1.0000
  O   O3        1.0  0.59745  0.35625  0.33966  1.0000
  O   O4        1.0  0.09745  0.85625  0.33966  1.0000
  O   O5        1.0  0.59745  0.64375  0.83966  1.0000
  O   O6        1.0  0.09745  0.14375  0.83966  1.0000
  O   O7        1.0  0.40255  0.64375  0.66034  1.0000
  O   O8        1.0  0.90255  0.14375  0.66034  1.0000
  O   O9        1.0  0.18916  0.33665  0.13876  1.0000
  O   O10       1.0  0.68916  0.83665  0.13876  1.0000
  O   O11       1.0  0.81084  0.33665  0.36124  1.0000
  O   O12       1.0  0.31084  0.83665  0.36124  1.0000
  O   O13       1.0  0.81084  0.66335  0.86124  1.0000
  O   O14       1.0  0.31084  0.16335  0.86124  1.0000
  O   O15       1.0  0.18916  0.66335  0.63876  1.0000
  O   O16       1.0  0.68916  0.16335  0.63876  1.0000
  O   O17       1.0  0.17745  0.51775  0.30684  1.0000
  O   O18       1.0  0.67745  0.01775  0.30684  1.0000
  O   O19       1.0  0.82255  0.51775  0.19316  1.0000
  O   O20       1.0  0.32255  0.01775  0.19316  1.0000
  O   O21       1.0  0.82255  0.48225  0.69316  1.0000
  O   O22       1.0  0.32255  0.98225  0.69316  1.0000
  O   O23       1.0  0.17745  0.48225  0.80684  1.0000
  O   O24       1.0  0.67745  0.98225  0.80684  1.0000
  C   C1        1.0  0.22108  0.46321  0.22583  1.0000
  C   C2        1.0  0.72108  0.96321  0.22583  1.0000
  C   C3        1.0  0.77892  0.46321  0.27417  1.0000
  C   C4        1.0  0.27892  0.96321  0.27417  1.0000
  C   C5        1.0  0.77892  0.53679  0.77417  1.0000
  C   C6        1.0  0.27892  0.03679  0.77417  1.0000
  C   C7        1.0  0.22108  0.53679  0.72583  1.0000
  C   C8        1.0  0.72108  0.03679  0.72583  1.0000
  C   C9        1.0  0.50000  0.28760  0.25000  1.0000
  C   C10       1.0  0.00000  0.78760  0.25000  1.0000
  C   C11       1.0  0.50000  0.71240  0.75000  1.0000
  C   C12       1.0  0.00000  0.21240  0.75000  1.0000
  H   H1        1.0  0.50000  0.17500  0.25000  1.0000
  H   H2        1.0  0.00000  0.67500  0.25000  1.0000
  H   H3        1.0  0.50000  0.82500  0.75000  1.0000
  H   H4        1.0  0.00000  0.32500  0.75000  1.0000
  H   H5        1.0  0.28290  0.52200  0.22700  1.0000
  H   H6        1.0  0.78290  0.02200  0.22700  1.0000
  H   H7        1.0  0.71710  0.52200  0.27300  1.0000
  H   H8        1.0  0.21710  0.02200  0.27300  1.0000
  H   H9        1.0  0.71710  0.47800  0.77300  1.0000
  H   H10       1.0  0.21710  0.97800  0.77300  1.0000
  H   H11       1.0  0.28290  0.47800  0.72700  1.0000
  H   H12       1.0  0.78290  0.97800  0.72700  1.0000
