data_image0
_chemical_formula_structural       Cu4O16C4H4O8C8H8
_chemical_formula_sum              "Cu4 O24 C12 H12"
_cell_length_a       8.086
_cell_length_b       8.466
_cell_length_c       10.9541
_cell_angle_alpha    90
_cell_angle_beta     94.215
_cell_angle_gamma    90

_space_group_name_H-M_alt    "P 1"
_space_group_IT_number       1

loop_
  _space_group_symop_operation_xyz
  'x, y, z'

loop_
  _atom_site_type_symbol
  _atom_site_label
  _atom_site_symmetry_multiplicity
  _atom_site_fract_x
  _atom_site_fract_y
  _atom_site_fract_z
  _atom_site_occupancy
  Cu  Cu1       1.0  0.75000  0.75000  0.75000  1.0000
  Cu  Cu2       1.0  0.75000  0.75000  0.25000  1.0000
  Cu  Cu3       1.0  0.25000  0.25000  0.25000  1.0000
  Cu  Cu4       1.0  0.25000  0.25000  0.75000  1.0000
  O   O1        1.0  0.36140  0.46790  0.66450  1.0000
  O   O2        1.0  0.13860  0.46790  0.33550  1.0000
  O   O3        1.0  0.86140  0.96790  0.16450  1.0000
  O   O4        1.0  0.63860  0.96790  0.83550  1.0000
  O   O5        1.0  0.63860  0.53210  0.33550  1.0000
  O   O6        1.0  0.86140  0.53210  0.66450  1.0000
  O   O7        1.0  0.13860  0.03210  0.83550  1.0000
  O   O8        1.0  0.36140  0.03210  0.16450  1.0000
  O   O9        1.0  0.75330  0.87160  0.60070  1.0000
  O   O10       1.0  0.74670  0.87160  0.39930  1.0000
  O   O11       1.0  0.25330  0.37160  0.10070  1.0000
  O   O12       1.0  0.24670  0.37160  0.89930  1.0000
  O   O13       1.0  0.24670  0.12840  0.39930  1.0000
  O   O14       1.0  0.25330  0.12840  0.60070  1.0000
  O   O15       1.0  0.74670  0.62840  0.89930  1.0000
  O   O16       1.0  0.75330  0.62840  0.10070  1.0000
  C   C1        1.0  0.75000  0.79800  0.50000  1.0000
  C   C2        1.0  0.25000  0.29800  0.00000  1.0000
  C   C3        1.0  0.25000  0.20200  0.50000  1.0000
  C   C4        1.0  0.75000  0.70200  0.00000  1.0000
  H   H1        1.0  0.75000  0.68790  0.50000  1.0000
  H   H2        1.0  0.25000  0.18790  0.00000  1.0000
  H   H3        1.0  0.25000  0.31210  0.50000  1.0000
  H   H4        1.0  0.75000  0.81210  0.00000  1.0000
  O   O17       1.0  0.53730  0.66500  0.68440  1.0000
  O   O18       1.0  0.96270  0.66500  0.31560  1.0000
  O   O19       1.0  0.03730  0.16500  0.18440  1.0000
  O   O20       1.0  0.46270  0.16500  0.81560  1.0000
  O   O21       1.0  0.46270  0.33500  0.31560  1.0000
  O   O22       1.0  0.03730  0.33500  0.68440  1.0000
  O   O23       1.0  0.96270  0.83500  0.81560  1.0000
  O   O24       1.0  0.53730  0.83500  0.18440  1.0000
  C   C5        1.0  0.48800  0.52900  0.71500  1.0000
  C   C6        1.0  0.01200  0.52900  0.28500  1.0000
  C   C7        1.0  0.98800  0.02900  0.21500  1.0000
  C   C8        1.0  0.51200  0.02900  0.78500  1.0000
  C   C9        1.0  0.51200  0.47100  0.28500  1.0000
  C   C10       1.0  0.98800  0.47100  0.71500  1.0000
  C   C11       1.0  0.01200  0.97100  0.78500  1.0000
  C   C12       1.0  0.48800  0.97100  0.21500  1.0000
  H   H5        1.0  0.54880  0.47460  0.77680  1.0000
  H   H6        1.0  0.95120  0.47460  0.22320  1.0000
  H   H7        1.0  0.04880  0.97460  0.27680  1.0000
  H   H8        1.0  0.45120  0.97460  0.72320  1.0000
  H   H9        1.0  0.45120  0.52540  0.22320  1.0000
  H   H10       1.0  0.04880  0.52540  0.77680  1.0000
  H   H11       1.0  0.95120  0.02540  0.72320  1.0000
  H   H12       1.0  0.54880  0.02540  0.27680  1.0000
