data_image0
_chemical_formula_structural       Cu4O10C2H2O6C2H2C2H2O2C2H2C2H2O2C2H2O4
_chemical_formula_sum              "Cu4 O24 C12 H12"
_cell_length_a       7.2638
_cell_length_b       8.5726
_cell_length_c       11.2929
_cell_angle_alpha    92.384
_cell_angle_beta     101.797
_cell_angle_gamma    91.352

_space_group_name_H-M_alt    "P 1"
_space_group_IT_number       1

loop_
  _space_group_symop_operation_xyz
  'x, y, z'

loop_
  _atom_site_type_symbol
  _atom_site_label
  _atom_site_symmetry_multiplicity
  _atom_site_fract_x
  _atom_site_fract_y
  _atom_site_fract_z
  _atom_site_occupancy
  Cu  Cu1       1.0  0.74570  0.75390  0.73550  1.0000
  Cu  Cu2       1.0  0.25430  0.24610  0.26450  1.0000
  Cu  Cu3       1.0  0.74310  0.75230  0.23530  1.0000
  Cu  Cu4       1.0  0.25690  0.24770  0.76470  1.0000
  O   O1        1.0  0.71200  0.80000  0.56530  1.0000
  O   O2        1.0  0.28800  0.20000  0.43470  1.0000
  O   O3        1.0  0.61400  0.65200  0.04690  1.0000
  O   O4        1.0  0.38600  0.34800  0.95310  1.0000
  O   O5        1.0  0.85500  0.86800  0.41920  1.0000
  O   O6        1.0  0.14500  0.13200  0.58080  1.0000
  O   O7        1.0  0.76600  0.70900  0.90430  1.0000
  O   O8        1.0  0.23400  0.29100  0.09570  1.0000
  O   O9        1.0  0.36200  0.45100  0.31780  1.0000
  O   O10       1.0  0.63800  0.54900  0.68220  1.0000
  C   C1        1.0  0.13500  0.55800  0.77560  1.0000
  C   C2        1.0  0.86500  0.44200  0.22440  1.0000
  H   H1        1.0  0.25100  0.56930  0.82850  1.0000
  H   H2        1.0  0.74900  0.43070  0.17150  1.0000
  O   O11       1.0  0.95700  0.84800  0.17900  1.0000
  O   O12       1.0  0.04300  0.15200  0.82100  1.0000
  O   O13       1.0  0.18600  0.02800  0.21850  1.0000
  O   O14       1.0  0.81400  0.97200  0.78150  1.0000
  O   O15       1.0  0.52000  0.66600  0.29700  1.0000
  O   O16       1.0  0.48000  0.33400  0.70300  1.0000
  C   C3        1.0  0.00400  0.98800  0.21870  1.0000
  C   C4        1.0  0.99600  0.01200  0.78130  1.0000
  H   H3        1.0  0.92130  0.05540  0.24550  1.0000
  H   H4        1.0  0.07870  0.94460  0.75450  1.0000
  C   C5        1.0  0.46100  0.52500  0.26070  1.0000
  C   C6        1.0  0.53900  0.47500  0.73930  1.0000
  H   H5        1.0  0.49230  0.47950  0.19170  1.0000
  H   H6        1.0  0.50770  0.52050  0.80830  1.0000
  O   O17       1.0  0.42100  0.05400  0.80720  1.0000
  O   O18       1.0  0.57900  0.94600  0.19280  1.0000
  C   C7        1.0  0.86000  0.83000  0.52320  1.0000
  C   C8        1.0  0.14000  0.17000  0.47680  1.0000
  H   H7        1.0  0.97740  0.82350  0.57430  1.0000
  H   H8        1.0  0.02260  0.17650  0.42570  1.0000
  C   C9        1.0  0.62700  0.73100  0.96000  1.0000
  C   C10       1.0  0.37300  0.26900  0.04000  1.0000
  H   H9        1.0  0.53910  0.80530  0.93420  1.0000
  H   H10       1.0  0.46090  0.19470  0.06580  1.0000
  O   O19       1.0  0.42900  0.81700  0.72890  1.0000
  O   O20       1.0  0.57100  0.18300  0.27110  1.0000
  C   C11       1.0  0.39900  0.97100  0.71900  1.0000
  C   C12       1.0  0.60100  0.02900  0.28100  1.0000
  H   H11       1.0  0.36270  0.01220  0.64290  1.0000
  H   H12       1.0  0.63730  0.98780  0.35710  1.0000
  O   O21       1.0  0.08200  0.43200  0.73020  1.0000
  O   O22       1.0  0.91800  0.56800  0.26980  1.0000
  O   O23       1.0  0.03900  0.67200  0.75420  1.0000
  O   O24       1.0  0.96100  0.32800  0.24580  1.0000
