data_image0
_chemical_formula_structural       Zn24C32H16C32H16C32H16C32O112P16
_chemical_formula_sum              "Zn24 C128 H48 O112 P16"
_cell_length_a       18.45
_cell_length_b       18.45
_cell_length_c       23.201
_cell_angle_alpha    90
_cell_angle_beta     90
_cell_angle_gamma    90

_space_group_name_H-M_alt    "P 1"
_space_group_IT_number       1

loop_
  _space_group_symop_operation_xyz
  'x, y, z'

loop_
  _atom_site_type_symbol
  _atom_site_label
  _atom_site_symmetry_multiplicity
  _atom_site_fract_x
  _atom_site_fract_y
  _atom_site_fract_z
  _atom_site_occupancy
  Zn  Zn1       1.0  0.75000  0.87295  0.87500  1.0000
  Zn  Zn2       1.0  0.25000  0.12705  0.87500  1.0000
  Zn  Zn3       1.0  0.87295  0.25000  0.12500  1.0000
  Zn  Zn4       1.0  0.12705  0.75000  0.12500  1.0000
  Zn  Zn5       1.0  0.62705  0.25000  0.62500  1.0000
  Zn  Zn6       1.0  0.37295  0.75000  0.62500  1.0000
  Zn  Zn7       1.0  0.25000  0.37295  0.37500  1.0000
  Zn  Zn8       1.0  0.75000  0.62705  0.37500  1.0000
  Zn  Zn9       1.0  0.73032  0.72482  0.97313  1.0000
  Zn  Zn10      1.0  0.26968  0.27518  0.97313  1.0000
  Zn  Zn11      1.0  0.72482  0.26968  0.02687  1.0000
  Zn  Zn12      1.0  0.27518  0.73032  0.02687  1.0000
  Zn  Zn13      1.0  0.76968  0.72482  0.77687  1.0000
  Zn  Zn14      1.0  0.23032  0.27518  0.77687  1.0000
  Zn  Zn15      1.0  0.77518  0.26968  0.72313  1.0000
  Zn  Zn16      1.0  0.22482  0.73032  0.72313  1.0000
  Zn  Zn17      1.0  0.23032  0.22482  0.47313  1.0000
  Zn  Zn18      1.0  0.76968  0.77518  0.47313  1.0000
  Zn  Zn19      1.0  0.22482  0.76968  0.52687  1.0000
  Zn  Zn20      1.0  0.77518  0.23032  0.52687  1.0000
  Zn  Zn21      1.0  0.26968  0.22482  0.27687  1.0000
  Zn  Zn22      1.0  0.73032  0.77518  0.27687  1.0000
  Zn  Zn23      1.0  0.27518  0.76968  0.22313  1.0000
  Zn  Zn24      1.0  0.72482  0.23032  0.22313  1.0000
  C   C1        1.0  0.54530  0.73500  0.85280  1.0000
  C   C2        1.0  0.45470  0.26500  0.85280  1.0000
  C   C3        1.0  0.73500  0.45470  0.14720  1.0000
  C   C4        1.0  0.26500  0.54530  0.14720  1.0000
  C   C5        1.0  0.95470  0.73500  0.89720  1.0000
  C   C6        1.0  0.04530  0.26500  0.89720  1.0000
  C   C7        1.0  0.76500  0.45470  0.60280  1.0000
  C   C8        1.0  0.23500  0.54530  0.60280  1.0000
  C   C9        1.0  0.04530  0.23500  0.35280  1.0000
  C   C10       1.0  0.95470  0.76500  0.35280  1.0000
  C   C11       1.0  0.23500  0.95470  0.64720  1.0000
  C   C12       1.0  0.76500  0.04530  0.64720  1.0000
  C   C13       1.0  0.45470  0.23500  0.39720  1.0000
  C   C14       1.0  0.54530  0.76500  0.39720  1.0000
  C   C15       1.0  0.26500  0.95470  0.10280  1.0000
  C   C16       1.0  0.73500  0.04530  0.10280  1.0000
  C   C17       1.0  0.50290  0.73110  0.90350  1.0000
  C   C18       1.0  0.49710  0.26890  0.90350  1.0000
  C   C19       1.0  0.73110  0.49710  0.09650  1.0000
  C   C20       1.0  0.26890  0.50290  0.09650  1.0000
  C   C21       1.0  0.99710  0.73110  0.84650  1.0000
  C   C22       1.0  0.00290  0.26890  0.84650  1.0000
  C   C23       1.0  0.76890  0.49710  0.65350  1.0000
  C   C24       1.0  0.23110  0.50290  0.65350  1.0000
  C   C25       1.0  0.00290  0.23110  0.40350  1.0000
  C   C26       1.0  0.99710  0.76890  0.40350  1.0000
  C   C27       1.0  0.23110  0.99710  0.59650  1.0000
  C   C28       1.0  0.76890  0.00290  0.59650  1.0000
  C   C29       1.0  0.49710  0.23110  0.34650  1.0000
  C   C30       1.0  0.50290  0.76890  0.34650  1.0000
  C   C31       1.0  0.26890  0.99710  0.15350  1.0000
  C   C32       1.0  0.73110  0.00290  0.15350  1.0000
  H   H1        1.0  0.52560  0.73260  0.93930  1.0000
  H   H2        1.0  0.47440  0.26740  0.93930  1.0000
  H   H3        1.0  0.73260  0.47440  0.06070  1.0000
  H   H4        1.0  0.26740  0.52560  0.06070  1.0000
  H   H5        1.0  0.97440  0.73260  0.81070  1.0000
  H   H6        1.0  0.02560  0.26740  0.81070  1.0000
  H   H7        1.0  0.76740  0.47440  0.68930  1.0000
  H   H8        1.0  0.23260  0.52560  0.68930  1.0000
  H   H9        1.0  0.02560  0.23260  0.43930  1.0000
  H   H10       1.0  0.97440  0.76740  0.43930  1.0000
  H   H11       1.0  0.23260  0.97440  0.56070  1.0000
  H   H12       1.0  0.76740  0.02560  0.56070  1.0000
  H   H13       1.0  0.47440  0.23260  0.31070  1.0000
  H   H14       1.0  0.52560  0.76740  0.31070  1.0000
  H   H15       1.0  0.26740  0.97440  0.18930  1.0000
  H   H16       1.0  0.73260  0.02560  0.18930  1.0000
  C   C33       1.0  0.42840  0.72510  0.90080  1.0000
  C   C34       1.0  0.57160  0.27490  0.90080  1.0000
  C   C35       1.0  0.72510  0.57160  0.09920  1.0000
  C   C36       1.0  0.27490  0.42840  0.09920  1.0000
  C   C37       1.0  0.07160  0.72510  0.84920  1.0000
  C   C38       1.0  0.92840  0.27490  0.84920  1.0000
  C   C39       1.0  0.77490  0.57160  0.65080  1.0000
  C   C40       1.0  0.22510  0.42840  0.65080  1.0000
  C   C41       1.0  0.92840  0.22510  0.40080  1.0000
  C   C42       1.0  0.07160  0.77490  0.40080  1.0000
  C   C43       1.0  0.22510  0.07160  0.59920  1.0000
  C   C44       1.0  0.77490  0.92840  0.59920  1.0000
  C   C45       1.0  0.57160  0.22510  0.34920  1.0000
  C   C46       1.0  0.42840  0.77490  0.34920  1.0000
  C   C47       1.0  0.27490  0.07160  0.15080  1.0000
  C   C48       1.0  0.72510  0.92840  0.15080  1.0000
  C   C49       1.0  0.39460  0.72470  0.84840  1.0000
  C   C50       1.0  0.60540  0.27530  0.84840  1.0000
  C   C51       1.0  0.72470  0.60540  0.15160  1.0000
  C   C52       1.0  0.27530  0.39460  0.15160  1.0000
  C   C53       1.0  0.10540  0.72470  0.90160  1.0000
  C   C54       1.0  0.89460  0.27530  0.90160  1.0000
  C   C55       1.0  0.77530  0.60540  0.59840  1.0000
  C   C56       1.0  0.22470  0.39460  0.59840  1.0000
  C   C57       1.0  0.89460  0.22470  0.34840  1.0000
  C   C58       1.0  0.10540  0.77530  0.34840  1.0000
  C   C59       1.0  0.22470  0.10540  0.65160  1.0000
  C   C60       1.0  0.77530  0.89460  0.65160  1.0000
  C   C61       1.0  0.60540  0.22470  0.40160  1.0000
  C   C62       1.0  0.39460  0.77530  0.40160  1.0000
  C   C63       1.0  0.27530  0.10540  0.09840  1.0000
  C   C64       1.0  0.72470  0.89460  0.09840  1.0000
  H   H17       1.0  0.34430  0.72140  0.84670  1.0000
  H   H18       1.0  0.65570  0.27860  0.84670  1.0000
  H   H19       1.0  0.72140  0.65570  0.15330  1.0000
  H   H20       1.0  0.27860  0.34430  0.15330  1.0000
  H   H21       1.0  0.15570  0.72140  0.90330  1.0000
  H   H22       1.0  0.84430  0.27860  0.90330  1.0000
  H   H23       1.0  0.77860  0.65570  0.59670  1.0000
  H   H24       1.0  0.22140  0.34430  0.59670  1.0000
  H   H25       1.0  0.84430  0.22140  0.34670  1.0000
  H   H26       1.0  0.15570  0.77860  0.34670  1.0000
  H   H27       1.0  0.22140  0.15570  0.65330  1.0000
  H   H28       1.0  0.77860  0.84430  0.65330  1.0000
  H   H29       1.0  0.65570  0.22140  0.40330  1.0000
  H   H30       1.0  0.34430  0.77860  0.40330  1.0000
  H   H31       1.0  0.27860  0.15570  0.09670  1.0000
  H   H32       1.0  0.72140  0.84430  0.09670  1.0000
  C   C65       1.0  0.43420  0.72900  0.79760  1.0000
  C   C66       1.0  0.56580  0.27100  0.79760  1.0000
  C   C67       1.0  0.72900  0.56580  0.20240  1.0000
  C   C68       1.0  0.27100  0.43420  0.20240  1.0000
  C   C69       1.0  0.06580  0.72900  0.95240  1.0000
  C   C70       1.0  0.93420  0.27100  0.95240  1.0000
  C   C71       1.0  0.77100  0.56580  0.54760  1.0000
  C   C72       1.0  0.22900  0.43420  0.54760  1.0000
  C   C73       1.0  0.93420  0.22900  0.29760  1.0000
  C   C74       1.0  0.06580  0.77100  0.29760  1.0000
  C   C75       1.0  0.22900  0.06580  0.70240  1.0000
  C   C76       1.0  0.77100  0.93420  0.70240  1.0000
  C   C77       1.0  0.56580  0.22900  0.45240  1.0000
  C   C78       1.0  0.43420  0.77100  0.45240  1.0000
  C   C79       1.0  0.27100  0.06580  0.04760  1.0000
  C   C80       1.0  0.72900  0.93420  0.04760  1.0000
  C   C81       1.0  0.50900  0.73340  0.80060  1.0000
  C   C82       1.0  0.49100  0.26660  0.80060  1.0000
  C   C83       1.0  0.73340  0.49100  0.19940  1.0000
  C   C84       1.0  0.26660  0.50900  0.19940  1.0000
  C   C85       1.0  0.99100  0.73340  0.94940  1.0000
  C   C86       1.0  0.00900  0.26660  0.94940  1.0000
  C   C87       1.0  0.76660  0.49100  0.55060  1.0000
  C   C88       1.0  0.23340  0.50900  0.55060  1.0000
  C   C89       1.0  0.00900  0.23340  0.30060  1.0000
  C   C90       1.0  0.99100  0.76660  0.30060  1.0000
  C   C91       1.0  0.23340  0.99100  0.69940  1.0000
  C   C92       1.0  0.76660  0.00900  0.69940  1.0000
  C   C93       1.0  0.49100  0.23340  0.44940  1.0000
  C   C94       1.0  0.50900  0.76660  0.44940  1.0000
  C   C95       1.0  0.26660  0.99100  0.05060  1.0000
  C   C96       1.0  0.73340  0.00900  0.05060  1.0000
  H   H33       1.0  0.53550  0.73540  0.76660  1.0000
  H   H34       1.0  0.46450  0.26460  0.76660  1.0000
  H   H35       1.0  0.73540  0.46450  0.23340  1.0000
  H   H36       1.0  0.26460  0.53550  0.23340  1.0000
  H   H37       1.0  0.96450  0.73540  0.98340  1.0000
  H   H38       1.0  0.03550  0.26460  0.98340  1.0000
  H   H39       1.0  0.76460  0.46450  0.51660  1.0000
  H   H40       1.0  0.23540  0.53550  0.51660  1.0000
  H   H41       1.0  0.03550  0.23540  0.26660  1.0000
  H   H42       1.0  0.96450  0.76460  0.26660  1.0000
  H   H43       1.0  0.23540  0.96450  0.73340  1.0000
  H   H44       1.0  0.76460  0.03550  0.73340  1.0000
  H   H45       1.0  0.46450  0.23540  0.48340  1.0000
  H   H46       1.0  0.53550  0.76460  0.48340  1.0000
  H   H47       1.0  0.26460  0.96450  0.01660  1.0000
  H   H48       1.0  0.73540  0.03550  0.01660  1.0000
  C   C97       1.0  0.38660  0.72300  0.95620  1.0000
  C   C98       1.0  0.61340  0.27700  0.95620  1.0000
  C   C99       1.0  0.72300  0.61340  0.04380  1.0000
  C   C100      1.0  0.27700  0.38660  0.04380  1.0000
  C   C101      1.0  0.11340  0.72300  0.79380  1.0000
  C   C102      1.0  0.88660  0.27700  0.79380  1.0000
  C   C103      1.0  0.77700  0.61340  0.70620  1.0000
  C   C104      1.0  0.22300  0.38660  0.70620  1.0000
  C   C105      1.0  0.88660  0.22300  0.45620  1.0000
  C   C106      1.0  0.11340  0.77700  0.45620  1.0000
  C   C107      1.0  0.22300  0.11340  0.54380  1.0000
  C   C108      1.0  0.77700  0.88660  0.54380  1.0000
  C   C109      1.0  0.61340  0.22300  0.29380  1.0000
  C   C110      1.0  0.38660  0.77700  0.29380  1.0000
  C   C111      1.0  0.27700  0.11340  0.20620  1.0000
  C   C112      1.0  0.72300  0.88660  0.20620  1.0000
  C   C113      1.0  0.39480  0.72830  0.74100  1.0000
  C   C114      1.0  0.60520  0.27170  0.74100  1.0000
  C   C115      1.0  0.72830  0.60520  0.25900  1.0000
  C   C116      1.0  0.27170  0.39480  0.25900  1.0000
  C   C117      1.0  0.10520  0.72830  0.00900  1.0000
  C   C118      1.0  0.89480  0.27170  0.00900  1.0000
  C   C119      1.0  0.77170  0.60520  0.49100  1.0000
  C   C120      1.0  0.22830  0.39480  0.49100  1.0000
  C   C121      1.0  0.89480  0.22830  0.24100  1.0000
  C   C122      1.0  0.10520  0.77170  0.24100  1.0000
  C   C123      1.0  0.22830  0.10520  0.75900  1.0000
  C   C124      1.0  0.77170  0.89480  0.75900  1.0000
  C   C125      1.0  0.60520  0.22830  0.50900  1.0000
  C   C126      1.0  0.39480  0.77170  0.50900  1.0000
  C   C127      1.0  0.27170  0.10520  0.99100  1.0000
  C   C128      1.0  0.72830  0.89480  0.99100  1.0000
  O   O1        1.0  0.65870  0.82220  0.86190  1.0000
  O   O2        1.0  0.34130  0.17780  0.86190  1.0000
  O   O3        1.0  0.82220  0.34130  0.13810  1.0000
  O   O4        1.0  0.17780  0.65870  0.13810  1.0000
  O   O5        1.0  0.84130  0.82220  0.88810  1.0000
  O   O6        1.0  0.15870  0.17780  0.88810  1.0000
  O   O7        1.0  0.67780  0.34130  0.61190  1.0000
  O   O8        1.0  0.32220  0.65870  0.61190  1.0000
  O   O9        1.0  0.15870  0.32220  0.36190  1.0000
  O   O10       1.0  0.84130  0.67780  0.36190  1.0000
  O   O11       1.0  0.32220  0.84130  0.63810  1.0000
  O   O12       1.0  0.67780  0.15870  0.63810  1.0000
  O   O13       1.0  0.34130  0.32220  0.38810  1.0000
  O   O14       1.0  0.65870  0.67780  0.38810  1.0000
  O   O15       1.0  0.17780  0.84130  0.11190  1.0000
  O   O16       1.0  0.82220  0.15870  0.11190  1.0000
  O   O17       1.0  0.66360  0.70240  0.91350  1.0000
  O   O18       1.0  0.33640  0.29760  0.91350  1.0000
  O   O19       1.0  0.70240  0.33640  0.08650  1.0000
  O   O20       1.0  0.29760  0.66360  0.08650  1.0000
  O   O21       1.0  0.83640  0.70240  0.83650  1.0000
  O   O22       1.0  0.16360  0.29760  0.83650  1.0000
  O   O23       1.0  0.79760  0.33640  0.66350  1.0000
  O   O24       1.0  0.20240  0.66360  0.66350  1.0000
  O   O25       1.0  0.16360  0.20240  0.41350  1.0000
  O   O26       1.0  0.83640  0.79760  0.41350  1.0000
  O   O27       1.0  0.20240  0.83640  0.58650  1.0000
  O   O28       1.0  0.79760  0.16360  0.58650  1.0000
  O   O29       1.0  0.33640  0.20240  0.33650  1.0000
  O   O30       1.0  0.66360  0.79760  0.33650  1.0000
  O   O31       1.0  0.29760  0.83640  0.16350  1.0000
  O   O32       1.0  0.70240  0.16360  0.16350  1.0000
  O   O33       1.0  0.67270  0.70710  0.80470  1.0000
  O   O34       1.0  0.32730  0.29290  0.80470  1.0000
  O   O35       1.0  0.70710  0.32730  0.19530  1.0000
  O   O36       1.0  0.29290  0.67270  0.19530  1.0000
  O   O37       1.0  0.82730  0.70710  0.94530  1.0000
  O   O38       1.0  0.17270  0.29290  0.94530  1.0000
  O   O39       1.0  0.79290  0.32730  0.55470  1.0000
  O   O40       1.0  0.20710  0.67270  0.55470  1.0000
  O   O41       1.0  0.17270  0.20710  0.30470  1.0000
  O   O42       1.0  0.82730  0.79290  0.30470  1.0000
  O   O43       1.0  0.20710  0.82730  0.69530  1.0000
  O   O44       1.0  0.79290  0.17270  0.69530  1.0000
  O   O45       1.0  0.32730  0.20710  0.44530  1.0000
  O   O46       1.0  0.67270  0.79290  0.44530  1.0000
  O   O47       1.0  0.29290  0.82730  0.05470  1.0000
  O   O48       1.0  0.70710  0.17270  0.05470  1.0000
  O   O49       1.0  0.31770  0.72140  0.95090  1.0000
  O   O50       1.0  0.68230  0.27860  0.95090  1.0000
  O   O51       1.0  0.72140  0.68230  0.04910  1.0000
  O   O52       1.0  0.27860  0.31770  0.04910  1.0000
  O   O53       1.0  0.18230  0.72140  0.79910  1.0000
  O   O54       1.0  0.81770  0.27860  0.79910  1.0000
  O   O55       1.0  0.77860  0.68230  0.70090  1.0000
  O   O56       1.0  0.22140  0.31770  0.70090  1.0000
  O   O57       1.0  0.81770  0.22140  0.45090  1.0000
  O   O58       1.0  0.18230  0.77860  0.45090  1.0000
  O   O59       1.0  0.22140  0.18230  0.54910  1.0000
  O   O60       1.0  0.77860  0.81770  0.54910  1.0000
  O   O61       1.0  0.68230  0.22140  0.29910  1.0000
  O   O62       1.0  0.31770  0.77860  0.29910  1.0000
  O   O63       1.0  0.27860  0.18230  0.20090  1.0000
  O   O64       1.0  0.72140  0.81770  0.20090  1.0000
  O   O65       1.0  0.41730  0.72740  0.00210  1.0000
  O   O66       1.0  0.58270  0.27260  0.00210  1.0000
  O   O67       1.0  0.72740  0.58270  0.99790  1.0000
  O   O68       1.0  0.27260  0.41730  0.99790  1.0000
  O   O69       1.0  0.08270  0.72740  0.74790  1.0000
  O   O70       1.0  0.91730  0.27260  0.74790  1.0000
  O   O71       1.0  0.77260  0.58270  0.75210  1.0000
  O   O72       1.0  0.22740  0.41730  0.75210  1.0000
  O   O73       1.0  0.91730  0.22740  0.50210  1.0000
  O   O74       1.0  0.08270  0.77260  0.50210  1.0000
  O   O75       1.0  0.22740  0.08270  0.49790  1.0000
  O   O76       1.0  0.77260  0.91730  0.49790  1.0000
  O   O77       1.0  0.58270  0.22740  0.24790  1.0000
  O   O78       1.0  0.41730  0.77260  0.24790  1.0000
  O   O79       1.0  0.27260  0.08270  0.25210  1.0000
  O   O80       1.0  0.72740  0.91730  0.25210  1.0000
  O   O81       1.0  0.32920  0.72030  0.74240  1.0000
  O   O82       1.0  0.67080  0.27970  0.74240  1.0000
  O   O83       1.0  0.72030  0.67080  0.25760  1.0000
  O   O84       1.0  0.27970  0.32920  0.25760  1.0000
  O   O85       1.0  0.17080  0.72030  0.00760  1.0000
  O   O86       1.0  0.82920  0.27970  0.00760  1.0000
  O   O87       1.0  0.77970  0.67080  0.49240  1.0000
  O   O88       1.0  0.22030  0.32920  0.49240  1.0000
  O   O89       1.0  0.82920  0.22030  0.24240  1.0000
  O   O90       1.0  0.17080  0.77970  0.24240  1.0000
  O   O91       1.0  0.22030  0.17080  0.75760  1.0000
  O   O92       1.0  0.77970  0.82920  0.75760  1.0000
  O   O93       1.0  0.67080  0.22030  0.50760  1.0000
  O   O94       1.0  0.32920  0.77970  0.50760  1.0000
  O   O95       1.0  0.27970  0.17080  0.99240  1.0000
  O   O96       1.0  0.72030  0.82920  0.99240  1.0000
  O   O97       1.0  0.43220  0.73960  0.69570  1.0000
  O   O98       1.0  0.56780  0.26040  0.69570  1.0000
  O   O99       1.0  0.73960  0.56780  0.30430  1.0000
  O   O100      1.0  0.26040  0.43220  0.30430  1.0000
  O   O101      1.0  0.06780  0.73960  0.05430  1.0000
  O   O102      1.0  0.93220  0.26040  0.05430  1.0000
  O   O103      1.0  0.76040  0.56780  0.44570  1.0000
  O   O104      1.0  0.23960  0.43220  0.44570  1.0000
  O   O105      1.0  0.93220  0.23960  0.19570  1.0000
  O   O106      1.0  0.06780  0.76040  0.19570  1.0000
  O   O107      1.0  0.23960  0.06780  0.80430  1.0000
  O   O108      1.0  0.76040  0.93220  0.80430  1.0000
  O   O109      1.0  0.56780  0.23960  0.55430  1.0000
  O   O110      1.0  0.43220  0.76040  0.55430  1.0000
  O   O111      1.0  0.26040  0.06780  0.94570  1.0000
  O   O112      1.0  0.73960  0.93220  0.94570  1.0000
  P   P1        1.0  0.64134  0.74269  0.85834  1.0000
  P   P2        1.0  0.35866  0.25731  0.85834  1.0000
  P   P3        1.0  0.74269  0.35866  0.14166  1.0000
  P   P4        1.0  0.25731  0.64134  0.14166  1.0000
  P   P5        1.0  0.85866  0.74269  0.89166  1.0000
  P   P6        1.0  0.14134  0.25731  0.89166  1.0000
  P   P7        1.0  0.75731  0.35866  0.60834  1.0000
  P   P8        1.0  0.24269  0.64134  0.60834  1.0000
  P   P9        1.0  0.14134  0.24269  0.35834  1.0000
  P   P10       1.0  0.85866  0.75731  0.35834  1.0000
  P   P11       1.0  0.24269  0.85866  0.64166  1.0000
  P   P12       1.0  0.75731  0.14134  0.64166  1.0000
  P   P13       1.0  0.35866  0.24269  0.39166  1.0000
  P   P14       1.0  0.64134  0.75731  0.39166  1.0000
  P   P15       1.0  0.25731  0.85866  0.10834  1.0000
  P   P16       1.0  0.74269  0.14134  0.10834  1.0000
