data_image0
_chemical_formula_structural       Cu4O24C4H4C4H4C4H4
_chemical_formula_sum              "Cu4 O24 C12 H12"
_cell_length_a       9.2163
_cell_length_b       8.1178
_cell_length_c       11.4588
_cell_angle_alpha    90
_cell_angle_beta     90
_cell_angle_gamma    90

_space_group_name_H-M_alt    "P 1"
_space_group_IT_number       1

loop_
  _space_group_symop_operation_xyz
  'x, y, z'

loop_
  _atom_site_type_symbol
  _atom_site_label
  _atom_site_symmetry_multiplicity
  _atom_site_fract_x
  _atom_site_fract_y
  _atom_site_fract_z
  _atom_site_occupancy
  Cu  Cu1       1.0  0.52936  0.50594  0.50034  1.0000
  Cu  Cu2       1.0  0.47064  0.49406  0.00034  1.0000
  Cu  Cu3       1.0  0.02936  0.99406  0.50034  1.0000
  Cu  Cu4       1.0  0.97064  0.00594  0.00034  1.0000
  O   O1        1.0  0.29427  0.38455  0.56549  1.0000
  O   O2        1.0  0.70573  0.61545  0.06549  1.0000
  O   O3        1.0  0.79427  0.11545  0.56549  1.0000
  O   O4        1.0  0.20573  0.88455  0.06549  1.0000
  O   O5        1.0  0.12860  0.18733  0.56323  1.0000
  O   O6        1.0  0.87140  0.81267  0.06323  1.0000
  O   O7        1.0  0.62860  0.31267  0.56323  1.0000
  O   O8        1.0  0.37140  0.68733  0.06323  1.0000
  O   O9        1.0  0.43518  0.70325  0.43671  1.0000
  O   O10       1.0  0.56482  0.29675  0.93671  1.0000
  O   O11       1.0  0.93518  0.79675  0.43671  1.0000
  O   O12       1.0  0.06482  0.20325  0.93671  1.0000
  O   O13       1.0  0.26070  0.89071  0.43348  1.0000
  O   O14       1.0  0.73930  0.10929  0.93348  1.0000
  O   O15       1.0  0.76070  0.60929  0.43348  1.0000
  O   O16       1.0  0.23930  0.39071  0.93348  1.0000
  O   O17       1.0  0.53390  0.61780  0.65775  1.0000
  O   O18       1.0  0.46610  0.38220  0.15775  1.0000
  O   O19       1.0  0.03390  0.88220  0.65775  1.0000
  O   O20       1.0  0.96610  0.11780  0.15775  1.0000
  O   O21       1.0  0.49805  0.61120  0.84763  1.0000
  O   O22       1.0  0.50195  0.38880  0.34763  1.0000
  O   O23       1.0  0.99805  0.88880  0.84763  1.0000
  O   O24       1.0  0.00195  0.11120  0.34763  1.0000
  C   C1        1.0  0.24170  0.25450  0.52700  1.0000
  C   C2        1.0  0.75830  0.74550  0.02700  1.0000
  C   C3        1.0  0.74170  0.24550  0.52700  1.0000
  C   C4        1.0  0.25830  0.75450  0.02700  1.0000
  H   H1        1.0  0.29070  0.20300  0.46610  1.0000
  H   H2        1.0  0.70930  0.79700  0.96610  1.0000
  H   H3        1.0  0.79070  0.29700  0.46610  1.0000
  H   H4        1.0  0.20930  0.70300  0.96610  1.0000
  C   C5        1.0  0.31960  0.76650  0.47320  1.0000
  C   C6        1.0  0.68040  0.23350  0.97320  1.0000
  C   C7        1.0  0.81960  0.73350  0.47320  1.0000
  C   C8        1.0  0.18040  0.26650  0.97320  1.0000
  H   H5        1.0  0.27420  0.71510  0.53580  1.0000
  H   H6        1.0  0.72580  0.28490  0.03580  1.0000
  H   H7        1.0  0.77420  0.78490  0.53580  1.0000
  H   H8        1.0  0.22580  0.21510  0.03580  1.0000
  C   C9        1.0  0.50060  0.54320  0.75060  1.0000
  C   C10       1.0  0.49940  0.45680  0.25060  1.0000
  C   C11       1.0  0.00060  0.95680  0.75060  1.0000
  C   C12       1.0  0.99940  0.04320  0.25060  1.0000
  H   H9        1.0  0.47670  0.43210  0.74610  1.0000
  H   H10       1.0  0.52330  0.56790  0.24610  1.0000
  H   H11       1.0  0.97670  0.06790  0.74610  1.0000
  H   H12       1.0  0.02330  0.93210  0.24610  1.0000
