data_image0
_chemical_formula_structural       Cu4O24C4H4C4H4C4H4
_chemical_formula_sum              "Cu4 O24 C12 H12"
_cell_length_a       9.1029
_cell_length_b       8.0929
_cell_length_c       11.396
_cell_angle_alpha    90
_cell_angle_beta     90
_cell_angle_gamma    90

_space_group_name_H-M_alt    "P 1"
_space_group_IT_number       1

loop_
  _space_group_symop_operation_xyz
  'x, y, z'

loop_
  _atom_site_type_symbol
  _atom_site_label
  _atom_site_symmetry_multiplicity
  _atom_site_fract_x
  _atom_site_fract_y
  _atom_site_fract_z
  _atom_site_occupancy
  Cu  Cu1       1.0  0.53332  0.50644  0.50042  1.0000
  Cu  Cu2       1.0  0.46668  0.49356  0.00042  1.0000
  Cu  Cu3       1.0  0.03332  0.99356  0.50042  1.0000
  Cu  Cu4       1.0  0.96668  0.00644  0.00042  1.0000
  O   O1        1.0  0.29846  0.38951  0.56454  1.0000
  O   O2        1.0  0.70154  0.61049  0.06454  1.0000
  O   O3        1.0  0.79846  0.11049  0.56454  1.0000
  O   O4        1.0  0.20154  0.88951  0.06454  1.0000
  O   O5        1.0  0.13238  0.18754  0.56633  1.0000
  O   O6        1.0  0.86762  0.81246  0.06633  1.0000
  O   O7        1.0  0.63238  0.31246  0.56633  1.0000
  O   O8        1.0  0.36762  0.68754  0.06633  1.0000
  O   O9        1.0  0.43968  0.70393  0.43425  1.0000
  O   O10       1.0  0.56032  0.29607  0.93425  1.0000
  O   O11       1.0  0.93968  0.79607  0.43425  1.0000
  O   O12       1.0  0.06032  0.20393  0.93425  1.0000
  O   O13       1.0  0.26258  0.89404  0.43287  1.0000
  O   O14       1.0  0.73742  0.10596  0.93287  1.0000
  O   O15       1.0  0.76258  0.60596  0.43287  1.0000
  O   O16       1.0  0.23742  0.39404  0.93287  1.0000
  O   O17       1.0  0.53629  0.62140  0.65748  1.0000
  O   O18       1.0  0.46371  0.37860  0.15748  1.0000
  O   O19       1.0  0.03629  0.87860  0.65748  1.0000
  O   O20       1.0  0.96371  0.12140  0.15748  1.0000
  O   O21       1.0  0.49445  0.61526  0.84853  1.0000
  O   O22       1.0  0.50555  0.38474  0.34853  1.0000
  O   O23       1.0  0.99445  0.88474  0.84853  1.0000
  O   O24       1.0  0.00555  0.11526  0.34853  1.0000
  C   C1        1.0  0.24650  0.25607  0.52628  1.0000
  C   C2        1.0  0.75350  0.74393  0.02628  1.0000
  C   C3        1.0  0.74650  0.24393  0.52628  1.0000
  C   C4        1.0  0.25350  0.75607  0.02628  1.0000
  H   H1        1.0  0.29620  0.20340  0.46320  1.0000
  H   H2        1.0  0.70380  0.79660  0.96320  1.0000
  H   H3        1.0  0.79620  0.29660  0.46320  1.0000
  H   H4        1.0  0.20380  0.70340  0.96320  1.0000
  C   C5        1.0  0.32349  0.76807  0.47417  1.0000
  C   C6        1.0  0.67651  0.23193  0.97417  1.0000
  C   C7        1.0  0.82349  0.73193  0.47417  1.0000
  C   C8        1.0  0.17651  0.26807  0.97417  1.0000
  H   H5        1.0  0.27910  0.71700  0.54030  1.0000
  H   H6        1.0  0.72090  0.28300  0.04030  1.0000
  H   H7        1.0  0.77910  0.78300  0.54030  1.0000
  H   H8        1.0  0.22090  0.21700  0.04030  1.0000
  C   C9        1.0  0.49926  0.54620  0.75031  1.0000
  C   C10       1.0  0.50074  0.45380  0.25031  1.0000
  C   C11       1.0  0.99926  0.95380  0.75031  1.0000
  C   C12       1.0  0.00074  0.04620  0.25031  1.0000
  H   H9        1.0  0.47410  0.43250  0.74520  1.0000
  H   H10       1.0  0.52590  0.56750  0.24520  1.0000
  H   H11       1.0  0.97410  0.06750  0.74520  1.0000
  H   H12       1.0  0.02590  0.93250  0.24520  1.0000
