data_image0
_chemical_formula_structural       Cu4O24C4H4C4H4C4H4
_chemical_formula_sum              "Cu4 O24 C12 H12"
_cell_length_a       9.1422
_cell_length_b       8.1016
_cell_length_c       11.415
_cell_angle_alpha    90
_cell_angle_beta     90
_cell_angle_gamma    90

_space_group_name_H-M_alt    "P 1"
_space_group_IT_number       1

loop_
  _space_group_symop_operation_xyz
  'x, y, z'

loop_
  _atom_site_type_symbol
  _atom_site_label
  _atom_site_symmetry_multiplicity
  _atom_site_fract_x
  _atom_site_fract_y
  _atom_site_fract_z
  _atom_site_occupancy
  Cu  Cu1       1.0  0.53217  0.50640  0.50037  1.0000
  Cu  Cu2       1.0  0.46783  0.49360  0.00037  1.0000
  Cu  Cu3       1.0  0.03217  0.99360  0.50037  1.0000
  Cu  Cu4       1.0  0.96783  0.00640  0.00037  1.0000
  O   O1        1.0  0.29723  0.38799  0.56505  1.0000
  O   O2        1.0  0.70277  0.61201  0.06505  1.0000
  O   O3        1.0  0.79723  0.11201  0.56505  1.0000
  O   O4        1.0  0.20277  0.88799  0.06505  1.0000
  O   O5        1.0  0.13125  0.18742  0.56545  1.0000
  O   O6        1.0  0.86875  0.81258  0.06545  1.0000
  O   O7        1.0  0.63125  0.31258  0.56545  1.0000
  O   O8        1.0  0.36875  0.68742  0.06545  1.0000
  O   O9        1.0  0.43821  0.70373  0.43504  1.0000
  O   O10       1.0  0.56179  0.29627  0.93504  1.0000
  O   O11       1.0  0.93821  0.79627  0.43504  1.0000
  O   O12       1.0  0.06179  0.20373  0.93504  1.0000
  O   O13       1.0  0.26210  0.89308  0.43293  1.0000
  O   O14       1.0  0.73790  0.10692  0.93293  1.0000
  O   O15       1.0  0.76210  0.60692  0.43293  1.0000
  O   O16       1.0  0.23790  0.39308  0.93293  1.0000
  O   O17       1.0  0.53559  0.62014  0.65756  1.0000
  O   O18       1.0  0.46441  0.37986  0.15756  1.0000
  O   O19       1.0  0.03559  0.87986  0.65756  1.0000
  O   O20       1.0  0.96441  0.12014  0.15756  1.0000
  O   O21       1.0  0.49564  0.61415  0.84817  1.0000
  O   O22       1.0  0.50436  0.38585  0.34817  1.0000
  O   O23       1.0  0.99564  0.88585  0.84817  1.0000
  O   O24       1.0  0.00436  0.11415  0.34817  1.0000
  C   C1        1.0  0.24536  0.25537  0.52650  1.0000
  C   C2        1.0  0.75464  0.74463  0.02650  1.0000
  C   C3        1.0  0.74536  0.24463  0.52650  1.0000
  C   C4        1.0  0.25464  0.75537  0.02650  1.0000
  H   H1        1.0  0.29530  0.20270  0.46390  1.0000
  H   H2        1.0  0.70470  0.79730  0.96390  1.0000
  H   H3        1.0  0.79530  0.29730  0.46390  1.0000
  H   H4        1.0  0.20470  0.70270  0.96390  1.0000
  C   C5        1.0  0.32241  0.76747  0.47388  1.0000
  C   C6        1.0  0.67759  0.23253  0.97388  1.0000
  C   C7        1.0  0.82241  0.73253  0.47388  1.0000
  C   C8        1.0  0.17759  0.26747  0.97388  1.0000
  H   H5        1.0  0.27740  0.71600  0.53940  1.0000
  H   H6        1.0  0.72260  0.28400  0.03940  1.0000
  H   H7        1.0  0.77740  0.78400  0.53940  1.0000
  H   H8        1.0  0.22260  0.21600  0.03940  1.0000
  C   C9        1.0  0.49963  0.54531  0.75017  1.0000
  C   C10       1.0  0.50037  0.45469  0.25017  1.0000
  C   C11       1.0  0.99963  0.95469  0.75017  1.0000
  C   C12       1.0  0.00037  0.04531  0.25017  1.0000
  H   H9        1.0  0.47450  0.43170  0.74520  1.0000
  H   H10       1.0  0.52550  0.56830  0.24520  1.0000
  H   H11       1.0  0.97450  0.06830  0.74520  1.0000
  H   H12       1.0  0.02550  0.93170  0.24520  1.0000
