data_image0
_chemical_formula_structural       Cu4O24C4H4C4H4C4H4
_chemical_formula_sum              "Cu4 O24 C12 H12"
_cell_length_a       9.2087
_cell_length_b       8.1102
_cell_length_c       11.4448
_cell_angle_alpha    90
_cell_angle_beta     90
_cell_angle_gamma    90

_space_group_name_H-M_alt    "P 1"
_space_group_IT_number       1

loop_
  _space_group_symop_operation_xyz
  'x, y, z'

loop_
  _atom_site_type_symbol
  _atom_site_label
  _atom_site_symmetry_multiplicity
  _atom_site_fract_x
  _atom_site_fract_y
  _atom_site_fract_z
  _atom_site_occupancy
  Cu  Cu1       1.0  0.52867  0.50583  0.50029  1.0000
  Cu  Cu2       1.0  0.47133  0.49417  0.00029  1.0000
  Cu  Cu3       1.0  0.02867  0.99417  0.50029  1.0000
  Cu  Cu4       1.0  0.97133  0.00583  0.00029  1.0000
  O   O1        1.0  0.29382  0.38457  0.56564  1.0000
  O   O2        1.0  0.70618  0.61543  0.06564  1.0000
  O   O3        1.0  0.79382  0.11543  0.56564  1.0000
  O   O4        1.0  0.20618  0.88457  0.06564  1.0000
  O   O5        1.0  0.12778  0.18741  0.56313  1.0000
  O   O6        1.0  0.87222  0.81259  0.06313  1.0000
  O   O7        1.0  0.62778  0.31259  0.56313  1.0000
  O   O8        1.0  0.37222  0.68741  0.06313  1.0000
  O   O9        1.0  0.43471  0.70283  0.43707  1.0000
  O   O10       1.0  0.56529  0.29717  0.93707  1.0000
  O   O11       1.0  0.93471  0.79717  0.43707  1.0000
  O   O12       1.0  0.06529  0.20283  0.93707  1.0000
  O   O13       1.0  0.26036  0.89053  0.43342  1.0000
  O   O14       1.0  0.73964  0.10947  0.93342  1.0000
  O   O15       1.0  0.76036  0.60947  0.43342  1.0000
  O   O16       1.0  0.23964  0.39053  0.93342  1.0000
  O   O17       1.0  0.53372  0.61681  0.65743  1.0000
  O   O18       1.0  0.46628  0.38319  0.15743  1.0000
  O   O19       1.0  0.03372  0.88319  0.65743  1.0000
  O   O20       1.0  0.96628  0.11681  0.15743  1.0000
  O   O21       1.0  0.49832  0.61097  0.84746  1.0000
  O   O22       1.0  0.50168  0.38903  0.34746  1.0000
  O   O23       1.0  0.99832  0.88903  0.84746  1.0000
  O   O24       1.0  0.00168  0.11097  0.34746  1.0000
  C   C1        1.0  0.24150  0.25430  0.52729  1.0000
  C   C2        1.0  0.75850  0.74570  0.02729  1.0000
  C   C3        1.0  0.74150  0.24570  0.52729  1.0000
  C   C4        1.0  0.25850  0.75430  0.02729  1.0000
  H   H1        1.0  0.29120  0.20230  0.46690  1.0000
  H   H2        1.0  0.70880  0.79770  0.96690  1.0000
  H   H3        1.0  0.79120  0.29770  0.46690  1.0000
  H   H4        1.0  0.20880  0.70230  0.96690  1.0000
  C   C5        1.0  0.31940  0.76600  0.47369  1.0000
  C   C6        1.0  0.68060  0.23400  0.97369  1.0000
  C   C7        1.0  0.81940  0.73400  0.47369  1.0000
  C   C8        1.0  0.18060  0.26600  0.97369  1.0000
  H   H5        1.0  0.27420  0.71490  0.53670  1.0000
  H   H6        1.0  0.72580  0.28510  0.03670  1.0000
  H   H7        1.0  0.77420  0.78510  0.53670  1.0000
  H   H8        1.0  0.22580  0.21490  0.03670  1.0000
  C   C9        1.0  0.50030  0.54300  0.75000  1.0000
  C   C10       1.0  0.49970  0.45700  0.25000  1.0000
  C   C11       1.0  0.00030  0.95700  0.75000  1.0000
  C   C12       1.0  0.99970  0.04300  0.25000  1.0000
  H   H9        1.0  0.47590  0.43190  0.74560  1.0000
  H   H10       1.0  0.52410  0.56810  0.24560  1.0000
  H   H11       1.0  0.97590  0.06810  0.74560  1.0000
  H   H12       1.0  0.02410  0.93190  0.24560  1.0000
