data_image0
_chemical_formula_structural       Cu4O24C4H4C4H4C4H4
_chemical_formula_sum              "Cu4 O24 C12 H12"
_cell_length_a       10.0338
_cell_length_b       8.2827
_cell_length_c       11.1583
_cell_angle_alpha    90
_cell_angle_beta     90
_cell_angle_gamma    90

_space_group_name_H-M_alt    "P 1"
_space_group_IT_number       1

loop_
  _space_group_symop_operation_xyz
  'x, y, z'

loop_
  _atom_site_type_symbol
  _atom_site_label
  _atom_site_symmetry_multiplicity
  _atom_site_fract_x
  _atom_site_fract_y
  _atom_site_fract_z
  _atom_site_occupancy
  Cu  Cu1       1.0  0.20437  0.00118  0.26844  1.0000
  Cu  Cu2       1.0  0.29563  0.99882  0.76844  1.0000
  Cu  Cu3       1.0  0.79563  0.50118  0.23156  1.0000
  Cu  Cu4       1.0  0.70437  0.49882  0.73156  1.0000
  O   O1        1.0  0.46230  0.05230  0.33070  1.0000
  O   O2        1.0  0.03770  0.94770  0.83070  1.0000
  O   O3        1.0  0.53770  0.55230  0.16930  1.0000
  O   O4        1.0  0.96230  0.44770  0.66930  1.0000
  O   O5        1.0  0.31290  0.18820  0.22340  1.0000
  O   O6        1.0  0.18710  0.81180  0.72340  1.0000
  O   O7        1.0  0.68710  0.68820  0.27660  1.0000
  O   O8        1.0  0.81290  0.31180  0.77660  1.0000
  O   O9        1.0  0.01490  0.09830  0.18570  1.0000
  O   O10       1.0  0.48510  0.90170  0.68570  1.0000
  O   O11       1.0  0.98510  0.59830  0.31430  1.0000
  O   O12       1.0  0.51490  0.40170  0.81430  1.0000
  O   O13       1.0  0.87190  0.30150  0.16840  1.0000
  O   O14       1.0  0.62810  0.69850  0.66840  1.0000
  O   O15       1.0  0.12810  0.80150  0.33160  1.0000
  O   O16       1.0  0.37190  0.19850  0.83160  1.0000
  O   O17       1.0  0.18280  0.10790  0.42870  1.0000
  O   O18       1.0  0.31720  0.89210  0.92870  1.0000
  O   O19       1.0  0.81720  0.60790  0.07130  1.0000
  O   O20       1.0  0.68280  0.39210  0.57130  1.0000
  O   O21       1.0  0.24280  0.11510  0.61960  1.0000
  O   O22       1.0  0.25720  0.88490  0.11960  1.0000
  O   O23       1.0  0.75720  0.61510  0.88040  1.0000
  O   O24       1.0  0.74280  0.38490  0.38040  1.0000
  C   C1        1.0  0.42650  0.17180  0.27020  1.0000
  C   C2        1.0  0.07350  0.82820  0.77020  1.0000
  C   C3        1.0  0.57350  0.67180  0.22980  1.0000
  C   C4        1.0  0.92650  0.32820  0.72980  1.0000
  H   H1        1.0  0.48940  0.25610  0.25870  1.0000
  H   H2        1.0  0.01060  0.74390  0.75870  1.0000
  H   H3        1.0  0.51060  0.75610  0.24130  1.0000
  H   H4        1.0  0.98940  0.24390  0.74130  1.0000
  C   C5        1.0  0.96950  0.23210  0.21720  1.0000
  C   C6        1.0  0.53050  0.76790  0.71720  1.0000
  C   C7        1.0  0.03050  0.73210  0.28280  1.0000
  C   C8        1.0  0.46950  0.26790  0.78280  1.0000
  H   H5        1.0  0.01150  0.28520  0.28260  1.0000
  H   H6        1.0  0.48850  0.71480  0.78260  1.0000
  H   H7        1.0  0.98850  0.78520  0.21740  1.0000
  H   H8        1.0  0.51150  0.21480  0.71740  1.0000
  C   C9        1.0  0.23050  0.04160  0.52140  1.0000
  C   C10       1.0  0.26950  0.95840  0.02140  1.0000
  C   C11       1.0  0.76950  0.54160  0.97860  1.0000
  C   C12       1.0  0.73050  0.45840  0.47860  1.0000
  H   H9        1.0  0.25810  0.93200  0.51670  1.0000
  H   H10       1.0  0.24190  0.06800  0.01670  1.0000
  H   H11       1.0  0.74190  0.43200  0.98330  1.0000
  H   H12       1.0  0.75810  0.56800  0.48330  1.0000
