data_image0
_chemical_formula_structural       Cu4O24C4H4C4H4C4H4
_chemical_formula_sum              "Cu4 O24 C12 H12"
_cell_length_a       10.1443
_cell_length_b       8.2889
_cell_length_c       11.1596
_cell_angle_alpha    90
_cell_angle_beta     90
_cell_angle_gamma    90

_space_group_name_H-M_alt    "P 1"
_space_group_IT_number       1

loop_
  _space_group_symop_operation_xyz
  'x, y, z'

loop_
  _atom_site_type_symbol
  _atom_site_label
  _atom_site_symmetry_multiplicity
  _atom_site_fract_x
  _atom_site_fract_y
  _atom_site_fract_z
  _atom_site_occupancy
  Cu  Cu1       1.0  0.20469  0.00061  0.26613  1.0000
  Cu  Cu2       1.0  0.29531  0.99939  0.76613  1.0000
  Cu  Cu3       1.0  0.79531  0.50061  0.23387  1.0000
  Cu  Cu4       1.0  0.70469  0.49939  0.73387  1.0000
  O   O1        1.0  0.46160  0.05420  0.32800  1.0000
  O   O2        1.0  0.03840  0.94580  0.82800  1.0000
  O   O3        1.0  0.53840  0.55420  0.17200  1.0000
  O   O4        1.0  0.96160  0.44580  0.67200  1.0000
  O   O5        1.0  0.31250  0.18710  0.22220  1.0000
  O   O6        1.0  0.18750  0.81290  0.72220  1.0000
  O   O7        1.0  0.68750  0.68710  0.27780  1.0000
  O   O8        1.0  0.81250  0.31290  0.77780  1.0000
  O   O9        1.0  0.01440  0.10050  0.18590  1.0000
  O   O10       1.0  0.48560  0.89950  0.68590  1.0000
  O   O11       1.0  0.98560  0.60050  0.31410  1.0000
  O   O12       1.0  0.51440  0.39950  0.81410  1.0000
  O   O13       1.0  0.87110  0.30020  0.17260  1.0000
  O   O14       1.0  0.62890  0.69980  0.67260  1.0000
  O   O15       1.0  0.12890  0.80020  0.32740  1.0000
  O   O16       1.0  0.37110  0.19980  0.82740  1.0000
  O   O17       1.0  0.18340  0.10460  0.42690  1.0000
  O   O18       1.0  0.31660  0.89540  0.92690  1.0000
  O   O19       1.0  0.81660  0.60460  0.07310  1.0000
  O   O20       1.0  0.68340  0.39540  0.57310  1.0000
  O   O21       1.0  0.24380  0.11240  0.61630  1.0000
  O   O22       1.0  0.25620  0.88760  0.11630  1.0000
  O   O23       1.0  0.75620  0.61240  0.88370  1.0000
  O   O24       1.0  0.74380  0.38760  0.38370  1.0000
  C   C1        1.0  0.42450  0.17160  0.26750  1.0000
  C   C2        1.0  0.07550  0.82840  0.76750  1.0000
  C   C3        1.0  0.57550  0.67160  0.23250  1.0000
  C   C4        1.0  0.92450  0.32840  0.73250  1.0000
  H   H1        1.0  0.48480  0.25440  0.25490  1.0000
  H   H2        1.0  0.01520  0.74560  0.75490  1.0000
  H   H3        1.0  0.51520  0.75440  0.24510  1.0000
  H   H4        1.0  0.98480  0.24560  0.74510  1.0000
  C   C5        1.0  0.96900  0.23230  0.21720  1.0000
  C   C6        1.0  0.53100  0.76770  0.71720  1.0000
  C   C7        1.0  0.03100  0.73230  0.28280  1.0000
  C   C8        1.0  0.46900  0.26770  0.78280  1.0000
  H   H5        1.0  0.01170  0.28540  0.27940  1.0000
  H   H6        1.0  0.48830  0.71460  0.77940  1.0000
  H   H7        1.0  0.98830  0.78540  0.22060  1.0000
  H   H8        1.0  0.51170  0.21460  0.72060  1.0000
  C   C9        1.0  0.23130  0.04070  0.51850  1.0000
  C   C10       1.0  0.26870  0.95930  0.01850  1.0000
  C   C11       1.0  0.76870  0.54070  0.98150  1.0000
  C   C12       1.0  0.73130  0.45930  0.48150  1.0000
  H   H9        1.0  0.25910  0.93400  0.51370  1.0000
  H   H10       1.0  0.24090  0.06600  0.01370  1.0000
  H   H11       1.0  0.74090  0.43400  0.98630  1.0000
  H   H12       1.0  0.75910  0.56600  0.48630  1.0000
