data_image0
_chemical_formula_structural       Cu4O24C4H4C4H4C4H4
_chemical_formula_sum              "Cu4 O24 C12 H12"
_cell_length_a       10.0729
_cell_length_b       8.2789
_cell_length_c       11.1535
_cell_angle_alpha    90
_cell_angle_beta     90
_cell_angle_gamma    90

_space_group_name_H-M_alt    "P 1"
_space_group_IT_number       1

loop_
  _space_group_symop_operation_xyz
  'x, y, z'

loop_
  _atom_site_type_symbol
  _atom_site_label
  _atom_site_symmetry_multiplicity
  _atom_site_fract_x
  _atom_site_fract_y
  _atom_site_fract_z
  _atom_site_occupancy
  Cu  Cu1       1.0  0.20435  0.00050  0.26715  1.0000
  Cu  Cu2       1.0  0.29565  0.99950  0.76715  1.0000
  Cu  Cu3       1.0  0.79565  0.50050  0.23285  1.0000
  Cu  Cu4       1.0  0.70435  0.49950  0.73285  1.0000
  O   O1        1.0  0.46170  0.05300  0.32900  1.0000
  O   O2        1.0  0.03830  0.94700  0.82900  1.0000
  O   O3        1.0  0.53830  0.55300  0.17100  1.0000
  O   O4        1.0  0.96170  0.44700  0.67100  1.0000
  O   O5        1.0  0.31240  0.18740  0.22230  1.0000
  O   O6        1.0  0.18760  0.81260  0.72230  1.0000
  O   O7        1.0  0.68760  0.68740  0.27770  1.0000
  O   O8        1.0  0.81240  0.31260  0.77770  1.0000
  O   O9        1.0  0.01440  0.09860  0.18580  1.0000
  O   O10       1.0  0.48560  0.90140  0.68580  1.0000
  O   O11       1.0  0.98560  0.59860  0.31420  1.0000
  O   O12       1.0  0.51440  0.40140  0.81420  1.0000
  O   O13       1.0  0.87140  0.30030  0.17030  1.0000
  O   O14       1.0  0.62860  0.69970  0.67030  1.0000
  O   O15       1.0  0.12860  0.80030  0.32970  1.0000
  O   O16       1.0  0.37140  0.19970  0.82970  1.0000
  O   O17       1.0  0.18320  0.10610  0.42762  1.0000
  O   O18       1.0  0.31680  0.89390  0.92762  1.0000
  O   O19       1.0  0.81680  0.60610  0.07238  1.0000
  O   O20       1.0  0.68320  0.39390  0.57238  1.0000
  O   O21       1.0  0.24380  0.11400  0.61780  1.0000
  O   O22       1.0  0.25620  0.88600  0.11780  1.0000
  O   O23       1.0  0.75620  0.61400  0.88220  1.0000
  O   O24       1.0  0.74380  0.38600  0.38220  1.0000
  C   C1        1.0  0.42530  0.17170  0.26860  1.0000
  C   C2        1.0  0.07470  0.82830  0.76860  1.0000
  C   C3        1.0  0.57470  0.67170  0.23140  1.0000
  C   C4        1.0  0.92530  0.32830  0.73140  1.0000
  H   H1        1.0  0.48750  0.25650  0.25660  1.0000
  H   H2        1.0  0.01250  0.74350  0.75660  1.0000
  H   H3        1.0  0.51250  0.75650  0.24340  1.0000
  H   H4        1.0  0.98750  0.24350  0.74340  1.0000
  C   C5        1.0  0.96920  0.23140  0.21740  1.0000
  C   C6        1.0  0.53080  0.76860  0.71740  1.0000
  C   C7        1.0  0.03080  0.73140  0.28260  1.0000
  C   C8        1.0  0.46920  0.26860  0.78260  1.0000
  H   H5        1.0  0.01200  0.28490  0.28210  1.0000
  H   H6        1.0  0.48800  0.71510  0.78210  1.0000
  H   H7        1.0  0.98800  0.78490  0.21790  1.0000
  H   H8        1.0  0.51200  0.21510  0.71790  1.0000
  C   C9        1.0  0.23130  0.04090  0.51980  1.0000
  C   C10       1.0  0.26870  0.95910  0.01980  1.0000
  C   C11       1.0  0.76870  0.54090  0.98020  1.0000
  C   C12       1.0  0.73130  0.45910  0.48020  1.0000
  H   H9        1.0  0.25930  0.93150  0.51510  1.0000
  H   H10       1.0  0.24070  0.06850  0.01510  1.0000
  H   H11       1.0  0.74070  0.43150  0.98490  1.0000
  H   H12       1.0  0.75930  0.56850  0.48490  1.0000
