data_image0
_chemical_formula_structural       Co4O24C12H12
_chemical_formula_sum              "Co4 O24 C12 H12"
_cell_length_a       8.2548
_cell_length_b       11.6547
_cell_length_c       8.1521
_cell_angle_alpha    90
_cell_angle_beta     90
_cell_angle_gamma    90

_space_group_name_H-M_alt    "P 1"
_space_group_IT_number       1

loop_
  _space_group_symop_operation_xyz
  'x, y, z'

loop_
  _atom_site_type_symbol
  _atom_site_label
  _atom_site_symmetry_multiplicity
  _atom_site_fract_x
  _atom_site_fract_y
  _atom_site_fract_z
  _atom_site_occupancy
  Co  Co1       1.0  0.50000  0.00000  0.00000  1.0000
  Co  Co2       1.0  0.00000  0.00000  0.50000  1.0000
  Co  Co3       1.0  0.50000  0.50000  0.00000  1.0000
  Co  Co4       1.0  0.00000  0.50000  0.50000  1.0000
  O   O1        1.0  0.59576  0.92902  0.78595  1.0000
  O   O2        1.0  0.90424  0.07098  0.28595  1.0000
  O   O3        1.0  0.40424  0.42902  0.21405  1.0000
  O   O4        1.0  0.09576  0.57098  0.71405  1.0000
  O   O5        1.0  0.40424  0.07098  0.21405  1.0000
  O   O6        1.0  0.09576  0.92902  0.71405  1.0000
  O   O7        1.0  0.59576  0.57098  0.78595  1.0000
  O   O8        1.0  0.90424  0.42902  0.28595  1.0000
  O   O9        1.0  0.77279  0.94000  0.58158  1.0000
  O   O10       1.0  0.72721  0.06000  0.08158  1.0000
  O   O11       1.0  0.22721  0.44000  0.41842  1.0000
  O   O12       1.0  0.27279  0.56000  0.91842  1.0000
  O   O13       1.0  0.22721  0.06000  0.41842  1.0000
  O   O14       1.0  0.27279  0.94000  0.91842  1.0000
  O   O15       1.0  0.77279  0.56000  0.58158  1.0000
  O   O16       1.0  0.72721  0.44000  0.08158  1.0000
  O   O17       1.0  0.47473  0.15470  0.87202  1.0000
  O   O18       1.0  0.02527  0.84530  0.37202  1.0000
  O   O19       1.0  0.52527  0.65470  0.12798  1.0000
  O   O20       1.0  0.97473  0.34530  0.62798  1.0000
  O   O21       1.0  0.52527  0.84530  0.12798  1.0000
  O   O22       1.0  0.97473  0.15470  0.62798  1.0000
  O   O23       1.0  0.47473  0.34530  0.87202  1.0000
  O   O24       1.0  0.02527  0.65470  0.37202  1.0000
  C   C1        1.0  0.71957  0.97027  0.72070  1.0000
  C   C2        1.0  0.78043  0.02973  0.22070  1.0000
  C   C3        1.0  0.28043  0.47027  0.27930  1.0000
  C   C4        1.0  0.21957  0.52973  0.77930  1.0000
  C   C5        1.0  0.28043  0.02973  0.27930  1.0000
  C   C6        1.0  0.21957  0.97027  0.77930  1.0000
  C   C7        1.0  0.71957  0.52973  0.72070  1.0000
  C   C8        1.0  0.78043  0.47027  0.22070  1.0000
  C   C9        1.0  0.49020  0.25000  0.94330  1.0000
  C   C10       1.0  0.00980  0.75000  0.44330  1.0000
  C   C11       1.0  0.50980  0.75000  0.05670  1.0000
  C   C12       1.0  0.99020  0.25000  0.55670  1.0000
  H   H1        1.0  0.78860  0.03480  0.78690  1.0000
  H   H2        1.0  0.71140  0.96520  0.28690  1.0000
  H   H3        1.0  0.21140  0.53480  0.21310  1.0000
  H   H4        1.0  0.28860  0.46520  0.71310  1.0000
  H   H5        1.0  0.21140  0.96520  0.21310  1.0000
  H   H6        1.0  0.28860  0.03480  0.71310  1.0000
  H   H7        1.0  0.78860  0.46520  0.78690  1.0000
  H   H8        1.0  0.71140  0.53480  0.28690  1.0000
  H   H9        1.0  0.51810  0.25000  0.07600  1.0000
  H   H10       1.0  0.98190  0.75000  0.57600  1.0000
  H   H11       1.0  0.48190  0.75000  0.92400  1.0000
  H   H12       1.0  0.01810  0.25000  0.42400  1.0000
