data_image0
_chemical_formula_structural       Co4O24C12H12
_chemical_formula_sum              "Co4 O24 C12 H12"
_cell_length_a       8.2556
_cell_length_b       11.6519
_cell_length_c       8.1508
_cell_angle_alpha    90
_cell_angle_beta     90
_cell_angle_gamma    90

_space_group_name_H-M_alt    "P 1"
_space_group_IT_number       1

loop_
  _space_group_symop_operation_xyz
  'x, y, z'

loop_
  _atom_site_type_symbol
  _atom_site_label
  _atom_site_symmetry_multiplicity
  _atom_site_fract_x
  _atom_site_fract_y
  _atom_site_fract_z
  _atom_site_occupancy
  Co  Co1       1.0  0.50000  0.00000  0.00000  1.0000
  Co  Co2       1.0  0.00000  0.00000  0.50000  1.0000
  Co  Co3       1.0  0.50000  0.50000  0.00000  1.0000
  Co  Co4       1.0  0.00000  0.50000  0.50000  1.0000
  O   O1        1.0  0.59580  0.92917  0.78587  1.0000
  O   O2        1.0  0.90420  0.07083  0.28587  1.0000
  O   O3        1.0  0.40420  0.42917  0.21413  1.0000
  O   O4        1.0  0.09580  0.57083  0.71413  1.0000
  O   O5        1.0  0.40420  0.07083  0.21413  1.0000
  O   O6        1.0  0.09580  0.92917  0.71413  1.0000
  O   O7        1.0  0.59580  0.57083  0.78587  1.0000
  O   O8        1.0  0.90420  0.42917  0.28587  1.0000
  O   O9        1.0  0.77265  0.94027  0.58154  1.0000
  O   O10       1.0  0.72735  0.05973  0.08154  1.0000
  O   O11       1.0  0.22735  0.44027  0.41846  1.0000
  O   O12       1.0  0.27265  0.55973  0.91846  1.0000
  O   O13       1.0  0.22735  0.05973  0.41846  1.0000
  O   O14       1.0  0.27265  0.94027  0.91846  1.0000
  O   O15       1.0  0.77265  0.55973  0.58154  1.0000
  O   O16       1.0  0.72735  0.44027  0.08154  1.0000
  O   O17       1.0  0.47451  0.15486  0.87207  1.0000
  O   O18       1.0  0.02549  0.84514  0.37207  1.0000
  O   O19       1.0  0.52549  0.65486  0.12793  1.0000
  O   O20       1.0  0.97451  0.34514  0.62793  1.0000
  O   O21       1.0  0.52549  0.84514  0.12793  1.0000
  O   O22       1.0  0.97451  0.15486  0.62793  1.0000
  O   O23       1.0  0.47451  0.34514  0.87207  1.0000
  O   O24       1.0  0.02549  0.65486  0.37207  1.0000
  C   C1        1.0  0.71984  0.97027  0.72036  1.0000
  C   C2        1.0  0.78016  0.02973  0.22036  1.0000
  C   C3        1.0  0.28016  0.47027  0.27964  1.0000
  C   C4        1.0  0.21984  0.52973  0.77964  1.0000
  C   C5        1.0  0.28016  0.02973  0.27964  1.0000
  C   C6        1.0  0.21984  0.97027  0.77964  1.0000
  C   C7        1.0  0.71984  0.52973  0.72036  1.0000
  C   C8        1.0  0.78016  0.47027  0.22036  1.0000
  C   C9        1.0  0.49064  0.25000  0.94306  1.0000
  C   C10       1.0  0.00936  0.75000  0.44306  1.0000
  C   C11       1.0  0.50936  0.75000  0.05694  1.0000
  C   C12       1.0  0.99064  0.25000  0.55694  1.0000
  H   H1        1.0  0.78840  0.03420  0.78740  1.0000
  H   H2        1.0  0.71160  0.96580  0.28740  1.0000
  H   H3        1.0  0.21160  0.53420  0.21260  1.0000
  H   H4        1.0  0.28840  0.46580  0.71260  1.0000
  H   H5        1.0  0.21160  0.96580  0.21260  1.0000
  H   H6        1.0  0.28840  0.03420  0.71260  1.0000
  H   H7        1.0  0.78840  0.46580  0.78740  1.0000
  H   H8        1.0  0.71160  0.53420  0.28740  1.0000
  H   H9        1.0  0.51920  0.25000  0.07480  1.0000
  H   H10       1.0  0.98080  0.75000  0.57480  1.0000
  H   H11       1.0  0.48080  0.75000  0.92520  1.0000
  H   H12       1.0  0.01920  0.25000  0.42520  1.0000
