data_image0
_chemical_formula_structural       Co4O24C8H8C4H4
_chemical_formula_sum              "Co4 O24 C12 H12"
_cell_length_a       8.3039
_cell_length_b       11.6806
_cell_length_c       8.1427
_cell_angle_alpha    90
_cell_angle_beta     90
_cell_angle_gamma    90

_space_group_name_H-M_alt    "P 1"
_space_group_IT_number       1

loop_
  _space_group_symop_operation_xyz
  'x, y, z'

loop_
  _atom_site_type_symbol
  _atom_site_label
  _atom_site_symmetry_multiplicity
  _atom_site_fract_x
  _atom_site_fract_y
  _atom_site_fract_z
  _atom_site_occupancy
  Co  Co1       1.0  0.00000  0.50000  0.00000  1.0000
  Co  Co2       1.0  0.50000  0.50000  0.50000  1.0000
  Co  Co3       1.0  0.00000  0.00000  0.00000  1.0000
  Co  Co4       1.0  0.50000  0.00000  0.50000  1.0000
  O   O1        1.0  0.09669  0.56978  0.21474  1.0000
  O   O2        1.0  0.40331  0.43022  0.71474  1.0000
  O   O3        1.0  0.90331  0.06978  0.78526  1.0000
  O   O4        1.0  0.59669  0.93022  0.28526  1.0000
  O   O5        1.0  0.90331  0.43022  0.78526  1.0000
  O   O6        1.0  0.59669  0.56978  0.28526  1.0000
  O   O7        1.0  0.09669  0.93022  0.21474  1.0000
  O   O8        1.0  0.40331  0.06978  0.71474  1.0000
  O   O9        1.0  0.27385  0.55998  0.41801  1.0000
  O   O10       1.0  0.22615  0.44002  0.91801  1.0000
  O   O11       1.0  0.72615  0.05998  0.58199  1.0000
  O   O12       1.0  0.77385  0.94002  0.08199  1.0000
  O   O13       1.0  0.72615  0.44002  0.58199  1.0000
  O   O14       1.0  0.77385  0.55998  0.08199  1.0000
  O   O15       1.0  0.27385  0.94002  0.41801  1.0000
  O   O16       1.0  0.22615  0.05998  0.91801  1.0000
  O   O17       1.0  0.97370  0.34469  0.12704  1.0000
  O   O18       1.0  0.52630  0.65531  0.62704  1.0000
  O   O19       1.0  0.02630  0.84469  0.87296  1.0000
  O   O20       1.0  0.47370  0.15531  0.37296  1.0000
  O   O21       1.0  0.02630  0.65531  0.87296  1.0000
  O   O22       1.0  0.47370  0.34469  0.37296  1.0000
  O   O23       1.0  0.97370  0.15531  0.12704  1.0000
  O   O24       1.0  0.52630  0.84469  0.62704  1.0000
  C   C1        1.0  0.22007  0.52976  0.27956  1.0000
  C   C2        1.0  0.27993  0.47024  0.77956  1.0000
  C   C3        1.0  0.77993  0.02976  0.72044  1.0000
  C   C4        1.0  0.72007  0.97024  0.22044  1.0000
  C   C5        1.0  0.77993  0.47024  0.72044  1.0000
  C   C6        1.0  0.72007  0.52976  0.22044  1.0000
  C   C7        1.0  0.22007  0.97024  0.27956  1.0000
  C   C8        1.0  0.27993  0.02976  0.77956  1.0000
  H   H1        1.0  0.27770  0.47260  0.22100  1.0000
  H   H2        1.0  0.22230  0.52740  0.72100  1.0000
  H   H3        1.0  0.72230  0.97260  0.77900  1.0000
  H   H4        1.0  0.77770  0.02740  0.27900  1.0000
  H   H5        1.0  0.72230  0.52740  0.77900  1.0000
  H   H6        1.0  0.77770  0.47260  0.27900  1.0000
  H   H7        1.0  0.27770  0.02740  0.22100  1.0000
  H   H8        1.0  0.22230  0.97260  0.72100  1.0000
  C   C9        1.0  0.98953  0.25000  0.05650  1.0000
  C   C10       1.0  0.51047  0.75000  0.55650  1.0000
  C   C11       1.0  0.01047  0.75000  0.94350  1.0000
  C   C12       1.0  0.48953  0.25000  0.44350  1.0000
  H   H9        1.0  0.01510  0.25000  0.94280  1.0000
  H   H10       1.0  0.48490  0.75000  0.44280  1.0000
  H   H11       1.0  0.98490  0.75000  0.05720  1.0000
  H   H12       1.0  0.51510  0.25000  0.55720  1.0000
