data_image0
_chemical_formula_structural       C8H8C4H4Co4O24
_chemical_formula_sum              "C12 H12 Co4 O24"
_cell_length_a       8.4077
_cell_length_b       11.7215
_cell_length_c       8.1109
_cell_angle_alpha    90
_cell_angle_beta     90
_cell_angle_gamma    90

_space_group_name_H-M_alt    "P 1"
_space_group_IT_number       1

loop_
  _space_group_symop_operation_xyz
  'x, y, z'

loop_
  _atom_site_type_symbol
  _atom_site_label
  _atom_site_symmetry_multiplicity
  _atom_site_fract_x
  _atom_site_fract_y
  _atom_site_fract_z
  _atom_site_occupancy
  C   C1        1.0  0.72083  0.97082  0.28012  1.0000
  C   C2        1.0  0.77917  0.02918  0.78012  1.0000
  C   C3        1.0  0.22083  0.52918  0.21988  1.0000
  C   C4        1.0  0.27917  0.47082  0.71988  1.0000
  C   C5        1.0  0.27917  0.02918  0.71988  1.0000
  C   C6        1.0  0.22083  0.97082  0.21988  1.0000
  C   C7        1.0  0.77917  0.47082  0.78012  1.0000
  C   C8        1.0  0.72083  0.52918  0.28012  1.0000
  H   H1        1.0  0.77590  0.02700  0.22270  1.0000
  H   H2        1.0  0.72410  0.97300  0.72270  1.0000
  H   H3        1.0  0.27590  0.47300  0.27730  1.0000
  H   H4        1.0  0.22410  0.52700  0.77730  1.0000
  H   H5        1.0  0.22410  0.97300  0.77730  1.0000
  H   H6        1.0  0.27590  0.02700  0.27730  1.0000
  H   H7        1.0  0.72410  0.52700  0.72270  1.0000
  H   H8        1.0  0.77590  0.47300  0.22270  1.0000
  C   C9        1.0  0.48792  0.25000  0.05558  1.0000
  C   C10       1.0  0.01208  0.75000  0.55558  1.0000
  C   C11       1.0  0.98792  0.25000  0.44442  1.0000
  C   C12       1.0  0.51208  0.75000  0.94442  1.0000
  H   H9        1.0  0.51330  0.25000  0.94400  1.0000
  H   H10       1.0  0.98670  0.75000  0.44400  1.0000
  H   H11       1.0  0.01330  0.25000  0.55600  1.0000
  H   H12       1.0  0.48670  0.75000  0.05600  1.0000
  Co  Co1       1.0  0.50000  0.00000  0.00000  1.0000
  Co  Co2       1.0  0.00000  0.00000  0.50000  1.0000
  Co  Co3       1.0  0.00000  0.50000  0.50000  1.0000
  Co  Co4       1.0  0.50000  0.50000  0.00000  1.0000
  O   O1        1.0  0.59751  0.93216  0.21627  1.0000
  O   O2        1.0  0.90249  0.06784  0.71627  1.0000
  O   O3        1.0  0.09751  0.56784  0.28373  1.0000
  O   O4        1.0  0.40249  0.43216  0.78373  1.0000
  O   O5        1.0  0.40249  0.06784  0.78373  1.0000
  O   O6        1.0  0.09751  0.93216  0.28373  1.0000
  O   O7        1.0  0.90249  0.43216  0.71627  1.0000
  O   O8        1.0  0.59751  0.56784  0.21627  1.0000
  O   O9        1.0  0.77647  0.93934  0.41703  1.0000
  O   O10       1.0  0.72353  0.06066  0.91703  1.0000
  O   O11       1.0  0.27647  0.56066  0.08297  1.0000
  O   O12       1.0  0.22353  0.43934  0.58297  1.0000
  O   O13       1.0  0.22353  0.06066  0.58297  1.0000
  O   O14       1.0  0.27647  0.93934  0.08297  1.0000
  O   O15       1.0  0.72353  0.43934  0.91703  1.0000
  O   O16       1.0  0.77647  0.56066  0.41703  1.0000
  O   O17       1.0  0.47190  0.15580  0.12585  1.0000
  O   O18       1.0  0.02810  0.84420  0.62585  1.0000
  O   O19       1.0  0.97190  0.34420  0.37415  1.0000
  O   O20       1.0  0.52810  0.65580  0.87415  1.0000
  O   O21       1.0  0.52810  0.84420  0.87415  1.0000
  O   O22       1.0  0.97190  0.15580  0.37415  1.0000
  O   O23       1.0  0.02810  0.65580  0.62585  1.0000
  O   O24       1.0  0.47190  0.34420  0.12585  1.0000
