data_image0
_chemical_formula_structural       Co2O12C12O4H4O4H4O4H4Co2
_chemical_formula_sum              "Co4 O24 C12 H12"
_cell_length_a       8.1621
_cell_length_b       8.2487
_cell_length_c       11.6584
_cell_angle_alpha    90
_cell_angle_beta     91.891
_cell_angle_gamma    90

_space_group_name_H-M_alt    "P 1"
_space_group_IT_number       1

loop_
  _space_group_symop_operation_xyz
  'x, y, z'

loop_
  _atom_site_type_symbol
  _atom_site_label
  _atom_site_symmetry_multiplicity
  _atom_site_fract_x
  _atom_site_fract_y
  _atom_site_fract_z
  _atom_site_occupancy
  Co  Co1       1.0  0.00000  0.50000  0.00000  1.0000
  Co  Co2       1.0  0.50000  0.00000  0.50000  1.0000
  O   O1        1.0  0.21430  0.40160  0.07420  1.0000
  O   O2        1.0  0.28570  0.90160  0.42580  1.0000
  O   O3        1.0  0.78570  0.59840  0.92580  1.0000
  O   O4        1.0  0.71430  0.09840  0.57420  1.0000
  O   O5        1.0  0.91640  0.27350  0.94140  1.0000
  O   O6        1.0  0.58360  0.77350  0.55860  1.0000
  O   O7        1.0  0.08360  0.72650  0.05860  1.0000
  O   O8        1.0  0.41640  0.22650  0.44140  1.0000
  O   O9        1.0  0.12710  0.52180  0.84740  1.0000
  O   O10       1.0  0.37290  0.02180  0.65260  1.0000
  O   O11       1.0  0.87290  0.47820  0.15260  1.0000
  O   O12       1.0  0.62710  0.97820  0.34740  1.0000
  C   C1        1.0  0.28110  0.28100  0.03110  1.0000
  C   C2        1.0  0.21890  0.78100  0.46890  1.0000
  C   C3        1.0  0.71890  0.71900  0.96890  1.0000
  C   C4        1.0  0.78110  0.21900  0.53110  1.0000
  C   C5        1.0  0.77830  0.22060  0.97120  1.0000
  C   C6        1.0  0.72170  0.72060  0.52880  1.0000
  C   C7        1.0  0.22170  0.77940  0.02880  1.0000
  C   C8        1.0  0.27830  0.27940  0.47120  1.0000
  C   C9        1.0  0.05730  0.51040  0.75110  1.0000
  C   C10       1.0  0.44270  0.01040  0.74890  1.0000
  C   C11       1.0  0.94270  0.48960  0.24890  1.0000
  C   C12       1.0  0.55730  0.98960  0.25110  1.0000
  O   O13       1.0  0.42030  0.22820  0.06080  1.0000
  O   O14       1.0  0.07970  0.72820  0.43920  1.0000
  O   O15       1.0  0.57970  0.77180  0.93920  1.0000
  O   O16       1.0  0.92030  0.27180  0.56080  1.0000
  H   H1        1.0  0.21560  0.21220  0.96450  1.0000
  H   H2        1.0  0.28440  0.71220  0.53550  1.0000
  H   H3        1.0  0.78440  0.78780  0.03550  1.0000
  H   H4        1.0  0.71560  0.28780  0.46450  1.0000
  O   O17       1.0  0.71380  0.09300  0.93270  1.0000
  O   O18       1.0  0.78620  0.59300  0.56730  1.0000
  O   O19       1.0  0.28620  0.90700  0.06730  1.0000
  O   O20       1.0  0.21380  0.40700  0.43270  1.0000
  H   H5        1.0  0.71090  0.29130  0.03290  1.0000
  H   H6        1.0  0.78910  0.79130  0.46710  1.0000
  H   H7        1.0  0.28910  0.70870  0.96710  1.0000
  H   H8        1.0  0.21090  0.20870  0.53290  1.0000
  O   O21       1.0  0.12970  0.52820  0.65750  1.0000
  O   O22       1.0  0.37030  0.02820  0.84250  1.0000
  O   O23       1.0  0.87030  0.47180  0.34250  1.0000
  O   O24       1.0  0.62970  0.97180  0.15750  1.0000
  H   H9        1.0  0.92470  0.48400  0.74650  1.0000
  H   H10       1.0  0.57530  0.98400  0.75350  1.0000
  H   H11       1.0  0.07530  0.51600  0.25350  1.0000
  H   H12       1.0  0.42470  0.01600  0.24650  1.0000
  Co  Co3       1.0  0.50000  0.00000  0.00000  1.0000
  Co  Co4       1.0  0.00000  0.50000  0.50000  1.0000
