data_image0
_chemical_formula_structural       Co2O4N12C8H8
_chemical_formula_sum              "Co2 O4 N12 C8 H8"
_cell_length_a       9.4739
_cell_length_b       11.3876
_cell_length_c       12.1778
_cell_angle_alpha    90
_cell_angle_beta     98.967
_cell_angle_gamma    90

_space_group_name_H-M_alt    "P 1"
_space_group_IT_number       1

loop_
  _space_group_symop_operation_xyz
  'x, y, z'

loop_
  _atom_site_type_symbol
  _atom_site_label
  _atom_site_symmetry_multiplicity
  _atom_site_fract_x
  _atom_site_fract_y
  _atom_site_fract_z
  _atom_site_occupancy
  Co  Co1       1.0  0.50000  0.00000  0.50000  1.0000
  Co  Co2       1.0  0.50000  0.50000  0.00000  1.0000
  O   O1        1.0  0.28000  0.03140  0.45926  1.0000
  O   O2        1.0  0.72000  0.53140  0.04074  1.0000
  O   O3        1.0  0.72000  0.96860  0.54074  1.0000
  O   O4        1.0  0.28000  0.46860  0.95926  1.0000
  N   N1        1.0  0.52720  0.16040  0.58520  1.0000
  N   N2        1.0  0.47280  0.66040  0.91480  1.0000
  N   N3        1.0  0.47280  0.83960  0.41480  1.0000
  N   N4        1.0  0.52720  0.33960  0.08520  1.0000
  N   N5        1.0  0.57480  0.35310  0.66820  1.0000
  N   N6        1.0  0.42520  0.85310  0.83180  1.0000
  N   N7        1.0  0.42520  0.64690  0.33180  1.0000
  N   N8        1.0  0.57480  0.14690  0.16820  1.0000
  N   N9        1.0  0.53630  0.42010  0.85150  1.0000
  N   N10       1.0  0.46370  0.92010  0.64850  1.0000
  N   N11       1.0  0.46370  0.57990  0.14850  1.0000
  N   N12       1.0  0.53630  0.07990  0.35150  1.0000
  C   C1        1.0  0.54680  0.24750  0.62950  1.0000
  C   C2        1.0  0.45320  0.74750  0.87050  1.0000
  C   C3        1.0  0.45320  0.75250  0.37050  1.0000
  C   C4        1.0  0.54680  0.25250  0.12950  1.0000
  C   C5        1.0  0.55170  0.38200  0.76790  1.0000
  C   C6        1.0  0.44830  0.88200  0.73210  1.0000
  C   C7        1.0  0.44830  0.61800  0.23210  1.0000
  C   C8        1.0  0.55170  0.11800  0.26790  1.0000
  H   H1        1.0  0.24400  0.02700  0.38190  1.0000
  H   H2        1.0  0.75600  0.52700  0.11810  1.0000
  H   H3        1.0  0.75600  0.97300  0.61810  1.0000
  H   H4        1.0  0.24400  0.47300  0.88190  1.0000
  H   H5        1.0  0.25300  0.10500  0.48500  1.0000
  H   H6        1.0  0.74700  0.60500  0.01500  1.0000
  H   H7        1.0  0.74700  0.89500  0.51500  1.0000
  H   H8        1.0  0.25300  0.39500  0.98500  1.0000
