data_image0
_chemical_formula_structural       Tb8O32C8H8O8H16O16C8O8C8H8C8H8O8C32N8C32H8C8H8C16H8C24H8C16H8C8H8
_chemical_formula_sum              "Tb8 O72 C168 H88 N8"
_cell_length_a       19.6084
_cell_length_b       11.9016
_cell_length_c       21.9364
_cell_angle_alpha    90
_cell_angle_beta     97.186
_cell_angle_gamma    90

_space_group_name_H-M_alt    "P 1"
_space_group_IT_number       1

loop_
  _space_group_symop_operation_xyz
  'x, y, z'

loop_
  _atom_site_type_symbol
  _atom_site_label
  _atom_site_symmetry_multiplicity
  _atom_site_fract_x
  _atom_site_fract_y
  _atom_site_fract_z
  _atom_site_occupancy
  Tb  Tb1       1.0  0.83076  0.33084  0.47426  1.0000
  Tb  Tb2       1.0  0.16924  0.33084  0.02574  1.0000
  Tb  Tb3       1.0  0.33076  0.83084  0.47426  1.0000
  Tb  Tb4       1.0  0.66924  0.83084  0.02574  1.0000
  Tb  Tb5       1.0  0.16924  0.66916  0.52574  1.0000
  Tb  Tb6       1.0  0.83076  0.66916  0.97426  1.0000
  Tb  Tb7       1.0  0.66924  0.16916  0.52574  1.0000
  Tb  Tb8       1.0  0.33076  0.16916  0.97426  1.0000
  O   O1        1.0  0.80021  0.15739  0.51471  1.0000
  O   O2        1.0  0.19979  0.15739  0.98529  1.0000
  O   O3        1.0  0.30021  0.65739  0.51471  1.0000
  O   O4        1.0  0.69979  0.65739  0.98529  1.0000
  O   O5        1.0  0.19979  0.84261  0.48529  1.0000
  O   O6        1.0  0.80021  0.84261  0.01471  1.0000
  O   O7        1.0  0.69979  0.34261  0.48529  1.0000
  O   O8        1.0  0.30021  0.34261  0.01471  1.0000
  O   O9        1.0  0.67796  0.13537  0.41949  1.0000
  O   O10       1.0  0.32204  0.13537  0.08051  1.0000
  O   O11       1.0  0.17796  0.63537  0.41949  1.0000
  O   O12       1.0  0.82204  0.63537  0.08051  1.0000
  O   O13       1.0  0.32204  0.86463  0.58051  1.0000
  O   O14       1.0  0.67796  0.86463  0.91949  1.0000
  O   O15       1.0  0.82204  0.36463  0.58051  1.0000
  O   O16       1.0  0.17796  0.36463  0.91949  1.0000
  O   O17       1.0  0.74268  0.00212  0.52434  1.0000
  O   O18       1.0  0.25732  0.00212  0.97566  1.0000
  O   O19       1.0  0.24268  0.50212  0.52434  1.0000
  O   O20       1.0  0.75732  0.50212  0.97566  1.0000
  O   O21       1.0  0.25732  0.99788  0.47566  1.0000
  O   O22       1.0  0.74268  0.99788  0.02434  1.0000
  O   O23       1.0  0.75732  0.49788  0.47566  1.0000
  O   O24       1.0  0.24268  0.49788  0.02434  1.0000
  O   O25       1.0  0.76697  0.23539  0.39205  1.0000
  O   O26       1.0  0.23303  0.23539  0.10795  1.0000
  O   O27       1.0  0.26697  0.73539  0.39205  1.0000
  O   O28       1.0  0.73303  0.73539  0.10795  1.0000
  O   O29       1.0  0.23303  0.76461  0.60795  1.0000
  O   O30       1.0  0.76697  0.76461  0.89205  1.0000
  O   O31       1.0  0.73303  0.26461  0.60795  1.0000
  O   O32       1.0  0.26697  0.26461  0.89205  1.0000
  C   C1        1.0  0.66408  0.17440  0.21109  1.0000
  C   C2        1.0  0.33592  0.17440  0.28891  1.0000
  C   C3        1.0  0.16408  0.67440  0.21109  1.0000
  C   C4        1.0  0.83592  0.67440  0.28891  1.0000
  C   C5        1.0  0.33592  0.82560  0.78891  1.0000
  C   C6        1.0  0.66408  0.82560  0.71109  1.0000
  C   C7        1.0  0.83592  0.32560  0.78891  1.0000
  C   C8        1.0  0.16408  0.32560  0.71109  1.0000
  H   H1        1.0  0.65050  0.22990  0.18080  1.0000
  H   H2        1.0  0.34950  0.22990  0.31920  1.0000
  H   H3        1.0  0.15050  0.72990  0.18080  1.0000
  H   H4        1.0  0.84950  0.72990  0.31920  1.0000
  H   H5        1.0  0.34950  0.77010  0.81920  1.0000
  H   H6        1.0  0.65050  0.77010  0.68080  1.0000
  H   H7        1.0  0.84950  0.27010  0.81920  1.0000
  H   H8        1.0  0.15050  0.27010  0.68080  1.0000
  O   O33       1.0  0.89518  0.50763  0.51326  1.0000
  O   O34       1.0  0.10482  0.50763  0.98674  1.0000
  O   O35       1.0  0.39518  0.00763  0.51326  1.0000
  O   O36       1.0  0.60482  0.00763  0.98674  1.0000
  O   O37       1.0  0.10482  0.49237  0.48674  1.0000
  O   O38       1.0  0.89518  0.49237  0.01326  1.0000
  O   O39       1.0  0.60482  0.99237  0.48674  1.0000
  O   O40       1.0  0.39518  0.99237  0.01326  1.0000
  H   H9        1.0  0.92920  0.49080  0.54130  1.0000
  H   H10       1.0  0.07080  0.49080  0.95870  1.0000
  H   H11       1.0  0.42920  0.99080  0.54130  1.0000
  H   H12       1.0  0.57080  0.99080  0.95870  1.0000
  H   H13       1.0  0.07080  0.50920  0.45870  1.0000
  H   H14       1.0  0.92920  0.50920  0.04130  1.0000
  H   H15       1.0  0.57080  0.00920  0.45870  1.0000
  H   H16       1.0  0.42920  0.00920  0.04130  1.0000
  H   H17       1.0  0.91180  0.54200  0.48320  1.0000
  H   H18       1.0  0.08820  0.54200  0.01680  1.0000
  H   H19       1.0  0.41180  0.04200  0.48320  1.0000
  H   H20       1.0  0.58820  0.04200  0.01680  1.0000
  H   H21       1.0  0.08820  0.45800  0.51680  1.0000
  H   H22       1.0  0.91180  0.45800  0.98320  1.0000
  H   H23       1.0  0.58820  0.95800  0.51680  1.0000
  H   H24       1.0  0.41180  0.95800  0.98320  1.0000
  O   O41       1.0  0.05228  0.71996  0.47769  1.0000
  O   O42       1.0  0.94772  0.71996  0.02231  1.0000
  O   O43       1.0  0.55228  0.21996  0.47769  1.0000
  O   O44       1.0  0.44772  0.21996  0.02231  1.0000
  O   O45       1.0  0.94772  0.28004  0.52231  1.0000
  O   O46       1.0  0.05228  0.28004  0.97769  1.0000
  O   O47       1.0  0.44772  0.78004  0.52231  1.0000
  O   O48       1.0  0.55228  0.78004  0.97769  1.0000
  O   O49       1.0  0.08600  0.78222  0.57034  1.0000
  O   O50       1.0  0.91400  0.78222  0.92966  1.0000
  O   O51       1.0  0.58600  0.28222  0.57034  1.0000
  O   O52       1.0  0.41400  0.28222  0.92966  1.0000
  O   O53       1.0  0.91400  0.21778  0.42966  1.0000
  O   O54       1.0  0.08600  0.21778  0.07034  1.0000
  O   O55       1.0  0.41400  0.71778  0.42966  1.0000
  O   O56       1.0  0.58600  0.71778  0.07034  1.0000
  C   C9        1.0  0.71848  0.16747  0.38192  1.0000
  C   C10       1.0  0.28152  0.16747  0.11808  1.0000
  C   C11       1.0  0.21848  0.66747  0.38192  1.0000
  C   C12       1.0  0.78152  0.66747  0.11808  1.0000
  C   C13       1.0  0.28152  0.83253  0.61808  1.0000
  C   C14       1.0  0.71848  0.83253  0.88192  1.0000
  C   C15       1.0  0.78152  0.33253  0.61808  1.0000
  C   C16       1.0  0.21848  0.33253  0.88192  1.0000
  O   O57       1.0  0.59540  0.09071  0.09798  1.0000
  O   O58       1.0  0.40460  0.09071  0.40202  1.0000
  O   O59       1.0  0.09540  0.59071  0.09798  1.0000
  O   O60       1.0  0.90460  0.59071  0.40202  1.0000
  O   O61       1.0  0.40460  0.90929  0.90202  1.0000
  O   O62       1.0  0.59540  0.90929  0.59798  1.0000
  O   O63       1.0  0.90460  0.40929  0.90202  1.0000
  O   O64       1.0  0.09540  0.40929  0.59798  1.0000
  C   C17       1.0  0.68855  0.81718  0.34566  1.0000
  C   C18       1.0  0.31145  0.81718  0.15434  1.0000
  C   C19       1.0  0.18855  0.31718  0.34566  1.0000
  C   C20       1.0  0.81145  0.31718  0.15434  1.0000
  C   C21       1.0  0.31145  0.18282  0.65434  1.0000
  C   C22       1.0  0.68855  0.18282  0.84566  1.0000
  C   C23       1.0  0.81145  0.68282  0.65434  1.0000
  C   C24       1.0  0.18855  0.68282  0.84566  1.0000
  H   H25       1.0  0.64930  0.80380  0.31660  1.0000
  H   H26       1.0  0.35070  0.80380  0.18340  1.0000
  H   H27       1.0  0.14930  0.30380  0.31660  1.0000
  H   H28       1.0  0.85070  0.30380  0.18340  1.0000
  H   H29       1.0  0.35070  0.19620  0.68340  1.0000
  H   H30       1.0  0.64930  0.19620  0.81660  1.0000
  H   H31       1.0  0.85070  0.69620  0.68340  1.0000
  H   H32       1.0  0.14930  0.69620  0.81660  1.0000
  C   C25       1.0  0.92061  0.82400  0.47762  1.0000
  C   C26       1.0  0.07939  0.82400  0.02238  1.0000
  C   C27       1.0  0.42061  0.32400  0.47762  1.0000
  C   C28       1.0  0.57939  0.32400  0.02238  1.0000
  C   C29       1.0  0.07939  0.17600  0.52238  1.0000
  C   C30       1.0  0.92061  0.17600  0.97762  1.0000
  C   C31       1.0  0.57939  0.67600  0.52238  1.0000
  C   C32       1.0  0.42061  0.67600  0.97762  1.0000
  H   H33       1.0  0.92250  0.76360  0.44960  1.0000
  H   H34       1.0  0.07750  0.76360  0.05040  1.0000
  H   H35       1.0  0.42250  0.26360  0.44960  1.0000
  H   H36       1.0  0.57750  0.26360  0.05040  1.0000
  H   H37       1.0  0.07750  0.23640  0.55040  1.0000
  H   H38       1.0  0.92250  0.23640  0.94960  1.0000
  H   H39       1.0  0.57750  0.73640  0.55040  1.0000
  H   H40       1.0  0.42250  0.73640  0.94960  1.0000
  O   O65       1.0  0.65282  0.92960  0.11425  1.0000
  O   O66       1.0  0.34718  0.92960  0.38575  1.0000
  O   O67       1.0  0.15282  0.42960  0.11425  1.0000
  O   O68       1.0  0.84718  0.42960  0.38575  1.0000
  O   O69       1.0  0.34718  0.07040  0.88575  1.0000
  O   O70       1.0  0.65282  0.07040  0.61425  1.0000
  O   O71       1.0  0.84718  0.57040  0.88575  1.0000
  O   O72       1.0  0.15282  0.57040  0.61425  1.0000
  C   C33       1.0  0.80073  0.86360  0.42918  1.0000
  C   C34       1.0  0.19927  0.86360  0.07082  1.0000
  C   C35       1.0  0.30073  0.36360  0.42918  1.0000
  C   C36       1.0  0.69927  0.36360  0.07082  1.0000
  C   C37       1.0  0.19927  0.13640  0.57082  1.0000
  C   C38       1.0  0.80073  0.13640  0.92918  1.0000
  C   C39       1.0  0.69927  0.63640  0.57082  1.0000
  C   C40       1.0  0.30073  0.63640  0.92918  1.0000
  C   C41       1.0  0.70080  0.01090  0.30168  1.0000
  C   C42       1.0  0.29920  0.01090  0.19832  1.0000
  C   C43       1.0  0.20080  0.51090  0.30168  1.0000
  C   C44       1.0  0.79920  0.51090  0.19832  1.0000
  C   C45       1.0  0.29920  0.98910  0.69832  1.0000
  C   C46       1.0  0.70080  0.98910  0.80168  1.0000
  C   C47       1.0  0.79920  0.48910  0.69832  1.0000
  C   C48       1.0  0.20080  0.48910  0.80168  1.0000
  C   C49       1.0  0.70320  0.12530  0.31697  1.0000
  C   C50       1.0  0.29680  0.12530  0.18303  1.0000
  C   C51       1.0  0.20320  0.62530  0.31697  1.0000
  C   C52       1.0  0.79680  0.62530  0.18303  1.0000
  C   C53       1.0  0.29680  0.87470  0.68303  1.0000
  C   C54       1.0  0.70320  0.87470  0.81697  1.0000
  C   C55       1.0  0.79680  0.37470  0.68303  1.0000
  C   C56       1.0  0.20320  0.37470  0.81697  1.0000
  C   C57       1.0  0.97711  0.84650  0.52218  1.0000
  C   C58       1.0  0.02289  0.84650  0.97782  1.0000
  C   C59       1.0  0.47711  0.34650  0.52218  1.0000
  C   C60       1.0  0.52289  0.34650  0.97782  1.0000
  C   C61       1.0  0.02289  0.15350  0.47782  1.0000
  C   C62       1.0  0.97711  0.15350  0.02218  1.0000
  C   C63       1.0  0.52289  0.65350  0.47782  1.0000
  C   C64       1.0  0.47711  0.65350  0.02218  1.0000
  N   N1        1.0  0.77696  0.94510  0.38954  1.0000
  N   N2        1.0  0.22304  0.94510  0.11046  1.0000
  N   N3        1.0  0.27696  0.44510  0.38954  1.0000
  N   N4        1.0  0.72304  0.44510  0.11046  1.0000
  N   N5        1.0  0.22304  0.05490  0.61046  1.0000
  N   N6        1.0  0.77696  0.05490  0.88954  1.0000
  N   N7        1.0  0.72304  0.55490  0.61046  1.0000
  N   N8        1.0  0.27696  0.55490  0.88954  1.0000
  C   C65       1.0  0.86133  0.98240  0.51470  1.0000
  C   C66       1.0  0.13867  0.98240  0.98530  1.0000
  C   C67       1.0  0.36133  0.48240  0.51470  1.0000
  C   C68       1.0  0.63867  0.48240  0.98530  1.0000
  C   C69       1.0  0.13867  0.01760  0.48530  1.0000
  C   C70       1.0  0.86133  0.01760  0.01470  1.0000
  C   C71       1.0  0.63867  0.51760  0.48530  1.0000
  C   C72       1.0  0.36133  0.51760  0.01470  1.0000
  C   C73       1.0  0.72289  0.92210  0.34791  1.0000
  C   C74       1.0  0.27711  0.92210  0.15209  1.0000
  C   C75       1.0  0.22289  0.42210  0.34791  1.0000
  C   C76       1.0  0.77711  0.42210  0.15209  1.0000
  C   C77       1.0  0.27711  0.07790  0.65209  1.0000
  C   C78       1.0  0.72289  0.07790  0.84791  1.0000
  C   C79       1.0  0.77711  0.57790  0.65209  1.0000
  C   C80       1.0  0.22289  0.57790  0.84791  1.0000
  C   C81       1.0  0.04178  0.77790  0.52357  1.0000
  C   C82       1.0  0.95822  0.77790  0.97643  1.0000
  C   C83       1.0  0.54178  0.27790  0.52357  1.0000
  C   C84       1.0  0.45822  0.27790  0.97643  1.0000
  C   C85       1.0  0.95822  0.22210  0.47643  1.0000
  C   C86       1.0  0.04178  0.22210  0.02357  1.0000
  C   C87       1.0  0.45822  0.72210  0.47643  1.0000
  C   C88       1.0  0.54178  0.72210  0.02357  1.0000
  C   C89       1.0  0.91787  0.00450  0.55822  1.0000
  C   C90       1.0  0.08213  0.00450  0.94178  1.0000
  C   C91       1.0  0.41787  0.50450  0.55822  1.0000
  C   C92       1.0  0.58213  0.50450  0.94178  1.0000
  C   C93       1.0  0.08213  0.99550  0.44178  1.0000
  C   C94       1.0  0.91787  0.99550  0.05822  1.0000
  C   C95       1.0  0.58213  0.49550  0.44178  1.0000
  C   C96       1.0  0.41787  0.49550  0.05822  1.0000
  H   H41       1.0  0.91710  0.06710  0.58500  1.0000
  H   H42       1.0  0.08290  0.06710  0.91500  1.0000
  H   H43       1.0  0.41710  0.56710  0.58500  1.0000
  H   H44       1.0  0.58290  0.56710  0.91500  1.0000
  H   H45       1.0  0.08290  0.93290  0.41500  1.0000
  H   H46       1.0  0.91710  0.93290  0.08500  1.0000
  H   H47       1.0  0.58290  0.43290  0.41500  1.0000
  H   H48       1.0  0.41710  0.43290  0.08500  1.0000
  C   C97       1.0  0.97525  0.93530  0.56244  1.0000
  C   C98       1.0  0.02475  0.93530  0.93756  1.0000
  C   C99       1.0  0.47525  0.43530  0.56244  1.0000
  C   C100      1.0  0.52475  0.43530  0.93756  1.0000
  C   C101      1.0  0.02475  0.06470  0.43756  1.0000
  C   C102      1.0  0.97525  0.06470  0.06244  1.0000
  C   C103      1.0  0.52475  0.56470  0.43756  1.0000
  C   C104      1.0  0.47525  0.56470  0.06244  1.0000
  H   H49       1.0  0.01310  0.94900  0.59300  1.0000
  H   H50       1.0  0.98690  0.94900  0.90700  1.0000
  H   H51       1.0  0.51310  0.44900  0.59300  1.0000
  H   H52       1.0  0.48690  0.44900  0.90700  1.0000
  H   H53       1.0  0.98690  0.05100  0.40700  1.0000
  H   H54       1.0  0.01310  0.05100  0.09300  1.0000
  H   H55       1.0  0.48690  0.55100  0.40700  1.0000
  H   H56       1.0  0.51310  0.55100  0.09300  1.0000
  C   C105      1.0  0.63489  0.02420  0.13103  1.0000
  C   C106      1.0  0.36511  0.02420  0.36897  1.0000
  C   C107      1.0  0.13489  0.52420  0.13103  1.0000
  C   C108      1.0  0.86511  0.52420  0.36897  1.0000
  C   C109      1.0  0.36511  0.97580  0.86897  1.0000
  C   C110      1.0  0.63489  0.97580  0.63103  1.0000
  C   C111      1.0  0.86511  0.47580  0.86897  1.0000
  C   C112      1.0  0.13489  0.47580  0.63103  1.0000
  C   C113      1.0  0.68047  0.98080  0.24021  1.0000
  C   C114      1.0  0.31953  0.98080  0.25979  1.0000
  C   C115      1.0  0.18047  0.48080  0.24021  1.0000
  C   C116      1.0  0.81953  0.48080  0.25979  1.0000
  C   C117      1.0  0.31953  0.01920  0.75979  1.0000
  C   C118      1.0  0.68047  0.01920  0.74021  1.0000
  C   C119      1.0  0.81953  0.51920  0.75979  1.0000
  C   C120      1.0  0.18047  0.51920  0.74021  1.0000
  H   H57       1.0  0.68030  0.90370  0.22900  1.0000
  H   H58       1.0  0.31970  0.90370  0.27100  1.0000
  H   H59       1.0  0.18030  0.40370  0.22900  1.0000
  H   H60       1.0  0.81970  0.40370  0.27100  1.0000
  H   H61       1.0  0.31970  0.09630  0.77100  1.0000
  H   H62       1.0  0.68030  0.09630  0.72900  1.0000
  H   H63       1.0  0.81970  0.59630  0.77100  1.0000
  H   H64       1.0  0.18030  0.59630  0.72900  1.0000
  C   C121      1.0  0.79766  0.05150  0.51725  1.0000
  C   C122      1.0  0.20234  0.05150  0.98275  1.0000
  C   C123      1.0  0.29766  0.55150  0.51725  1.0000
  C   C124      1.0  0.70234  0.55150  0.98275  1.0000
  C   C125      1.0  0.20234  0.94850  0.48275  1.0000
  C   C126      1.0  0.79766  0.94850  0.01725  1.0000
  C   C127      1.0  0.70234  0.44850  0.48275  1.0000
  C   C128      1.0  0.29766  0.44850  0.01725  1.0000
  C   C129      1.0  0.86182  0.89080  0.47482  1.0000
  C   C130      1.0  0.13818  0.89080  0.02518  1.0000
  C   C131      1.0  0.36182  0.39080  0.47482  1.0000
  C   C132      1.0  0.63818  0.39080  0.02518  1.0000
  C   C133      1.0  0.13818  0.10920  0.52518  1.0000
  C   C134      1.0  0.86182  0.10920  0.97482  1.0000
  C   C135      1.0  0.63818  0.60920  0.52518  1.0000
  C   C136      1.0  0.36182  0.60920  0.97482  1.0000
  C   C137      1.0  0.68729  0.20610  0.27073  1.0000
  C   C138      1.0  0.31271  0.20610  0.22927  1.0000
  C   C139      1.0  0.18729  0.70610  0.27073  1.0000
  C   C140      1.0  0.81271  0.70610  0.22927  1.0000
  C   C141      1.0  0.31271  0.79390  0.72927  1.0000
  C   C142      1.0  0.68729  0.79390  0.77073  1.0000
  C   C143      1.0  0.81271  0.29390  0.72927  1.0000
  C   C144      1.0  0.18729  0.29390  0.77073  1.0000
  H   H65       1.0  0.69250  0.28360  0.28060  1.0000
  H   H66       1.0  0.30750  0.28360  0.21940  1.0000
  H   H67       1.0  0.19250  0.78360  0.28060  1.0000
  H   H68       1.0  0.80750  0.78360  0.21940  1.0000
  H   H69       1.0  0.30750  0.71640  0.71940  1.0000
  H   H70       1.0  0.69250  0.71640  0.78060  1.0000
  H   H71       1.0  0.80750  0.21640  0.71940  1.0000
  H   H72       1.0  0.19250  0.21640  0.78060  1.0000
  C   C145      1.0  0.66058  0.06050  0.19545  1.0000
  C   C146      1.0  0.33942  0.06050  0.30455  1.0000
  C   C147      1.0  0.16058  0.56050  0.19545  1.0000
  C   C148      1.0  0.83942  0.56050  0.30455  1.0000
  C   C149      1.0  0.33942  0.93950  0.80455  1.0000
  C   C150      1.0  0.66058  0.93950  0.69545  1.0000
  C   C151      1.0  0.83942  0.43950  0.80455  1.0000
  C   C152      1.0  0.16058  0.43950  0.69545  1.0000
  C   C153      1.0  0.77108  0.75640  0.42885  1.0000
  C   C154      1.0  0.22892  0.75640  0.07115  1.0000
  C   C155      1.0  0.27108  0.25640  0.42885  1.0000
  C   C156      1.0  0.72892  0.25640  0.07115  1.0000
  C   C157      1.0  0.22892  0.24360  0.57115  1.0000
  C   C158      1.0  0.77108  0.24360  0.92885  1.0000
  C   C159      1.0  0.72892  0.74360  0.57115  1.0000
  C   C160      1.0  0.27108  0.74360  0.92885  1.0000
  H   H73       1.0  0.78980  0.70000  0.45670  1.0000
  H   H74       1.0  0.21020  0.70000  0.04330  1.0000
  H   H75       1.0  0.28980  0.20000  0.45670  1.0000
  H   H76       1.0  0.71020  0.20000  0.04330  1.0000
  H   H77       1.0  0.21020  0.30000  0.54330  1.0000
  H   H78       1.0  0.78980  0.30000  0.95670  1.0000
  H   H79       1.0  0.71020  0.80000  0.54330  1.0000
  H   H80       1.0  0.28980  0.80000  0.95670  1.0000
  C   C161      1.0  0.71372  0.73490  0.38688  1.0000
  C   C162      1.0  0.28628  0.73490  0.11312  1.0000
  C   C163      1.0  0.21372  0.23490  0.38688  1.0000
  C   C164      1.0  0.78628  0.23490  0.11312  1.0000
  C   C165      1.0  0.28628  0.26510  0.61312  1.0000
  C   C166      1.0  0.71372  0.26510  0.88688  1.0000
  C   C167      1.0  0.78628  0.76510  0.61312  1.0000
  C   C168      1.0  0.21372  0.76510  0.88688  1.0000
  H   H81       1.0  0.69170  0.66370  0.38650  1.0000
  H   H82       1.0  0.30830  0.66370  0.11350  1.0000
  H   H83       1.0  0.19170  0.16370  0.38650  1.0000
  H   H84       1.0  0.80830  0.16370  0.11350  1.0000
  H   H85       1.0  0.30830  0.33630  0.61350  1.0000
  H   H86       1.0  0.69170  0.33630  0.88650  1.0000
  H   H87       1.0  0.80830  0.83630  0.61350  1.0000
  H   H88       1.0  0.19170  0.83630  0.88650  1.0000
