data_image0
_chemical_formula_structural       Yb4P4O4C4H8N4O4C4H8C4O8C4H8O4C4O8
_chemical_formula_sum              "Yb4 P4 O28 C20 H24 N4"
_cell_length_a       9.181
_cell_length_b       8.889
_cell_length_c       12.827
_cell_angle_alpha    90
_cell_angle_beta     101.414
_cell_angle_gamma    90

_space_group_name_H-M_alt    "P 1"
_space_group_IT_number       1

loop_
  _space_group_symop_operation_xyz
  'x, y, z'

loop_
  _atom_site_type_symbol
  _atom_site_label
  _atom_site_symmetry_multiplicity
  _atom_site_fract_x
  _atom_site_fract_y
  _atom_site_fract_z
  _atom_site_occupancy
  Yb  Yb1       1.0  0.43719  0.25504  0.39967  1.0000
  Yb  Yb2       1.0  0.56281  0.75504  0.10033  1.0000
  Yb  Yb3       1.0  0.56281  0.74496  0.60033  1.0000
  Yb  Yb4       1.0  0.43719  0.24496  0.89967  1.0000
  P   P1        1.0  0.39213  0.40976  0.63298  1.0000
  P   P2        1.0  0.60787  0.90976  0.86702  1.0000
  P   P3        1.0  0.60787  0.59024  0.36702  1.0000
  P   P4        1.0  0.39213  0.09024  0.13298  1.0000
  O   O1        1.0  0.49430  0.34710  0.56280  1.0000
  O   O2        1.0  0.50570  0.84710  0.93720  1.0000
  O   O3        1.0  0.50570  0.65290  0.43720  1.0000
  O   O4        1.0  0.49430  0.15290  0.06280  1.0000
  C   C1        1.0  0.20660  0.37820  0.55530  1.0000
  C   C2        1.0  0.79340  0.87820  0.94470  1.0000
  C   C3        1.0  0.79340  0.62180  0.44470  1.0000
  C   C4        1.0  0.20660  0.12180  0.05530  1.0000
  H   H1        1.0  0.13620  0.36200  0.60360  1.0000
  H   H2        1.0  0.86380  0.86200  0.89640  1.0000
  H   H3        1.0  0.86380  0.63800  0.39640  1.0000
  H   H4        1.0  0.13620  0.13800  0.10360  1.0000
  H   H5        1.0  0.17370  0.46790  0.51110  1.0000
  H   H6        1.0  0.82630  0.96790  0.98890  1.0000
  H   H7        1.0  0.82630  0.53210  0.48890  1.0000
  H   H8        1.0  0.17370  0.03210  0.01110  1.0000
  N   N1        1.0  0.20670  0.24470  0.48590  1.0000
  N   N2        1.0  0.79330  0.74470  0.01410  1.0000
  N   N3        1.0  0.79330  0.75530  0.51410  1.0000
  N   N4        1.0  0.20670  0.25530  0.98590  1.0000
  O   O5        1.0  0.41010  0.32600  0.73710  1.0000
  O   O6        1.0  0.58990  0.82600  0.76290  1.0000
  O   O7        1.0  0.58990  0.67400  0.26290  1.0000
  O   O8        1.0  0.41010  0.17400  0.23710  1.0000
  C   C5        1.0  0.21370  0.10380  0.54850  1.0000
  C   C6        1.0  0.78630  0.60380  0.95150  1.0000
  C   C7        1.0  0.78630  0.89620  0.45150  1.0000
  C   C8        1.0  0.21370  0.39620  0.04850  1.0000
  H   H9        1.0  0.11170  0.06500  0.54500  1.0000
  H   H10       1.0  0.88830  0.56500  0.95500  1.0000
  H   H11       1.0  0.88830  0.93500  0.45500  1.0000
  H   H12       1.0  0.11170  0.43500  0.04500  1.0000
  H   H13       1.0  0.25730  0.12550  0.62390  1.0000
  H   H14       1.0  0.74270  0.62550  0.87610  1.0000
  H   H15       1.0  0.74270  0.87450  0.37610  1.0000
  H   H16       1.0  0.25730  0.37450  0.12390  1.0000
  C   C9        1.0  0.30630  0.98420  0.50740  1.0000
  C   C10       1.0  0.69370  0.48420  0.99260  1.0000
  C   C11       1.0  0.69370  0.01580  0.49260  1.0000
  C   C12       1.0  0.30630  0.51580  0.00740  1.0000
  O   O9        1.0  0.40990  0.57870  0.64920  1.0000
  O   O10       1.0  0.59010  0.07870  0.85080  1.0000
  O   O11       1.0  0.59010  0.42130  0.35080  1.0000
  O   O12       1.0  0.40990  0.92130  0.14920  1.0000
  O   O13       1.0  0.33170  0.86400  0.55980  1.0000
  O   O14       1.0  0.66830  0.36400  0.94020  1.0000
  O   O15       1.0  0.66830  0.13600  0.44020  1.0000
  O   O16       1.0  0.33170  0.63600  0.05980  1.0000
  C   C13       1.0  0.08270  0.24860  0.39340  1.0000
  C   C14       1.0  0.91730  0.74860  0.10660  1.0000
  C   C15       1.0  0.91730  0.75140  0.60660  1.0000
  C   C16       1.0  0.08270  0.25140  0.89340  1.0000
  H   H17       1.0  0.98880  0.27010  0.41750  1.0000
  H   H18       1.0  0.01120  0.77010  0.08250  1.0000
  H   H19       1.0  0.01120  0.72990  0.58250  1.0000
  H   H20       1.0  0.98880  0.22990  0.91750  1.0000
  H   H21       1.0  0.07290  0.14920  0.35780  1.0000
  H   H22       1.0  0.92710  0.64920  0.14220  1.0000
  H   H23       1.0  0.92710  0.85080  0.64220  1.0000
  H   H24       1.0  0.07290  0.35080  0.85780  1.0000
  O   O17       1.0  0.36100  0.01630  0.42670  1.0000
  O   O18       1.0  0.63900  0.51630  0.07330  1.0000
  O   O19       1.0  0.63900  0.98370  0.57330  1.0000
  O   O20       1.0  0.36100  0.48370  0.92670  1.0000
  C   C17       1.0  0.10940  0.36910  0.31480  1.0000
  C   C18       1.0  0.89060  0.86910  0.18520  1.0000
  C   C19       1.0  0.89060  0.63090  0.68520  1.0000
  C   C20       1.0  0.10940  0.13090  0.81480  1.0000
  O   O21       1.0  0.24360  0.41060  0.32140  1.0000
  O   O22       1.0  0.75640  0.91060  0.17860  1.0000
  O   O23       1.0  0.75640  0.58940  0.67860  1.0000
  O   O24       1.0  0.24360  0.08940  0.82140  1.0000
  O   O25       1.0  0.00210  0.41460  0.24750  1.0000
  O   O26       1.0  0.99790  0.91460  0.25250  1.0000
  O   O27       1.0  0.99790  0.58540  0.75250  1.0000
  O   O28       1.0  0.00210  0.08540  0.74750  1.0000
