data_image0
_chemical_formula_structural       La4O4P4N4C4H8O4C4O4C4H8O4C4O4C4H8O12H8
_chemical_formula_sum              "La4 O32 P4 N4 C20 H32"
_cell_length_a       7.059
_cell_length_b       23.577
_cell_length_c       6.871
_cell_angle_alpha    90
_cell_angle_beta     94.292
_cell_angle_gamma    90

_space_group_name_H-M_alt    "P 1"
_space_group_IT_number       1

loop_
  _space_group_symop_operation_xyz
  'x, y, z'

loop_
  _atom_site_type_symbol
  _atom_site_label
  _atom_site_symmetry_multiplicity
  _atom_site_fract_x
  _atom_site_fract_y
  _atom_site_fract_z
  _atom_site_occupancy
  La  La1       1.0  0.23049  0.97933  0.83381  1.0000
  La  La2       1.0  0.76951  0.47933  0.66619  1.0000
  La  La3       1.0  0.76951  0.02067  0.16619  1.0000
  La  La4       1.0  0.23049  0.52067  0.33381  1.0000
  O   O1        1.0  0.42620  0.99930  0.18520  1.0000
  O   O2        1.0  0.57380  0.49930  0.31480  1.0000
  O   O3        1.0  0.57380  0.00070  0.81480  1.0000
  O   O4        1.0  0.42620  0.50070  0.68520  1.0000
  P   P1        1.0  0.27280  0.97828  0.31360  1.0000
  P   P2        1.0  0.72720  0.47828  0.18640  1.0000
  P   P3        1.0  0.72720  0.02172  0.68640  1.0000
  P   P4        1.0  0.27280  0.52172  0.81360  1.0000
  N   N1        1.0  0.23770  0.88930  0.56410  1.0000
  N   N2        1.0  0.76230  0.38930  0.93590  1.0000
  N   N3        1.0  0.76230  0.11070  0.43590  1.0000
  N   N4        1.0  0.23770  0.61070  0.06410  1.0000
  C   C1        1.0  0.34400  0.90880  0.39530  1.0000
  C   C2        1.0  0.65600  0.40880  0.10470  1.0000
  C   C3        1.0  0.65600  0.09120  0.60470  1.0000
  C   C4        1.0  0.34400  0.59120  0.89530  1.0000
  H   H1        1.0  0.32100  0.88170  0.28600  1.0000
  H   H2        1.0  0.67900  0.38170  0.21400  1.0000
  H   H3        1.0  0.67900  0.11830  0.71400  1.0000
  H   H4        1.0  0.32100  0.61830  0.78600  1.0000
  H   H5        1.0  0.48140  0.90890  0.43440  1.0000
  H   H6        1.0  0.51860  0.40890  0.06560  1.0000
  H   H7        1.0  0.51860  0.09110  0.56560  1.0000
  H   H8        1.0  0.48140  0.59110  0.93440  1.0000
  O   O5        1.0  0.09180  0.97360  0.17420  1.0000
  O   O6        1.0  0.90820  0.47360  0.32580  1.0000
  O   O7        1.0  0.90820  0.02640  0.82580  1.0000
  O   O8        1.0  0.09180  0.52640  0.67420  1.0000
  C   C5        1.0  0.92300  0.87080  0.67400  1.0000
  C   C6        1.0  0.07700  0.37080  0.82600  1.0000
  C   C7        1.0  0.07700  0.12920  0.32600  1.0000
  C   C8        1.0  0.92300  0.62920  0.17400  1.0000
  O   O9        1.0  0.23910  0.01180  0.49460  1.0000
  O   O10       1.0  0.76090  0.51180  0.00540  1.0000
  O   O11       1.0  0.76090  0.98820  0.50540  1.0000
  O   O12       1.0  0.23910  0.48820  0.99460  1.0000
  C   C9        1.0  0.03740  0.87940  0.49560  1.0000
  C   C10       1.0  0.96260  0.37940  0.00440  1.0000
  C   C11       1.0  0.96260  0.12060  0.50440  1.0000
  C   C12       1.0  0.03740  0.62060  0.99560  1.0000
  H   H9        1.0  0.02700  0.84540  0.41100  1.0000
  H   H10       1.0  0.97300  0.34540  0.08900  1.0000
  H   H11       1.0  0.97300  0.15460  0.58900  1.0000
  H   H12       1.0  0.02700  0.65460  0.91100  1.0000
  H   H13       1.0  0.98730  0.91240  0.41870  1.0000
  H   H14       1.0  0.01270  0.41240  0.08130  1.0000
  H   H15       1.0  0.01270  0.08760  0.58130  1.0000
  H   H16       1.0  0.98730  0.58760  0.91870  1.0000
  O   O13       1.0  0.77550  0.84000  0.64730  1.0000
  O   O14       1.0  0.22450  0.34000  0.85270  1.0000
  O   O15       1.0  0.22450  0.16000  0.35270  1.0000
  O   O16       1.0  0.77550  0.66000  0.14730  1.0000
  C   C13       1.0  0.39500  0.84260  0.86700  1.0000
  C   C14       1.0  0.60500  0.34260  0.63300  1.0000
  C   C15       1.0  0.60500  0.15740  0.13300  1.0000
  C   C16       1.0  0.39500  0.65740  0.36700  1.0000
  O   O17       1.0  0.97930  0.89430  0.83090  1.0000
  O   O18       1.0  0.02070  0.39430  0.66910  1.0000
  O   O19       1.0  0.02070  0.10570  0.16910  1.0000
  O   O20       1.0  0.97930  0.60570  0.33090  1.0000
  C   C17       1.0  0.32200  0.83630  0.65130  1.0000
  C   C18       1.0  0.67800  0.33630  0.84870  1.0000
  C   C19       1.0  0.67800  0.16370  0.34870  1.0000
  C   C20       1.0  0.32200  0.66370  0.15130  1.0000
  H   H17       1.0  0.42830  0.82430  0.57510  1.0000
  H   H18       1.0  0.57170  0.32430  0.92490  1.0000
  H   H19       1.0  0.57170  0.17570  0.42490  1.0000
  H   H20       1.0  0.42830  0.67570  0.07510  1.0000
  H   H21       1.0  0.22450  0.80590  0.64050  1.0000
  H   H22       1.0  0.77550  0.30590  0.85950  1.0000
  H   H23       1.0  0.77550  0.19410  0.35950  1.0000
  H   H24       1.0  0.22450  0.69410  0.14050  1.0000
  O   O21       1.0  0.39840  0.89140  0.94400  1.0000
  O   O22       1.0  0.60160  0.39140  0.55600  1.0000
  O   O23       1.0  0.60160  0.10860  0.05600  1.0000
  O   O24       1.0  0.39840  0.60860  0.44400  1.0000
  O   O25       1.0  0.45420  0.79760  0.95250  1.0000
  O   O26       1.0  0.54580  0.29760  0.54750  1.0000
  O   O27       1.0  0.54580  0.20240  0.04750  1.0000
  O   O28       1.0  0.45420  0.70240  0.45250  1.0000
  O   O29       1.0  0.25990  0.08730  0.88280  1.0000
  O   O30       1.0  0.74010  0.58730  0.61720  1.0000
  O   O31       1.0  0.74010  0.91270  0.11720  1.0000
  O   O32       1.0  0.25990  0.41270  0.38280  1.0000
  H   H25       1.0  0.30830  0.09410  0.99580  1.0000
  H   H26       1.0  0.69170  0.59410  0.50420  1.0000
  H   H27       1.0  0.69170  0.90590  0.00420  1.0000
  H   H28       1.0  0.30830  0.40590  0.49580  1.0000
  H   H29       1.0  0.27250  0.12230  0.84920  1.0000
  H   H30       1.0  0.72750  0.62230  0.65080  1.0000
  H   H31       1.0  0.72750  0.87770  0.15080  1.0000
  H   H32       1.0  0.27250  0.37770  0.34920  1.0000
