data_image0
_chemical_formula_structural       Cd2O12C4O2C8O2H14
_chemical_formula_sum              "Cd2 O16 C12 H14"
_cell_length_a       9.686
_cell_length_b       8.484
_cell_length_c       7.035
_cell_angle_alpha    90
_cell_angle_beta     110.28
_cell_angle_gamma    90

_space_group_name_H-M_alt    "P 1"
_space_group_IT_number       1

loop_
  _space_group_symop_operation_xyz
  'x, y, z'

loop_
  _atom_site_type_symbol
  _atom_site_label
  _atom_site_symmetry_multiplicity
  _atom_site_fract_x
  _atom_site_fract_y
  _atom_site_fract_z
  _atom_site_occupancy
  Cd  Cd1       1.0  0.94282  0.99981  0.08832  1.0000
  Cd  Cd2       1.0  0.05718  0.49981  0.91168  1.0000
  O   O1        1.0  0.15990  0.03370  0.36300  1.0000
  O   O2        1.0  0.84010  0.53370  0.63700  1.0000
  O   O3        1.0  0.17900  0.64070  0.72190  1.0000
  O   O4        1.0  0.82100  0.14070  0.27810  1.0000
  O   O5        1.0  0.11480  0.01170  0.90930  1.0000
  O   O6        1.0  0.88520  0.51170  0.09070  1.0000
  O   O7        1.0  0.01770  0.78170  0.91870  1.0000
  O   O8        1.0  0.98230  0.28170  0.08130  1.0000
  O   O9        1.0  0.25710  0.57530  0.17830  1.0000
  O   O10       1.0  0.74290  0.07530  0.82170  1.0000
  O   O11       1.0  0.76500  0.80430  0.09530  1.0000
  O   O12       1.0  0.23500  0.30430  0.90470  1.0000
  C   C1        1.0  0.14750  0.92480  0.47670  1.0000
  C   C2        1.0  0.85250  0.42480  0.52330  1.0000
  C   C3        1.0  0.27430  0.89490  0.67260  1.0000
  C   C4        1.0  0.72570  0.39490  0.32740  1.0000
  O   O13       1.0  0.03550  0.84040  0.43170  1.0000
  O   O14       1.0  0.96450  0.34040  0.56830  1.0000
  C   C5        1.0  0.23240  0.78780  0.82000  1.0000
  C   C6        1.0  0.76760  0.28780  0.18000  1.0000
  C   C7        1.0  0.11210  0.86710  0.88520  1.0000
  C   C8        1.0  0.88790  0.36710  0.11480  1.0000
  C   C9        1.0  0.37030  0.75760  0.00690  1.0000
  C   C10       1.0  0.62970  0.25760  0.99310  1.0000
  C   C11       1.0  0.35660  0.67520  0.19330  1.0000
  C   C12       1.0  0.64340  0.17520  0.80670  1.0000
  O   O15       1.0  0.45290  0.71020  0.35860  1.0000
  O   O16       1.0  0.54710  0.21020  0.64140  1.0000
  H   H1        1.0  0.11600  0.66900  0.61900  1.0000
  H   H2        1.0  0.88400  0.16900  0.38100  1.0000
  H   H3        1.0  0.30800  0.98700  0.73400  1.0000
  H   H4        1.0  0.69200  0.48700  0.26600  1.0000
  H   H5        1.0  0.33300  0.84500  0.62200  1.0000
  H   H6        1.0  0.66700  0.34500  0.37800  1.0000
  H   H7        1.0  0.42500  0.84800  0.05900  1.0000
  H   H8        1.0  0.57500  0.34800  0.94100  1.0000
  H   H9        1.0  0.44500  0.69600  0.97300  1.0000
  H   H10       1.0  0.55500  0.19600  0.02700  1.0000
  H   H11       1.0  0.69200  0.78000  0.97400  1.0000
  H   H12       1.0  0.30800  0.28000  0.02600  1.0000
  H   H13       1.0  0.81400  0.73200  0.11100  1.0000
  H   H14       1.0  0.18600  0.23200  0.88900  1.0000
