data_image0
_chemical_formula_structural       Eu4O16C8O16H8O4C8
_chemical_formula_sum              "Eu4 O36 C16 H8"
_cell_length_a       9.6654
_cell_length_b       11.7491
_cell_length_c       12.2886
_cell_angle_alpha    90
_cell_angle_beta     99.242
_cell_angle_gamma    90

_space_group_name_H-M_alt    "P 1"
_space_group_IT_number       1

loop_
  _space_group_symop_operation_xyz
  'x, y, z'

loop_
  _atom_site_type_symbol
  _atom_site_label
  _atom_site_symmetry_multiplicity
  _atom_site_fract_x
  _atom_site_fract_y
  _atom_site_fract_z
  _atom_site_occupancy
  Eu  Eu1       1.0  0.21387  0.48442  0.33094  1.0000
  Eu  Eu2       1.0  0.28613  0.98442  0.16906  1.0000
  Eu  Eu3       1.0  0.78613  0.51558  0.66906  1.0000
  Eu  Eu4       1.0  0.71387  0.01558  0.83094  1.0000
  O   O1        1.0  0.36000  0.78416  0.15620  1.0000
  O   O2        1.0  0.14000  0.28416  0.34380  1.0000
  O   O3        1.0  0.64000  0.21584  0.84380  1.0000
  O   O4        1.0  0.86000  0.71584  0.65620  1.0000
  O   O5        1.0  0.19220  0.85889  0.29464  1.0000
  O   O6        1.0  0.30780  0.35889  0.20536  1.0000
  O   O7        1.0  0.80780  0.14111  0.70536  1.0000
  O   O8        1.0  0.69220  0.64111  0.79464  1.0000
  O   O9        1.0  0.13420  0.68042  0.32753  1.0000
  O   O10       1.0  0.36580  0.18042  0.17247  1.0000
  O   O11       1.0  0.86580  0.31958  0.67247  1.0000
  O   O12       1.0  0.63420  0.81958  0.82753  1.0000
  O   O13       1.0  0.31530  0.60493  0.19993  1.0000
  O   O14       1.0  0.18470  0.10493  0.30007  1.0000
  O   O15       1.0  0.68470  0.39507  0.80007  1.0000
  O   O16       1.0  0.81530  0.89507  0.69993  1.0000
  C   C1        1.0  0.30130  0.71020  0.20570  1.0000
  C   C2        1.0  0.19870  0.21020  0.29430  1.0000
  C   C3        1.0  0.69870  0.28980  0.79430  1.0000
  C   C4        1.0  0.80130  0.78980  0.70570  1.0000
  C   C5        1.0  0.19990  0.75440  0.28320  1.0000
  C   C6        1.0  0.30010  0.25440  0.21680  1.0000
  C   C7        1.0  0.80010  0.24560  0.71680  1.0000
  C   C8        1.0  0.69990  0.74560  0.78320  1.0000
  O   O17       1.0  0.96670  0.48565  0.35773  1.0000
  O   O18       1.0  0.53330  0.98565  0.14227  1.0000
  O   O19       1.0  0.03330  0.51435  0.64227  1.0000
  O   O20       1.0  0.46670  0.01435  0.85773  1.0000
  O   O21       1.0  0.81840  0.51210  0.47756  1.0000
  O   O22       1.0  0.68160  0.01210  0.02244  1.0000
  O   O23       1.0  0.18160  0.48790  0.52244  1.0000
  O   O24       1.0  0.31840  0.98790  0.97756  1.0000
  O   O25       1.0  0.41610  0.38190  0.43358  1.0000
  O   O26       1.0  0.08390  0.88190  0.06642  1.0000
  O   O27       1.0  0.58390  0.61810  0.56642  1.0000
  O   O28       1.0  0.91610  0.11810  0.93358  1.0000
  O   O29       1.0  0.04570  0.47630  0.15399  1.0000
  O   O30       1.0  0.45430  0.97630  0.34601  1.0000
  O   O31       1.0  0.95430  0.52370  0.84601  1.0000
  O   O32       1.0  0.54570  0.02370  0.65399  1.0000
  H   H1        1.0  0.08160  0.43840  0.10400  1.0000
  H   H2        1.0  0.41840  0.93840  0.39600  1.0000
  H   H3        1.0  0.91840  0.56160  0.89600  1.0000
  H   H4        1.0  0.58160  0.06160  0.60400  1.0000
  H   H5        1.0  0.03250  0.54430  0.12540  1.0000
  H   H6        1.0  0.46750  0.04430  0.37460  1.0000
  H   H7        1.0  0.96750  0.45570  0.87460  1.0000
  H   H8        1.0  0.53250  0.95570  0.62540  1.0000
  O   O33       1.0  0.60120  0.39112  0.56699  1.0000
  O   O34       1.0  0.89880  0.89112  0.93301  1.0000
  O   O35       1.0  0.39880  0.60888  0.43301  1.0000
  O   O36       1.0  0.10120  0.10888  0.06699  1.0000
  C   C9        1.0  0.50530  0.43460  0.50040  1.0000
  C   C10       1.0  0.99470  0.93460  0.99960  1.0000
  C   C11       1.0  0.49470  0.56540  0.49960  1.0000
  C   C12       1.0  0.00530  0.06540  0.00040  1.0000
  C   C13       1.0  0.93750  0.49930  0.45220  1.0000
  C   C14       1.0  0.56250  0.99930  0.04780  1.0000
  C   C15       1.0  0.06250  0.50070  0.54780  1.0000
  C   C16       1.0  0.43750  0.00070  0.95220  1.0000
