data_image0
_chemical_formula_structural       Eu4O36C16H8
_chemical_formula_sum              "Eu4 O36 C16 H8"
_cell_length_a       9.674
_cell_length_b       11.761
_cell_length_c       12.315
_cell_angle_alpha    90
_cell_angle_beta     99.285
_cell_angle_gamma    90

_space_group_name_H-M_alt    "P 1"
_space_group_IT_number       1

loop_
  _space_group_symop_operation_xyz
  'x, y, z'

loop_
  _atom_site_type_symbol
  _atom_site_label
  _atom_site_symmetry_multiplicity
  _atom_site_fract_x
  _atom_site_fract_y
  _atom_site_fract_z
  _atom_site_occupancy
  Eu  Eu1       1.0  0.71368  0.51552  0.33081  1.0000
  Eu  Eu2       1.0  0.78632  0.01552  0.16919  1.0000
  Eu  Eu3       1.0  0.28632  0.48448  0.66919  1.0000
  Eu  Eu4       1.0  0.21368  0.98448  0.83081  1.0000
  O   O1        1.0  0.80700  0.64090  0.20550  1.0000
  O   O2        1.0  0.69300  0.14090  0.29450  1.0000
  O   O3        1.0  0.19300  0.35910  0.79450  1.0000
  O   O4        1.0  0.30700  0.85910  0.70550  1.0000
  O   O5        1.0  0.86600  0.81940  0.17260  1.0000
  O   O6        1.0  0.63400  0.31940  0.32740  1.0000
  O   O7        1.0  0.13400  0.18060  0.82740  1.0000
  O   O8        1.0  0.36600  0.68060  0.67260  1.0000
  O   O9        1.0  0.63960  0.71590  0.34350  1.0000
  O   O10       1.0  0.86040  0.21590  0.15650  1.0000
  O   O11       1.0  0.36040  0.28410  0.65650  1.0000
  O   O12       1.0  0.13960  0.78410  0.84350  1.0000
  O   O13       1.0  0.68510  0.89500  0.30060  1.0000
  O   O14       1.0  0.81490  0.39500  0.19940  1.0000
  O   O15       1.0  0.31490  0.10500  0.69940  1.0000
  O   O16       1.0  0.18510  0.60500  0.80060  1.0000
  O   O17       1.0  0.68130  0.51150  0.52240  1.0000
  O   O18       1.0  0.81870  0.01150  0.97760  1.0000
  O   O19       1.0  0.31870  0.48850  0.47760  1.0000
  O   O20       1.0  0.18130  0.98850  0.02240  1.0000
  O   O21       1.0  0.53350  0.48540  0.64280  1.0000
  O   O22       1.0  0.96650  0.98540  0.85720  1.0000
  O   O23       1.0  0.46650  0.51460  0.35720  1.0000
  O   O24       1.0  0.03350  0.01460  0.14280  1.0000
  O   O25       1.0  0.91600  0.61820  0.43410  1.0000
  O   O26       1.0  0.58400  0.11820  0.06590  1.0000
  O   O27       1.0  0.08400  0.38180  0.56590  1.0000
  O   O28       1.0  0.41600  0.88180  0.93410  1.0000
  O   O29       1.0  0.10060  0.60880  0.56730  1.0000
  O   O30       1.0  0.39940  0.10880  0.93270  1.0000
  O   O31       1.0  0.89940  0.39120  0.43270  1.0000
  O   O32       1.0  0.60060  0.89120  0.06730  1.0000
  O   O33       1.0  0.54520  0.52360  0.15370  1.0000
  O   O34       1.0  0.95480  0.02360  0.34630  1.0000
  O   O35       1.0  0.45480  0.47640  0.84630  1.0000
  O   O36       1.0  0.04520  0.97640  0.65370  1.0000
  C   C1        1.0  0.80020  0.74550  0.21750  1.0000
  C   C2        1.0  0.69980  0.24550  0.28250  1.0000
  C   C3        1.0  0.19980  0.25450  0.78250  1.0000
  C   C4        1.0  0.30020  0.75450  0.71750  1.0000
  C   C5        1.0  0.69900  0.78970  0.29460  1.0000
  C   C6        1.0  0.80100  0.28970  0.20540  1.0000
  C   C7        1.0  0.30100  0.21030  0.70540  1.0000
  C   C8        1.0  0.19900  0.71030  0.79460  1.0000
  C   C9        1.0  0.56250  0.49920  0.54740  1.0000
  C   C10       1.0  0.93750  0.99920  0.95260  1.0000
  C   C11       1.0  0.43750  0.50080  0.45260  1.0000
  C   C12       1.0  0.06250  0.00080  0.04740  1.0000
  C   C13       1.0  0.00460  0.56570  0.49970  1.0000
  C   C14       1.0  0.49540  0.06570  0.00030  1.0000
  C   C15       1.0  0.99540  0.43430  0.50030  1.0000
  C   C16       1.0  0.50460  0.93430  0.99970  1.0000
  H   H1        1.0  0.51400  0.46200  0.12200  1.0000
  H   H2        1.0  0.98600  0.96200  0.37800  1.0000
  H   H3        1.0  0.48600  0.53800  0.87800  1.0000
  H   H4        1.0  0.01400  0.03800  0.62200  1.0000
  H   H5        1.0  0.57200  0.56800  0.10700  1.0000
  H   H6        1.0  0.92800  0.06800  0.39300  1.0000
  H   H7        1.0  0.42800  0.43200  0.89300  1.0000
  H   H8        1.0  0.07200  0.93200  0.60700  1.0000
