data_image0
_chemical_formula_structural       Cr2K2C4H4C4H4C4H4O24
_chemical_formula_sum              "Cr2 K2 C12 H12 O24"
_cell_length_a       8.3001
_cell_length_b       8.6881
_cell_length_c       12.2807
_cell_angle_alpha    90
_cell_angle_beta     87.539
_cell_angle_gamma    90

_space_group_name_H-M_alt    "P 1"
_space_group_IT_number       1

loop_
  _space_group_symop_operation_xyz
  'x, y, z'

loop_
  _atom_site_type_symbol
  _atom_site_label
  _atom_site_symmetry_multiplicity
  _atom_site_fract_x
  _atom_site_fract_y
  _atom_site_fract_z
  _atom_site_occupancy
  Cr  Cr1       1.0  0.50000  0.50000  0.50000  1.0000
  Cr  Cr2       1.0  0.00000  0.00000  0.00000  1.0000
  K   K1        1.0  0.50000  0.50000  1.00000  1.0000
  K   K2        1.0  1.00000  0.00000  0.50000  1.0000
  C   C1        1.0  0.77510  0.30820  0.44930  1.0000
  C   C2        1.0  0.72490  0.80820  0.05070  1.0000
  C   C3        1.0  0.22490  0.69180  0.55070  1.0000
  C   C4        1.0  0.27510  0.19180  0.94930  1.0000
  H   H1        1.0  0.73775  0.25585  0.51142  1.0000
  H   H2        1.0  0.76225  0.75585  0.98858  1.0000
  H   H3        1.0  0.26225  0.74415  0.48858  1.0000
  H   H4        1.0  0.23775  0.24415  0.01142  1.0000
  C   C5        1.0  0.32740  0.20670  0.50660  1.0000
  C   C6        1.0  0.17260  0.70670  0.99340  1.0000
  C   C7        1.0  0.67260  0.79330  0.49340  1.0000
  C   C8        1.0  0.82740  0.29330  0.00660  1.0000
  H   H5        1.0  0.26696  0.24604  0.45095  1.0000
  H   H6        1.0  0.23304  0.74604  0.04905  1.0000
  H   H7        1.0  0.73304  0.75396  0.54905  1.0000
  H   H8        1.0  0.76696  0.25396  0.95095  1.0000
  C   C9        1.0  0.58070  0.48240  0.72650  1.0000
  C   C10       1.0  0.91930  0.98240  0.77350  1.0000
  C   C11       1.0  0.41930  0.51760  0.27350  1.0000
  C   C12       1.0  0.08070  0.01760  0.22650  1.0000
  H   H9        1.0  0.47520  0.44749  0.73674  1.0000
  H   H10       1.0  0.02480  0.94749  0.76326  1.0000
  H   H11       1.0  0.52480  0.55251  0.26326  1.0000
  H   H12       1.0  0.97520  0.05251  0.23674  1.0000
  O   O1        1.0  0.69170  0.41750  0.41850  1.0000
  O   O2        1.0  0.80830  0.91750  0.08150  1.0000
  O   O3        1.0  0.30830  0.58250  0.58150  1.0000
  O   O4        1.0  0.19170  0.08250  0.91850  1.0000
  O   O5        1.0  0.90400  0.26210  0.40490  1.0000
  O   O6        1.0  0.59600  0.76210  0.09510  1.0000
  O   O7        1.0  0.09600  0.73790  0.59510  1.0000
  O   O8        1.0  0.40400  0.23790  0.90490  1.0000
  O   O9        1.0  0.43510  0.29040  0.54550  1.0000
  O   O10       1.0  0.06490  0.79040  0.95450  1.0000
  O   O11       1.0  0.56490  0.70960  0.45450  1.0000
  O   O12       1.0  0.93510  0.20960  0.04550  1.0000
  O   O13       1.0  0.29950  0.07640  0.53890  1.0000
  O   O14       1.0  0.20050  0.57640  0.96110  1.0000
  O   O15       1.0  0.70050  0.92360  0.46110  1.0000
  O   O16       1.0  0.79950  0.42360  0.03890  1.0000
  O   O17       1.0  0.62930  0.51440  0.63090  1.0000
  O   O18       1.0  0.87070  0.01440  0.86910  1.0000
  O   O19       1.0  0.37070  0.48560  0.36910  1.0000
  O   O20       1.0  0.12930  0.98560  0.13090  1.0000
  O   O21       1.0  0.66060  0.49350  0.80640  1.0000
  O   O22       1.0  0.83940  0.99350  0.69360  1.0000
  O   O23       1.0  0.33940  0.50650  0.19360  1.0000
  O   O24       1.0  0.16060  0.00650  0.30640  1.0000
