data_image0
_chemical_formula_structural       CrO6C6O2H4O2H2O2K
_chemical_formula_sum              "Cr1 O12 C6 H6 K1"
_cell_length_a       8.559
_cell_length_b       8.602
_cell_length_c       9.156
_cell_angle_alpha    63.07
_cell_angle_beta     63.19
_cell_angle_gamma    61.08

_space_group_name_H-M_alt    "P 1"
_space_group_IT_number       1

loop_
  _space_group_symop_operation_xyz
  'x, y, z'

loop_
  _atom_site_type_symbol
  _atom_site_label
  _atom_site_symmetry_multiplicity
  _atom_site_fract_x
  _atom_site_fract_y
  _atom_site_fract_z
  _atom_site_occupancy
  Cr  Cr1       1.0  0.50000  0.00000  0.50000  1.0000
  O   O1        1.0  0.37830  0.01520  0.35370  1.0000
  O   O2        1.0  0.62170  0.98480  0.64630  1.0000
  O   O3        1.0  0.51730  0.24850  0.35530  1.0000
  O   O4        1.0  0.48270  0.75150  0.64470  1.0000
  O   O5        1.0  0.74990  0.88000  0.35420  1.0000
  O   O6        1.0  0.25010  0.12000  0.64580  1.0000
  C   C1        1.0  0.25600  0.16130  0.29020  1.0000
  C   C2        1.0  0.74400  0.83870  0.70980  1.0000
  C   C3        1.0  0.66470  0.29160  0.29150  1.0000
  C   C4        1.0  0.33530  0.70840  0.70850  1.0000
  C   C5        1.0  0.79180  0.75740  0.29120  1.0000
  C   C6        1.0  0.20820  0.24260  0.70880  1.0000
  O   O7        1.0  0.17130  0.17070  0.20490  1.0000
  O   O8        1.0  0.82870  0.82930  0.79510  1.0000
  H   H1        1.0  0.22790  0.27050  0.30960  1.0000
  H   H2        1.0  0.77210  0.72950  0.69040  1.0000
  H   H3        1.0  0.77370  0.19710  0.31480  1.0000
  H   H4        1.0  0.22630  0.80290  0.68520  1.0000
  O   O9        1.0  0.67340  0.44580  0.20320  1.0000
  O   O10       1.0  0.32660  0.55420  0.79680  1.0000
  H   H5        1.0  0.69500  0.72280  0.31030  1.0000
  H   H6        1.0  0.30500  0.27720  0.68970  1.0000
  O   O11       1.0  0.94960  0.67750  0.20580  1.0000
  O   O12       1.0  0.05040  0.32250  0.79420  1.0000
  K   K1        1.0  0.00000  0.50000  0.00000  1.0000
