data_image0
_chemical_formula_structural       Cr2K2O24C4H4C4H4C4H4
_chemical_formula_sum              "Cr2 K2 O24 C12 H12"
_cell_length_a       8.0147
_cell_length_b       9.8547
_cell_length_c       12.3886
_cell_angle_alpha    90
_cell_angle_beta     90.052
_cell_angle_gamma    90

_space_group_name_H-M_alt    "P 1"
_space_group_IT_number       1

loop_
  _space_group_symop_operation_xyz
  'x, y, z'

loop_
  _atom_site_type_symbol
  _atom_site_label
  _atom_site_symmetry_multiplicity
  _atom_site_fract_x
  _atom_site_fract_y
  _atom_site_fract_z
  _atom_site_occupancy
  Cr  Cr1       1.0  0.00000  0.00000  0.00000  1.0000
  Cr  Cr2       1.0  0.50000  0.50000  0.50000  1.0000
  K   K1        1.0  0.50000  0.50000  0.00000  1.0000
  K   K2        1.0  0.00000  0.00000  0.50000  1.0000
  O   O1        1.0  0.19686  0.09089  0.93886  1.0000
  O   O2        1.0  0.30314  0.59089  0.56114  1.0000
  O   O3        1.0  0.80314  0.90911  0.06114  1.0000
  O   O4        1.0  0.69686  0.40911  0.43886  1.0000
  O   O5        1.0  0.37120  0.46321  0.36782  1.0000
  O   O6        1.0  0.12880  0.96321  0.13218  1.0000
  O   O7        1.0  0.62880  0.53679  0.63218  1.0000
  O   O8        1.0  0.87120  0.03679  0.86782  1.0000
  O   O9        1.0  0.07560  0.82860  0.93508  1.0000
  O   O10       1.0  0.42440  0.32860  0.56492  1.0000
  O   O11       1.0  0.92440  0.17140  0.06492  1.0000
  O   O12       1.0  0.57560  0.67140  0.43508  1.0000
  O   O13       1.0  0.39690  0.24480  0.93374  1.0000
  O   O14       1.0  0.10310  0.74480  0.56626  1.0000
  O   O15       1.0  0.60310  0.75520  0.06626  1.0000
  O   O16       1.0  0.89690  0.25520  0.43374  1.0000
  O   O17       1.0  0.34290  0.44410  0.19145  1.0000
  O   O18       1.0  0.15710  0.94410  0.30855  1.0000
  O   O19       1.0  0.65710  0.55590  0.80855  1.0000
  O   O20       1.0  0.84290  0.05590  0.69145  1.0000
  O   O21       1.0  0.24290  0.65390  0.91600  1.0000
  O   O22       1.0  0.25710  0.15390  0.58400  1.0000
  O   O23       1.0  0.75710  0.34610  0.08400  1.0000
  O   O24       1.0  0.74290  0.84610  0.41600  1.0000
  C   C1        1.0  0.27680  0.18960  0.97650  1.0000
  C   C2        1.0  0.22320  0.68960  0.52350  1.0000
  C   C3        1.0  0.72320  0.81040  0.02350  1.0000
  C   C4        1.0  0.77680  0.31040  0.47650  1.0000
  H   H1        1.0  0.24190  0.22400  0.04260  1.0000
  H   H2        1.0  0.25810  0.72400  0.45740  1.0000
  H   H3        1.0  0.75810  0.77600  0.95740  1.0000
  H   H4        1.0  0.74190  0.27600  0.54260  1.0000
  C   C5        1.0  0.42270  0.47380  0.27230  1.0000
  C   C6        1.0  0.07730  0.97380  0.22770  1.0000
  C   C7        1.0  0.57730  0.52620  0.72770  1.0000
  C   C8        1.0  0.92270  0.02620  0.77230  1.0000
  H   H5        1.0  0.53010  0.50710  0.26240  1.0000
  H   H6        1.0  0.96990  0.00710  0.23760  1.0000
  H   H7        1.0  0.46990  0.49290  0.73760  1.0000
  H   H8        1.0  0.03010  0.99290  0.76240  1.0000
  C   C9        1.0  0.20570  0.76300  0.95720  1.0000
  C   C10       1.0  0.29430  0.26300  0.54280  1.0000
  C   C11       1.0  0.79430  0.23700  0.04280  1.0000
  C   C12       1.0  0.70570  0.73700  0.45720  1.0000
  H   H9        1.0  0.27840  0.79950  0.00800  1.0000
  H   H10       1.0  0.22160  0.29950  0.49200  1.0000
  H   H11       1.0  0.72160  0.20050  0.99200  1.0000
  H   H12       1.0  0.77840  0.70050  0.50800  1.0000
