data_image0
_chemical_formula_structural       Cr2K2C4H4C4H4C4H4O24
_chemical_formula_sum              "Cr2 K2 C12 H12 O24"
_cell_length_a       8.2602
_cell_length_b       8.4583
_cell_length_c       12.225
_cell_angle_alpha    90
_cell_angle_beta     87.413
_cell_angle_gamma    90

_space_group_name_H-M_alt    "P 1"
_space_group_IT_number       1

loop_
  _space_group_symop_operation_xyz
  'x, y, z'

loop_
  _atom_site_type_symbol
  _atom_site_label
  _atom_site_symmetry_multiplicity
  _atom_site_fract_x
  _atom_site_fract_y
  _atom_site_fract_z
  _atom_site_occupancy
  Cr  Cr1       1.0  0.50000  0.50000  0.50000  1.0000
  Cr  Cr2       1.0  0.00000  0.00000  0.00000  1.0000
  K   K1        1.0  0.50000  0.50000  0.00000  1.0000
  K   K2        1.0  0.00000  0.00000  0.50000  1.0000
  C   C1        1.0  0.78030  0.31080  0.44960  1.0000
  C   C2        1.0  0.71970  0.81080  0.05040  1.0000
  C   C3        1.0  0.21970  0.68920  0.55040  1.0000
  C   C4        1.0  0.28030  0.18920  0.94960  1.0000
  H   H1        1.0  0.74337  0.25582  0.51173  1.0000
  H   H2        1.0  0.75663  0.75582  0.98827  1.0000
  H   H3        1.0  0.25663  0.74418  0.48827  1.0000
  H   H4        1.0  0.24337  0.24418  0.01173  1.0000
  C   C5        1.0  0.33450  0.19620  0.50280  1.0000
  C   C6        1.0  0.16550  0.69620  0.99720  1.0000
  C   C7        1.0  0.66550  0.80380  0.49720  1.0000
  C   C8        1.0  0.83450  0.30380  0.00280  1.0000
  H   H5        1.0  0.27532  0.23709  0.44639  1.0000
  H   H6        1.0  0.22468  0.73709  0.05361  1.0000
  H   H7        1.0  0.72468  0.76291  0.55361  1.0000
  H   H8        1.0  0.77532  0.26291  0.94639  1.0000
  C   C9        1.0  0.58160  0.47270  0.72500  1.0000
  C   C10       1.0  0.91840  0.97270  0.77500  1.0000
  C   C11       1.0  0.41840  0.52730  0.27500  1.0000
  C   C12       1.0  0.08160  0.02730  0.22500  1.0000
  H   H9        1.0  0.47502  0.43807  0.73418  1.0000
  H   H10       1.0  0.02498  0.93807  0.76582  1.0000
  H   H11       1.0  0.52498  0.56193  0.26582  1.0000
  H   H12       1.0  0.97502  0.06193  0.23418  1.0000
  O   O1        1.0  0.69270  0.42070  0.41730  1.0000
  O   O2        1.0  0.80730  0.92070  0.08270  1.0000
  O   O3        1.0  0.30730  0.57930  0.58270  1.0000
  O   O4        1.0  0.19270  0.07930  0.91730  1.0000
  O   O5        1.0  0.91060  0.26920  0.40660  1.0000
  O   O6        1.0  0.58940  0.76920  0.09340  1.0000
  O   O7        1.0  0.08940  0.73080  0.59340  1.0000
  O   O8        1.0  0.41060  0.23080  0.90660  1.0000
  O   O9        1.0  0.44040  0.28340  0.54280  1.0000
  O   O10       1.0  0.05960  0.78340  0.95720  1.0000
  O   O11       1.0  0.55960  0.71660  0.45720  1.0000
  O   O12       1.0  0.94040  0.21660  0.04280  1.0000
  O   O13       1.0  0.30470  0.06190  0.53310  1.0000
  O   O14       1.0  0.19530  0.56190  0.96690  1.0000
  O   O15       1.0  0.69530  0.93810  0.46690  1.0000
  O   O16       1.0  0.80470  0.43810  0.03310  1.0000
  O   O17       1.0  0.63160  0.51170  0.62730  1.0000
  O   O18       1.0  0.86840  0.01170  0.87270  1.0000
  O   O19       1.0  0.36840  0.48830  0.37270  1.0000
  O   O20       1.0  0.13160  0.98830  0.12730  1.0000
  O   O21       1.0  0.66120  0.47700  0.80620  1.0000
  O   O22       1.0  0.83880  0.97700  0.69380  1.0000
  O   O23       1.0  0.33880  0.52300  0.19380  1.0000
  O   O24       1.0  0.16120  0.02300  0.30620  1.0000
