data_image0
_chemical_formula_structural       Cr2K2C4H4C4H4C4H4O24
_chemical_formula_sum              "Cr2 K2 C12 H12 O24"
_cell_length_a       8.2348
_cell_length_b       8.2099
_cell_length_c       12.359
_cell_angle_alpha    90
_cell_angle_beta     94.507
_cell_angle_gamma    90

_space_group_name_H-M_alt    "P 1"
_space_group_IT_number       1

loop_
  _space_group_symop_operation_xyz
  'x, y, z'

loop_
  _atom_site_type_symbol
  _atom_site_label
  _atom_site_symmetry_multiplicity
  _atom_site_fract_x
  _atom_site_fract_y
  _atom_site_fract_z
  _atom_site_occupancy
  Cr  Cr1       1.0  0.50000  0.50000  0.50000  1.0000
  Cr  Cr2       1.0  0.00000  0.00000  0.00000  1.0000
  K   K1        1.0  0.50000  0.50000  0.00000  1.0000
  K   K2        1.0  0.00000  0.00000  0.50000  1.0000
  C   C1        1.0  0.79920  0.32640  0.46830  1.0000
  C   C2        1.0  0.70080  0.82640  0.03170  1.0000
  C   C3        1.0  0.20080  0.67360  0.53170  1.0000
  C   C4        1.0  0.29920  0.17360  0.96830  1.0000
  H   H1        1.0  0.76524  0.25939  0.52284  1.0000
  H   H2        1.0  0.73476  0.75939  0.97716  1.0000
  H   H3        1.0  0.23476  0.74061  0.47716  1.0000
  H   H4        1.0  0.26524  0.24061  0.02284  1.0000
  C   C5        1.0  0.33980  0.18860  0.51320  1.0000
  C   C6        1.0  0.16020  0.68860  0.98680  1.0000
  C   C7        1.0  0.66020  0.81140  0.48680  1.0000
  C   C8        1.0  0.83980  0.31140  0.01320  1.0000
  H   H5        1.0  0.26847  0.22742  0.45703  1.0000
  H   H6        1.0  0.23153  0.72742  0.04297  1.0000
  H   H7        1.0  0.73153  0.77258  0.54297  1.0000
  H   H8        1.0  0.76847  0.27258  0.95703  1.0000
  C   C9        1.0  0.58270  0.48460  0.72900  1.0000
  C   C10       1.0  0.91730  0.98460  0.77100  1.0000
  C   C11       1.0  0.41730  0.51540  0.27100  1.0000
  C   C12       1.0  0.08270  0.01540  0.22900  1.0000
  H   H9        1.0  0.48928  0.42053  0.72535  1.0000
  H   H10       1.0  0.01072  0.92053  0.77465  1.0000
  H   H11       1.0  0.51072  0.57947  0.27465  1.0000
  H   H12       1.0  0.98928  0.07947  0.22535  1.0000
  O   O1        1.0  0.70200  0.43970  0.43270  1.0000
  O   O2        1.0  0.79800  0.93970  0.06730  1.0000
  O   O3        1.0  0.29800  0.56030  0.56730  1.0000
  O   O4        1.0  0.20200  0.06030  0.93270  1.0000
  O   O5        1.0  0.93090  0.30040  0.43650  1.0000
  O   O6        1.0  0.56910  0.80040  0.06350  1.0000
  O   O7        1.0  0.06910  0.69960  0.56350  1.0000
  O   O8        1.0  0.43090  0.19960  0.93650  1.0000
  O   O9        1.0  0.46240  0.27440  0.54410  1.0000
  O   O10       1.0  0.03760  0.77440  0.95590  1.0000
  O   O11       1.0  0.53760  0.72560  0.45590  1.0000
  O   O12       1.0  0.96240  0.22560  0.04410  1.0000
  O   O13       1.0  0.31040  0.05480  0.55450  1.0000
  O   O14       1.0  0.18960  0.55480  0.94550  1.0000
  O   O15       1.0  0.68960  0.94520  0.44550  1.0000
  O   O16       1.0  0.81040  0.44520  0.05450  1.0000
  O   O17       1.0  0.62610  0.53260  0.64140  1.0000
  O   O18       1.0  0.87390  0.03260  0.85860  1.0000
  O   O19       1.0  0.37390  0.46740  0.35860  1.0000
  O   O20       1.0  0.12610  0.96740  0.14140  1.0000
  O   O21       1.0  0.65200  0.51300  0.82470  1.0000
  O   O22       1.0  0.84800  0.01300  0.67530  1.0000
  O   O23       1.0  0.34800  0.48700  0.17530  1.0000
  O   O24       1.0  0.15200  0.98700  0.32470  1.0000
