data_image0
_chemical_formula_structural       Cr2K2C4H4C4H4C4H4O24
_chemical_formula_sum              "Cr2 K2 C12 H12 O24"
_cell_length_a       8.0498
_cell_length_b       9.9049
_cell_length_c       12.4534
_cell_angle_alpha    90
_cell_angle_beta     90.098
_cell_angle_gamma    90

_space_group_name_H-M_alt    "P 1"
_space_group_IT_number       1

loop_
  _space_group_symop_operation_xyz
  'x, y, z'

loop_
  _atom_site_type_symbol
  _atom_site_label
  _atom_site_symmetry_multiplicity
  _atom_site_fract_x
  _atom_site_fract_y
  _atom_site_fract_z
  _atom_site_occupancy
  Cr  Cr1       1.0  0.50000  0.50000  0.50000  1.0000
  Cr  Cr2       1.0  0.00000  0.00000  0.00000  1.0000
  K   K1        1.0  0.50000  0.50000  0.00000  1.0000
  K   K2        1.0  0.00000  0.00000  0.50000  1.0000
  C   C1        1.0  0.77690  0.31090  0.47700  1.0000
  C   C2        1.0  0.72310  0.81090  0.02300  1.0000
  C   C3        1.0  0.22310  0.68910  0.52300  1.0000
  C   C4        1.0  0.27690  0.18910  0.97700  1.0000
  H   H1        1.0  0.74307  0.27738  0.54317  1.0000
  H   H2        1.0  0.75693  0.77738  0.95683  1.0000
  H   H3        1.0  0.25693  0.72262  0.45683  1.0000
  H   H4        1.0  0.24307  0.22262  0.04317  1.0000
  C   C5        1.0  0.29450  0.26260  0.54290  1.0000
  C   C6        1.0  0.20550  0.76260  0.95710  1.0000
  C   C7        1.0  0.70550  0.73740  0.45710  1.0000
  C   C8        1.0  0.79450  0.23740  0.04290  1.0000
  H   H5        1.0  0.22273  0.29852  0.49177  1.0000
  H   H6        1.0  0.27727  0.79852  0.00823  1.0000
  H   H7        1.0  0.77727  0.70148  0.50823  1.0000
  H   H8        1.0  0.72273  0.20148  0.99177  1.0000
  C   C9        1.0  0.57700  0.52680  0.72820  1.0000
  C   C10       1.0  0.92300  0.02680  0.77180  1.0000
  C   C11       1.0  0.42300  0.47320  0.27180  1.0000
  C   C12       1.0  0.07700  0.97320  0.22820  1.0000
  H   H9        1.0  0.46983  0.49439  0.73872  1.0000
  H   H10       1.0  0.03017  0.99439  0.76128  1.0000
  H   H11       1.0  0.53017  0.50561  0.26128  1.0000
  H   H12       1.0  0.96983  0.00561  0.23872  1.0000
  O   O1        1.0  0.69670  0.40950  0.43908  1.0000
  O   O2        1.0  0.80330  0.90950  0.06092  1.0000
  O   O3        1.0  0.30330  0.59050  0.56092  1.0000
  O   O4        1.0  0.19670  0.09050  0.93908  1.0000
  O   O5        1.0  0.89760  0.25480  0.43330  1.0000
  O   O6        1.0  0.60240  0.75480  0.06670  1.0000
  O   O7        1.0  0.10240  0.74520  0.56670  1.0000
  O   O8        1.0  0.39760  0.24520  0.93330  1.0000
  O   O9        1.0  0.42390  0.32900  0.56494  1.0000
  O   O10       1.0  0.07610  0.82900  0.93506  1.0000
  O   O11       1.0  0.57610  0.67100  0.43506  1.0000
  O   O12       1.0  0.92390  0.17100  0.06494  1.0000
  O   O13       1.0  0.25610  0.15380  0.58390  1.0000
  O   O14       1.0  0.24390  0.65380  0.91610  1.0000
  O   O15       1.0  0.74390  0.84620  0.41610  1.0000
  O   O16       1.0  0.75610  0.34620  0.08390  1.0000
  O   O17       1.0  0.62770  0.53700  0.63157  1.0000
  O   O18       1.0  0.87230  0.03700  0.86843  1.0000
  O   O19       1.0  0.37230  0.46300  0.36843  1.0000
  O   O20       1.0  0.12770  0.96300  0.13157  1.0000
  O   O21       1.0  0.65740  0.55600  0.80810  1.0000
  O   O22       1.0  0.84260  0.05600  0.69190  1.0000
  O   O23       1.0  0.34260  0.44400  0.19190  1.0000
  O   O24       1.0  0.15740  0.94400  0.30810  1.0000
