data_image0
_chemical_formula_structural       Cr2K2C4H4C4H4C4H4O24
_chemical_formula_sum              "Cr2 K2 C12 H12 O24"
_cell_length_a       8.2036
_cell_length_b       8.1487
_cell_length_c       12.344
_cell_angle_alpha    90
_cell_angle_beta     94.74
_cell_angle_gamma    90

_space_group_name_H-M_alt    "P 1"
_space_group_IT_number       1

loop_
  _space_group_symop_operation_xyz
  'x, y, z'

loop_
  _atom_site_type_symbol
  _atom_site_label
  _atom_site_symmetry_multiplicity
  _atom_site_fract_x
  _atom_site_fract_y
  _atom_site_fract_z
  _atom_site_occupancy
  Cr  Cr1       1.0  0.50000  0.50000  0.50000  1.0000
  Cr  Cr2       1.0  0.00000  0.00000  0.00000  1.0000
  K   K1        1.0  0.50000  0.50000  0.00000  1.0000
  K   K2        1.0  0.00000  0.00000  0.50000  1.0000
  C   C1        1.0  0.79990  0.32820  0.47300  1.0000
  C   C2        1.0  0.70010  0.82820  0.02700  1.0000
  C   C3        1.0  0.20010  0.67180  0.52700  1.0000
  C   C4        1.0  0.29990  0.17180  0.97300  1.0000
  H   H1        1.0  0.76897  0.26603  0.53076  1.0000
  H   H2        1.0  0.73103  0.76603  0.96924  1.0000
  H   H3        1.0  0.23103  0.73397  0.46924  1.0000
  H   H4        1.0  0.26897  0.23397  0.03076  1.0000
  C   C5        1.0  0.34080  0.18470  0.51210  1.0000
  C   C6        1.0  0.15920  0.68470  0.98790  1.0000
  C   C7        1.0  0.65920  0.81530  0.48790  1.0000
  C   C8        1.0  0.84080  0.31530  0.01210  1.0000
  H   H5        1.0  0.27075  0.22254  0.45442  1.0000
  H   H6        1.0  0.22925  0.72254  0.04558  1.0000
  H   H7        1.0  0.72925  0.77746  0.54558  1.0000
  H   H8        1.0  0.77075  0.27746  0.95442  1.0000
  C   C9        1.0  0.58190  0.48300  0.73200  1.0000
  C   C10       1.0  0.91810  0.98300  0.76800  1.0000
  C   C11       1.0  0.41810  0.51700  0.26800  1.0000
  C   C12       1.0  0.08190  0.01700  0.23200  1.0000
  H   H9        1.0  0.48647  0.42118  0.73050  1.0000
  H   H10       1.0  0.01353  0.92118  0.76950  1.0000
  H   H11       1.0  0.51353  0.57882  0.26950  1.0000
  H   H12       1.0  0.98647  0.07882  0.23050  1.0000
  O   O1        1.0  0.70260  0.43970  0.43210  1.0000
  O   O2        1.0  0.79740  0.93970  0.06790  1.0000
  O   O3        1.0  0.29740  0.56030  0.56790  1.0000
  O   O4        1.0  0.20260  0.06030  0.93210  1.0000
  O   O5        1.0  0.93350  0.30100  0.43680  1.0000
  O   O6        1.0  0.56650  0.80100  0.06320  1.0000
  O   O7        1.0  0.06650  0.69900  0.56320  1.0000
  O   O8        1.0  0.43350  0.19900  0.93680  1.0000
  O   O9        1.0  0.46340  0.27320  0.54490  1.0000
  O   O10       1.0  0.03660  0.77320  0.95510  1.0000
  O   O11       1.0  0.53660  0.72680  0.45510  1.0000
  O   O12       1.0  0.96340  0.22680  0.04490  1.0000
  O   O13       1.0  0.31060  0.05090  0.55360  1.0000
  O   O14       1.0  0.18940  0.55090  0.94640  1.0000
  O   O15       1.0  0.68940  0.94910  0.44640  1.0000
  O   O16       1.0  0.81060  0.44910  0.05360  1.0000
  O   O17       1.0  0.62720  0.53240  0.63920  1.0000
  O   O18       1.0  0.87280  0.03240  0.86080  1.0000
  O   O19       1.0  0.37280  0.46760  0.36080  1.0000
  O   O20       1.0  0.12720  0.96760  0.13920  1.0000
  O   O21       1.0  0.65380  0.51030  0.82310  1.0000
  O   O22       1.0  0.84620  0.01030  0.67690  1.0000
  O   O23       1.0  0.34620  0.48970  0.17690  1.0000
  O   O24       1.0  0.15380  0.98970  0.32310  1.0000
