data_image0
_chemical_formula_structural       Cr2K2C4H4C4H4C4H4O24
_chemical_formula_sum              "Cr2 K2 C12 H12 O24"
_cell_length_a       8.3247
_cell_length_b       8.8916
_cell_length_c       12.3381
_cell_angle_alpha    90
_cell_angle_beta     87.379
_cell_angle_gamma    90

_space_group_name_H-M_alt    "P 1"
_space_group_IT_number       1

loop_
  _space_group_symop_operation_xyz
  'x, y, z'

loop_
  _atom_site_type_symbol
  _atom_site_label
  _atom_site_symmetry_multiplicity
  _atom_site_fract_x
  _atom_site_fract_y
  _atom_site_fract_z
  _atom_site_occupancy
  Cr  Cr1       1.0  0.50000  0.50000  0.50000  1.0000
  Cr  Cr2       1.0  0.00000  0.00000  0.00000  1.0000
  K   K1        1.0  0.50000  0.50000  1.00000  1.0000
  K   K2        1.0  0.00000  0.00000  0.50000  1.0000
  C   C1        1.0  0.77240  0.30440  0.44950  1.0000
  C   C2        1.0  0.72760  0.80440  0.05050  1.0000
  C   C3        1.0  0.22760  0.69560  0.55050  1.0000
  C   C4        1.0  0.27240  0.19560  0.94950  1.0000
  H   H1        1.0  0.73427  0.25217  0.51075  1.0000
  H   H2        1.0  0.76573  0.75217  0.98925  1.0000
  H   H3        1.0  0.26573  0.74783  0.48925  1.0000
  H   H4        1.0  0.23427  0.24783  0.01075  1.0000
  C   C5        1.0  0.32570  0.21410  0.51020  1.0000
  C   C6        1.0  0.17430  0.71410  0.98980  1.0000
  C   C7        1.0  0.67430  0.78590  0.48980  1.0000
  C   C8        1.0  0.82570  0.28590  0.01020  1.0000
  H   H5        1.0  0.26725  0.25124  0.45354  1.0000
  H   H6        1.0  0.23275  0.75124  0.04646  1.0000
  H   H7        1.0  0.73275  0.74876  0.54646  1.0000
  H   H8        1.0  0.76725  0.24876  0.95354  1.0000
  C   C9        1.0  0.58170  0.48750  0.72590  1.0000
  C   C10       1.0  0.91830  0.98750  0.77410  1.0000
  C   C11       1.0  0.41830  0.51250  0.27410  1.0000
  C   C12       1.0  0.08170  0.01250  0.22590  1.0000
  H   H9        1.0  0.47661  0.45361  0.73725  1.0000
  H   H10       1.0  0.02339  0.95361  0.76275  1.0000
  H   H11       1.0  0.52339  0.54639  0.26275  1.0000
  H   H12       1.0  0.97661  0.04639  0.23725  1.0000
  O   O1        1.0  0.69010  0.41530  0.41970  1.0000
  O   O2        1.0  0.80990  0.91530  0.08030  1.0000
  O   O3        1.0  0.30990  0.58470  0.58030  1.0000
  O   O4        1.0  0.19010  0.08470  0.91970  1.0000
  O   O5        1.0  0.89940  0.25910  0.40440  1.0000
  O   O6        1.0  0.60060  0.75910  0.09560  1.0000
  O   O7        1.0  0.10060  0.74090  0.59560  1.0000
  O   O8        1.0  0.39940  0.24090  0.90440  1.0000
  O   O9        1.0  0.43240  0.29760  0.54770  1.0000
  O   O10       1.0  0.06760  0.79760  0.95230  1.0000
  O   O11       1.0  0.56760  0.70240  0.45230  1.0000
  O   O12       1.0  0.93240  0.20240  0.04770  1.0000
  O   O13       1.0  0.29460  0.08810  0.54340  1.0000
  O   O14       1.0  0.20540  0.58810  0.95660  1.0000
  O   O15       1.0  0.70540  0.91190  0.45660  1.0000
  O   O16       1.0  0.79460  0.41190  0.04340  1.0000
  O   O17       1.0  0.62870  0.51530  0.63010  1.0000
  O   O18       1.0  0.87130  0.01530  0.86990  1.0000
  O   O19       1.0  0.37130  0.48470  0.36990  1.0000
  O   O20       1.0  0.12870  0.98470  0.13010  1.0000
  O   O21       1.0  0.66270  0.50110  0.80620  1.0000
  O   O22       1.0  0.83730  0.00110  0.69380  1.0000
  O   O23       1.0  0.33730  0.49890  0.19380  1.0000
  O   O24       1.0  0.16270  0.99890  0.30620  1.0000
