data_image0
_chemical_formula_structural       Cr2K2C4H4C4H4C4H4O24
_chemical_formula_sum              "Cr2 K2 C12 H12 O24"
_cell_length_a       8.3142
_cell_length_b       8.7604
_cell_length_c       12.3106
_cell_angle_alpha    90
_cell_angle_beta     87.386
_cell_angle_gamma    90

_space_group_name_H-M_alt    "P 1"
_space_group_IT_number       1

loop_
  _space_group_symop_operation_xyz
  'x, y, z'

loop_
  _atom_site_type_symbol
  _atom_site_label
  _atom_site_symmetry_multiplicity
  _atom_site_fract_x
  _atom_site_fract_y
  _atom_site_fract_z
  _atom_site_occupancy
  Cr  Cr1       1.0  0.50000  0.50000  0.50000  1.0000
  Cr  Cr2       1.0  0.00000  0.00000  0.00000  1.0000
  K   K1        1.0  0.50000  0.50000  0.00000  1.0000
  K   K2        1.0  0.00000  0.00000  0.50000  1.0000
  C   C1        1.0  0.77490  0.30600  0.44900  1.0000
  C   C2        1.0  0.72510  0.80600  0.05100  1.0000
  C   C3        1.0  0.22510  0.69400  0.55100  1.0000
  C   C4        1.0  0.27490  0.19400  0.94900  1.0000
  H   H1        1.0  0.73852  0.25439  0.51145  1.0000
  H   H2        1.0  0.76148  0.75439  0.98855  1.0000
  H   H3        1.0  0.26148  0.74561  0.48855  1.0000
  H   H4        1.0  0.23852  0.24561  0.01145  1.0000
  C   C5        1.0  0.32710  0.20910  0.50720  1.0000
  C   C6        1.0  0.17290  0.70910  0.99280  1.0000
  C   C7        1.0  0.67290  0.79090  0.49280  1.0000
  C   C8        1.0  0.82710  0.29090  0.00720  1.0000
  H   H5        1.0  0.26772  0.24756  0.45114  1.0000
  H   H6        1.0  0.23228  0.74756  0.04886  1.0000
  H   H7        1.0  0.73228  0.75244  0.54886  1.0000
  H   H8        1.0  0.76772  0.25244  0.95114  1.0000
  C   C9        1.0  0.58120  0.48320  0.72620  1.0000
  C   C10       1.0  0.91880  0.98320  0.77380  1.0000
  C   C11       1.0  0.41880  0.51680  0.27380  1.0000
  C   C12       1.0  0.08120  0.01680  0.22620  1.0000
  H   H9        1.0  0.47606  0.44835  0.73715  1.0000
  H   H10       1.0  0.02394  0.94835  0.76285  1.0000
  H   H11       1.0  0.52394  0.55165  0.26285  1.0000
  H   H12       1.0  0.97606  0.05165  0.23715  1.0000
  O   O1        1.0  0.69040  0.41560  0.41840  1.0000
  O   O2        1.0  0.80960  0.91560  0.08160  1.0000
  O   O3        1.0  0.30960  0.58440  0.58160  1.0000
  O   O4        1.0  0.19040  0.08440  0.91840  1.0000
  O   O5        1.0  0.90150  0.26070  0.40400  1.0000
  O   O6        1.0  0.59850  0.76070  0.09600  1.0000
  O   O7        1.0  0.09850  0.73930  0.59600  1.0000
  O   O8        1.0  0.40150  0.23930  0.90400  1.0000
  O   O9        1.0  0.43360  0.29300  0.54580  1.0000
  O   O10       1.0  0.06640  0.79300  0.95420  1.0000
  O   O11       1.0  0.56640  0.70700  0.45420  1.0000
  O   O12       1.0  0.93360  0.20700  0.04580  1.0000
  O   O13       1.0  0.29780  0.07970  0.53990  1.0000
  O   O14       1.0  0.20220  0.57970  0.96010  1.0000
  O   O15       1.0  0.70220  0.92030  0.46010  1.0000
  O   O16       1.0  0.79780  0.42030  0.03990  1.0000
  O   O17       1.0  0.62890  0.51410  0.63010  1.0000
  O   O18       1.0  0.87110  0.01410  0.86990  1.0000
  O   O19       1.0  0.37110  0.48590  0.36990  1.0000
  O   O20       1.0  0.12890  0.98590  0.13010  1.0000
  O   O21       1.0  0.66220  0.49540  0.80620  1.0000
  O   O22       1.0  0.83780  0.99540  0.69380  1.0000
  O   O23       1.0  0.33780  0.50460  0.19380  1.0000
  O   O24       1.0  0.16220  0.00460  0.30620  1.0000
