data_image0
_chemical_formula_structural       Nd4S16N32O32C24H8C8H8C8H8C32H8C8H8C8H8C32H8C8H8C8H8C8H8C24H8C8H8C8H8C8H8
_chemical_formula_sum              "Nd4 S16 N32 O32 C192 H112"
_cell_length_a       15.618
_cell_length_b       20.841
_cell_length_c       20.455
_cell_angle_alpha    90
_cell_angle_beta     108.21
_cell_angle_gamma    90

_space_group_name_H-M_alt    "P 1"
_space_group_IT_number       1

loop_
  _space_group_symop_operation_xyz
  'x, y, z'

loop_
  _atom_site_type_symbol
  _atom_site_label
  _atom_site_symmetry_multiplicity
  _atom_site_fract_x
  _atom_site_fract_y
  _atom_site_fract_z
  _atom_site_occupancy
  Nd  Nd1       1.0  0.00000  0.58817  0.25000  1.0000
  Nd  Nd2       1.0  0.50000  0.08817  0.25000  1.0000
  Nd  Nd3       1.0  0.00000  0.41183  0.75000  1.0000
  Nd  Nd4       1.0  0.50000  0.91183  0.75000  1.0000
  S   S1        1.0  0.22227  0.29570  0.18093  1.0000
  S   S2        1.0  0.77773  0.29570  0.31907  1.0000
  S   S3        1.0  0.72227  0.79570  0.18093  1.0000
  S   S4        1.0  0.27773  0.79570  0.31907  1.0000
  S   S5        1.0  0.77773  0.70430  0.81907  1.0000
  S   S6        1.0  0.22227  0.70430  0.68093  1.0000
  S   S7        1.0  0.27773  0.20430  0.81907  1.0000
  S   S8        1.0  0.72227  0.20430  0.68093  1.0000
  S   S9        1.0  0.20056  0.39090  0.17187  1.0000
  S   S10       1.0  0.79944  0.39090  0.32813  1.0000
  S   S11       1.0  0.70056  0.89090  0.17187  1.0000
  S   S12       1.0  0.29944  0.89090  0.32813  1.0000
  S   S13       1.0  0.79944  0.60910  0.82813  1.0000
  S   S14       1.0  0.20056  0.60910  0.67187  1.0000
  S   S15       1.0  0.29944  0.10910  0.82813  1.0000
  S   S16       1.0  0.70056  0.10910  0.67187  1.0000
  N   N1        1.0  0.05030  0.34280  0.08260  1.0000
  N   N2        1.0  0.94970  0.34280  0.41740  1.0000
  N   N3        1.0  0.55030  0.84280  0.08260  1.0000
  N   N4        1.0  0.44970  0.84280  0.41740  1.0000
  N   N5        1.0  0.94970  0.65720  0.91740  1.0000
  N   N6        1.0  0.05030  0.65720  0.58260  1.0000
  N   N7        1.0  0.44970  0.15720  0.91740  1.0000
  N   N8        1.0  0.55030  0.15720  0.58260  1.0000
  N   N9        1.0  0.29770  0.32800  0.08470  1.0000
  N   N10       1.0  0.70230  0.32800  0.41530  1.0000
  N   N11       1.0  0.79770  0.82800  0.08470  1.0000
  N   N12       1.0  0.20230  0.82800  0.41530  1.0000
  N   N13       1.0  0.70230  0.67200  0.91530  1.0000
  N   N14       1.0  0.29770  0.67200  0.58470  1.0000
  N   N15       1.0  0.20230  0.17200  0.91530  1.0000
  N   N16       1.0  0.79770  0.17200  0.58470  1.0000
  N   N17       1.0  0.91330  0.47860  0.20830  1.0000
  N   N18       1.0  0.08670  0.47860  0.29170  1.0000
  N   N19       1.0  0.41330  0.97860  0.20830  1.0000
  N   N20       1.0  0.58670  0.97860  0.29170  1.0000
  N   N21       1.0  0.08670  0.52140  0.79170  1.0000
  N   N22       1.0  0.91330  0.52140  0.70830  1.0000
  N   N23       1.0  0.58670  0.02140  0.79170  1.0000
  N   N24       1.0  0.41330  0.02140  0.70830  1.0000
  N   N25       1.0  0.04590  0.69850  0.20240  1.0000
  N   N26       1.0  0.95410  0.69850  0.29760  1.0000
  N   N27       1.0  0.54590  0.19850  0.20240  1.0000
  N   N28       1.0  0.45410  0.19850  0.29760  1.0000
  N   N29       1.0  0.95410  0.30150  0.79760  1.0000
  N   N30       1.0  0.04590  0.30150  0.70240  1.0000
  N   N31       1.0  0.45410  0.80150  0.79760  1.0000
  N   N32       1.0  0.54590  0.80150  0.70240  1.0000
  O   O1        1.0  0.17500  0.52400  0.14020  1.0000
  O   O2        1.0  0.82500  0.52400  0.35980  1.0000
  O   O3        1.0  0.67500  0.02400  0.14020  1.0000
  O   O4        1.0  0.32500  0.02400  0.35980  1.0000
  O   O5        1.0  0.82500  0.47600  0.85980  1.0000
  O   O6        1.0  0.17500  0.47600  0.64020  1.0000
  O   O7        1.0  0.32500  0.97600  0.85980  1.0000
  O   O8        1.0  0.67500  0.97600  0.64020  1.0000
  O   O9        1.0  0.04790  0.55690  0.15690  1.0000
  O   O10       1.0  0.95210  0.55690  0.34310  1.0000
  O   O11       1.0  0.54790  0.05690  0.15690  1.0000
  O   O12       1.0  0.45210  0.05690  0.34310  1.0000
  O   O13       1.0  0.95210  0.44310  0.84310  1.0000
  O   O14       1.0  0.04790  0.44310  0.65690  1.0000
  O   O15       1.0  0.45210  0.94310  0.84310  1.0000
  O   O16       1.0  0.54790  0.94310  0.65690  1.0000
  O   O17       1.0  0.35980  0.11900  0.17590  1.0000
  O   O18       1.0  0.64020  0.11900  0.32410  1.0000
  O   O19       1.0  0.85980  0.61900  0.17590  1.0000
  O   O20       1.0  0.14020  0.61900  0.32410  1.0000
  O   O21       1.0  0.64020  0.88100  0.82410  1.0000
  O   O22       1.0  0.35980  0.88100  0.67590  1.0000
  O   O23       1.0  0.14020  0.38100  0.82410  1.0000
  O   O24       1.0  0.85980  0.38100  0.67590  1.0000
  O   O25       1.0  0.23170  0.16430  0.17910  1.0000
  O   O26       1.0  0.76830  0.16430  0.32090  1.0000
  O   O27       1.0  0.73170  0.66430  0.17910  1.0000
  O   O28       1.0  0.26830  0.66430  0.32090  1.0000
  O   O29       1.0  0.76830  0.83570  0.82090  1.0000
  O   O30       1.0  0.23170  0.83570  0.67910  1.0000
  O   O31       1.0  0.26830  0.33570  0.82090  1.0000
  O   O32       1.0  0.73170  0.33570  0.67910  1.0000
  C   C1        1.0  0.08900  0.39560  0.11210  1.0000
  C   C2        1.0  0.91100  0.39560  0.38790  1.0000
  C   C3        1.0  0.58900  0.89560  0.11210  1.0000
  C   C4        1.0  0.41100  0.89560  0.38790  1.0000
  C   C5        1.0  0.91100  0.60440  0.88790  1.0000
  C   C6        1.0  0.08900  0.60440  0.61210  1.0000
  C   C7        1.0  0.41100  0.10440  0.88790  1.0000
  C   C8        1.0  0.58900  0.10440  0.61210  1.0000
  C   C9        1.0  0.04790  0.45740  0.10190  1.0000
  C   C10       1.0  0.95210  0.45740  0.39810  1.0000
  C   C11       1.0  0.54790  0.95740  0.10190  1.0000
  C   C12       1.0  0.45210  0.95740  0.39810  1.0000
  C   C13       1.0  0.95210  0.54260  0.89810  1.0000
  C   C14       1.0  0.04790  0.54260  0.60190  1.0000
  C   C15       1.0  0.45210  0.04260  0.89810  1.0000
  C   C16       1.0  0.54790  0.04260  0.60190  1.0000
  C   C17       1.0  0.95870  0.46050  0.05740  1.0000
  C   C18       1.0  0.04130  0.46050  0.44260  1.0000
  C   C19       1.0  0.45870  0.96050  0.05740  1.0000
  C   C20       1.0  0.54130  0.96050  0.44260  1.0000
  C   C21       1.0  0.04130  0.53950  0.94260  1.0000
  C   C22       1.0  0.95870  0.53950  0.55740  1.0000
  C   C23       1.0  0.54130  0.03950  0.94260  1.0000
  C   C24       1.0  0.45870  0.03950  0.55740  1.0000
  H   H1        1.0  0.92730  0.49920  0.04990  1.0000
  H   H2        1.0  0.07270  0.49920  0.45010  1.0000
  H   H3        1.0  0.42730  0.99920  0.04990  1.0000
  H   H4        1.0  0.57270  0.99920  0.45010  1.0000
  H   H5        1.0  0.07270  0.50080  0.95010  1.0000
  H   H6        1.0  0.92730  0.50080  0.54990  1.0000
  H   H7        1.0  0.57270  0.00080  0.95010  1.0000
  H   H8        1.0  0.42730  0.00080  0.54990  1.0000
  C   C25       1.0  0.91890  0.40490  0.02530  1.0000
  C   C26       1.0  0.08110  0.40490  0.47470  1.0000
  C   C27       1.0  0.41890  0.90490  0.02530  1.0000
  C   C28       1.0  0.58110  0.90490  0.47470  1.0000
  C   C29       1.0  0.08110  0.59510  0.97470  1.0000
  C   C30       1.0  0.91890  0.59510  0.52530  1.0000
  C   C31       1.0  0.58110  0.09510  0.97470  1.0000
  C   C32       1.0  0.41890  0.09510  0.52530  1.0000
  H   H9        1.0  0.86050  0.40610  0.99490  1.0000
  H   H10       1.0  0.13950  0.40610  0.50510  1.0000
  H   H11       1.0  0.36050  0.90610  0.99490  1.0000
  H   H12       1.0  0.63950  0.90610  0.50510  1.0000
  H   H13       1.0  0.13950  0.59390  0.00510  1.0000
  H   H14       1.0  0.86050  0.59390  0.49490  1.0000
  H   H15       1.0  0.63950  0.09390  0.00510  1.0000
  H   H16       1.0  0.36050  0.09390  0.49490  1.0000
  C   C33       1.0  0.96400  0.34890  0.03770  1.0000
  C   C34       1.0  0.03600  0.34890  0.46230  1.0000
  C   C35       1.0  0.46400  0.84890  0.03770  1.0000
  C   C36       1.0  0.53600  0.84890  0.46230  1.0000
  C   C37       1.0  0.03600  0.65110  0.96230  1.0000
  C   C38       1.0  0.96400  0.65110  0.53770  1.0000
  C   C39       1.0  0.53600  0.15110  0.96230  1.0000
  C   C40       1.0  0.46400  0.15110  0.53770  1.0000
  H   H17       1.0  0.93560  0.31240  0.01480  1.0000
  H   H18       1.0  0.06440  0.31240  0.48520  1.0000
  H   H19       1.0  0.43560  0.81240  0.01480  1.0000
  H   H20       1.0  0.56440  0.81240  0.48520  1.0000
  H   H21       1.0  0.06440  0.68760  0.98520  1.0000
  H   H22       1.0  0.93560  0.68760  0.51480  1.0000
  H   H23       1.0  0.56440  0.18760  0.98520  1.0000
  H   H24       1.0  0.43560  0.18760  0.51480  1.0000
  C   C41       1.0  0.09370  0.51620  0.13630  1.0000
  C   C42       1.0  0.90630  0.51620  0.36370  1.0000
  C   C43       1.0  0.59370  0.01620  0.13630  1.0000
  C   C44       1.0  0.40630  0.01620  0.36370  1.0000
  C   C45       1.0  0.90630  0.48380  0.86370  1.0000
  C   C46       1.0  0.09370  0.48380  0.63630  1.0000
  C   C47       1.0  0.40630  0.98380  0.86370  1.0000
  C   C48       1.0  0.59370  0.98380  0.63630  1.0000
  C   C49       1.0  0.28330  0.28170  0.12030  1.0000
  C   C50       1.0  0.71670  0.28170  0.37970  1.0000
  C   C51       1.0  0.78330  0.78170  0.12030  1.0000
  C   C52       1.0  0.21670  0.78170  0.37970  1.0000
  C   C53       1.0  0.71670  0.71830  0.87970  1.0000
  C   C54       1.0  0.28330  0.71830  0.62030  1.0000
  C   C55       1.0  0.21670  0.21830  0.87970  1.0000
  C   C56       1.0  0.78330  0.21830  0.62030  1.0000
  C   C57       1.0  0.31510  0.21750  0.11670  1.0000
  C   C58       1.0  0.68490  0.21750  0.38330  1.0000
  C   C59       1.0  0.81510  0.71750  0.11670  1.0000
  C   C60       1.0  0.18490  0.71750  0.38330  1.0000
  C   C61       1.0  0.68490  0.78250  0.88330  1.0000
  C   C62       1.0  0.31510  0.78250  0.61670  1.0000
  C   C63       1.0  0.18490  0.28250  0.88330  1.0000
  C   C64       1.0  0.81510  0.28250  0.61670  1.0000
  C   C65       1.0  0.36370  0.20830  0.07170  1.0000
  C   C66       1.0  0.63630  0.20830  0.42830  1.0000
  C   C67       1.0  0.86370  0.70830  0.07170  1.0000
  C   C68       1.0  0.13630  0.70830  0.42830  1.0000
  C   C69       1.0  0.63630  0.79170  0.92830  1.0000
  C   C70       1.0  0.36370  0.79170  0.57170  1.0000
  C   C71       1.0  0.13630  0.29170  0.92830  1.0000
  C   C72       1.0  0.86370  0.29170  0.57170  1.0000
  H   H25       1.0  0.38730  0.16790  0.06830  1.0000
  H   H26       1.0  0.61270  0.16790  0.43170  1.0000
  H   H27       1.0  0.88730  0.66790  0.06830  1.0000
  H   H28       1.0  0.11270  0.66790  0.43170  1.0000
  H   H29       1.0  0.61270  0.83210  0.93170  1.0000
  H   H30       1.0  0.38730  0.83210  0.56830  1.0000
  H   H31       1.0  0.11270  0.33210  0.93170  1.0000
  H   H32       1.0  0.88730  0.33210  0.56830  1.0000
  C   C73       1.0  0.37760  0.25620  0.03280  1.0000
  C   C74       1.0  0.62240  0.25620  0.46720  1.0000
  C   C75       1.0  0.87760  0.75620  0.03280  1.0000
  C   C76       1.0  0.12240  0.75620  0.46720  1.0000
  C   C77       1.0  0.62240  0.74380  0.96720  1.0000
  C   C78       1.0  0.37760  0.74380  0.53280  1.0000
  C   C79       1.0  0.12240  0.24380  0.96720  1.0000
  C   C80       1.0  0.87760  0.24380  0.53280  1.0000
  H   H33       1.0  0.40890  0.25020  0.00130  1.0000
  H   H34       1.0  0.59110  0.25020  0.49870  1.0000
  H   H35       1.0  0.90890  0.75020  0.00130  1.0000
  H   H36       1.0  0.09110  0.75020  0.49870  1.0000
  H   H37       1.0  0.59110  0.74980  0.99870  1.0000
  H   H38       1.0  0.40890  0.74980  0.50130  1.0000
  H   H39       1.0  0.09110  0.24980  0.99870  1.0000
  H   H40       1.0  0.90890  0.24980  0.50130  1.0000
  C   C81       1.0  0.34270  0.31530  0.04200  1.0000
  C   C82       1.0  0.65730  0.31530  0.45800  1.0000
  C   C83       1.0  0.84270  0.81530  0.04200  1.0000
  C   C84       1.0  0.15730  0.81530  0.45800  1.0000
  C   C85       1.0  0.65730  0.68470  0.95800  1.0000
  C   C86       1.0  0.34270  0.68470  0.54200  1.0000
  C   C87       1.0  0.15730  0.18470  0.95800  1.0000
  C   C88       1.0  0.84270  0.18470  0.54200  1.0000
  H   H41       1.0  0.35200  0.34910  0.01540  1.0000
  H   H42       1.0  0.64800  0.34910  0.48460  1.0000
  H   H43       1.0  0.85200  0.84910  0.01540  1.0000
  H   H44       1.0  0.14800  0.84910  0.48460  1.0000
  H   H45       1.0  0.64800  0.65090  0.98460  1.0000
  H   H46       1.0  0.35200  0.65090  0.51540  1.0000
  H   H47       1.0  0.14800  0.15090  0.98460  1.0000
  H   H48       1.0  0.85200  0.15090  0.51540  1.0000
  C   C89       1.0  0.29960  0.16360  0.15960  1.0000
  C   C90       1.0  0.70040  0.16360  0.34040  1.0000
  C   C91       1.0  0.79960  0.66360  0.15960  1.0000
  C   C92       1.0  0.20040  0.66360  0.34040  1.0000
  C   C93       1.0  0.70040  0.83640  0.84040  1.0000
  C   C94       1.0  0.29960  0.83640  0.65960  1.0000
  C   C95       1.0  0.20040  0.33640  0.84040  1.0000
  C   C96       1.0  0.79960  0.33640  0.65960  1.0000
  C   C97       1.0  0.95560  0.42120  0.22710  1.0000
  C   C98       1.0  0.04440  0.42120  0.27290  1.0000
  C   C99       1.0  0.45560  0.92120  0.22710  1.0000
  C   C100      1.0  0.54440  0.92120  0.27290  1.0000
  C   C101      1.0  0.04440  0.57880  0.77290  1.0000
  C   C102      1.0  0.95560  0.57880  0.72710  1.0000
  C   C103      1.0  0.54440  0.07880  0.77290  1.0000
  C   C104      1.0  0.45560  0.07880  0.72710  1.0000
  C   C105      1.0  0.91380  0.36120  0.20360  1.0000
  C   C106      1.0  0.08620  0.36120  0.29640  1.0000
  C   C107      1.0  0.41380  0.86120  0.20360  1.0000
  C   C108      1.0  0.58620  0.86120  0.29640  1.0000
  C   C109      1.0  0.08620  0.63880  0.79640  1.0000
  C   C110      1.0  0.91380  0.63880  0.70360  1.0000
  C   C111      1.0  0.58620  0.13880  0.79640  1.0000
  C   C112      1.0  0.41380  0.13880  0.70360  1.0000
  C   C113      1.0  0.82560  0.36530  0.15700  1.0000
  C   C114      1.0  0.17440  0.36530  0.34300  1.0000
  C   C115      1.0  0.32560  0.86530  0.15700  1.0000
  C   C116      1.0  0.67440  0.86530  0.34300  1.0000
  C   C117      1.0  0.17440  0.63470  0.84300  1.0000
  C   C118      1.0  0.82560  0.63470  0.65700  1.0000
  C   C119      1.0  0.67440  0.13470  0.84300  1.0000
  C   C120      1.0  0.32560  0.13470  0.65700  1.0000
  H   H49       1.0  0.79520  0.32760  0.13970  1.0000
  H   H50       1.0  0.20480  0.32760  0.36030  1.0000
  H   H51       1.0  0.29520  0.82760  0.13970  1.0000
  H   H52       1.0  0.70480  0.82760  0.36030  1.0000
  H   H53       1.0  0.20480  0.67240  0.86030  1.0000
  H   H54       1.0  0.79520  0.67240  0.63970  1.0000
  H   H55       1.0  0.70480  0.17240  0.86030  1.0000
  H   H56       1.0  0.29520  0.17240  0.63970  1.0000
  C   C121      1.0  0.78320  0.42230  0.13650  1.0000
  C   C122      1.0  0.21680  0.42230  0.36350  1.0000
  C   C123      1.0  0.28320  0.92230  0.13650  1.0000
  C   C124      1.0  0.71680  0.92230  0.36350  1.0000
  C   C125      1.0  0.21680  0.57770  0.86350  1.0000
  C   C126      1.0  0.78320  0.57770  0.63650  1.0000
  C   C127      1.0  0.71680  0.07770  0.86350  1.0000
  C   C128      1.0  0.28320  0.07770  0.63650  1.0000
  H   H57       1.0  0.72540  0.42390  0.10520  1.0000
  H   H58       1.0  0.27460  0.42390  0.39480  1.0000
  H   H59       1.0  0.22540  0.92390  0.10520  1.0000
  H   H60       1.0  0.77460  0.92390  0.39480  1.0000
  H   H61       1.0  0.27460  0.57610  0.89480  1.0000
  H   H62       1.0  0.72540  0.57610  0.60520  1.0000
  H   H63       1.0  0.77460  0.07610  0.89480  1.0000
  H   H64       1.0  0.22540  0.07610  0.60520  1.0000
  C   C129      1.0  0.82900  0.47800  0.16380  1.0000
  C   C130      1.0  0.17100  0.47800  0.33620  1.0000
  C   C131      1.0  0.32900  0.97800  0.16380  1.0000
  C   C132      1.0  0.67100  0.97800  0.33620  1.0000
  C   C133      1.0  0.17100  0.52200  0.83620  1.0000
  C   C134      1.0  0.82900  0.52200  0.66380  1.0000
  C   C135      1.0  0.67100  0.02200  0.83620  1.0000
  C   C136      1.0  0.32900  0.02200  0.66380  1.0000
  H   H65       1.0  0.80000  0.51710  0.15060  1.0000
  H   H66       1.0  0.20000  0.51710  0.34940  1.0000
  H   H67       1.0  0.30000  0.01710  0.15060  1.0000
  H   H68       1.0  0.70000  0.01710  0.34940  1.0000
  H   H69       1.0  0.20000  0.48290  0.84940  1.0000
  H   H70       1.0  0.80000  0.48290  0.65060  1.0000
  H   H71       1.0  0.70000  0.98290  0.84940  1.0000
  H   H72       1.0  0.30000  0.98290  0.65060  1.0000
  C   C137      1.0  0.96030  0.30320  0.22940  1.0000
  C   C138      1.0  0.03970  0.30320  0.27060  1.0000
  C   C139      1.0  0.46030  0.80320  0.22940  1.0000
  C   C140      1.0  0.53970  0.80320  0.27060  1.0000
  C   C141      1.0  0.03970  0.69680  0.77060  1.0000
  C   C142      1.0  0.96030  0.69680  0.72940  1.0000
  C   C143      1.0  0.53970  0.19680  0.77060  1.0000
  C   C144      1.0  0.46030  0.19680  0.72940  1.0000
  H   H73       1.0  0.93130  0.26420  0.21560  1.0000
  H   H74       1.0  0.06870  0.26420  0.28440  1.0000
  H   H75       1.0  0.43130  0.76420  0.21560  1.0000
  H   H76       1.0  0.56870  0.76420  0.28440  1.0000
  H   H77       1.0  0.06870  0.73580  0.78440  1.0000
  H   H78       1.0  0.93130  0.73580  0.71560  1.0000
  H   H79       1.0  0.56870  0.23580  0.78440  1.0000
  H   H80       1.0  0.43130  0.23580  0.71560  1.0000
  C   C145      1.0  0.02330  0.75580  0.22500  1.0000
  C   C146      1.0  0.97670  0.75580  0.27500  1.0000
  C   C147      1.0  0.52330  0.25580  0.22500  1.0000
  C   C148      1.0  0.47670  0.25580  0.27500  1.0000
  C   C149      1.0  0.97670  0.24420  0.77500  1.0000
  C   C150      1.0  0.02330  0.24420  0.72500  1.0000
  C   C151      1.0  0.47670  0.74420  0.77500  1.0000
  C   C152      1.0  0.52330  0.74420  0.72500  1.0000
  C   C153      1.0  0.04280  0.81430  0.19950  1.0000
  C   C154      1.0  0.95720  0.81430  0.30050  1.0000
  C   C155      1.0  0.54280  0.31430  0.19950  1.0000
  C   C156      1.0  0.45720  0.31430  0.30050  1.0000
  C   C157      1.0  0.95720  0.18570  0.80050  1.0000
  C   C158      1.0  0.04280  0.18570  0.69950  1.0000
  C   C159      1.0  0.45720  0.68570  0.80050  1.0000
  C   C160      1.0  0.54280  0.68570  0.69950  1.0000
  C   C161      1.0  0.08830  0.81190  0.15070  1.0000
  C   C162      1.0  0.91170  0.81190  0.34930  1.0000
  C   C163      1.0  0.58830  0.31190  0.15070  1.0000
  C   C164      1.0  0.41170  0.31190  0.34930  1.0000
  C   C165      1.0  0.91170  0.18810  0.84930  1.0000
  C   C166      1.0  0.08830  0.18810  0.65070  1.0000
  C   C167      1.0  0.41170  0.68810  0.84930  1.0000
  C   C168      1.0  0.58830  0.68810  0.65070  1.0000
  H   H81       1.0  0.10300  0.84990  0.13290  1.0000
  H   H82       1.0  0.89700  0.84990  0.36710  1.0000
  H   H83       1.0  0.60300  0.34990  0.13290  1.0000
  H   H84       1.0  0.39700  0.34990  0.36710  1.0000
  H   H85       1.0  0.89700  0.15010  0.86710  1.0000
  H   H86       1.0  0.10300  0.15010  0.63290  1.0000
  H   H87       1.0  0.39700  0.65010  0.86710  1.0000
  H   H88       1.0  0.60300  0.65010  0.63290  1.0000
  C   C169      1.0  0.11180  0.75420  0.12870  1.0000
  C   C170      1.0  0.88820  0.75420  0.37130  1.0000
  C   C171      1.0  0.61180  0.25420  0.12870  1.0000
  C   C172      1.0  0.38820  0.25420  0.37130  1.0000
  C   C173      1.0  0.88820  0.24580  0.87130  1.0000
  C   C174      1.0  0.11180  0.24580  0.62870  1.0000
  C   C175      1.0  0.38820  0.74580  0.87130  1.0000
  C   C176      1.0  0.61180  0.74580  0.62870  1.0000
  H   H89       1.0  0.14190  0.75250  0.09600  1.0000
  H   H90       1.0  0.85810  0.75250  0.40400  1.0000
  H   H91       1.0  0.64190  0.25250  0.09600  1.0000
  H   H92       1.0  0.35810  0.25250  0.40400  1.0000
  H   H93       1.0  0.85810  0.24750  0.90400  1.0000
  H   H94       1.0  0.14190  0.24750  0.59600  1.0000
  H   H95       1.0  0.35810  0.74750  0.90400  1.0000
  H   H96       1.0  0.64190  0.74750  0.59600  1.0000
  C   C177      1.0  0.08980  0.69930  0.15620  1.0000
  C   C178      1.0  0.91020  0.69930  0.34380  1.0000
  C   C179      1.0  0.58980  0.19930  0.15620  1.0000
  C   C180      1.0  0.41020  0.19930  0.34380  1.0000
  C   C181      1.0  0.91020  0.30070  0.84380  1.0000
  C   C182      1.0  0.08980  0.30070  0.65620  1.0000
  C   C183      1.0  0.41020  0.80070  0.84380  1.0000
  C   C184      1.0  0.58980  0.80070  0.65620  1.0000
  H   H97       1.0  0.10650  0.66020  0.14180  1.0000
  H   H98       1.0  0.89350  0.66020  0.35820  1.0000
  H   H99       1.0  0.60650  0.16020  0.14180  1.0000
  H   H100      1.0  0.39350  0.16020  0.35820  1.0000
  H   H101      1.0  0.89350  0.33980  0.85820  1.0000
  H   H102      1.0  0.10650  0.33980  0.64180  1.0000
  H   H103      1.0  0.39350  0.83980  0.85820  1.0000
  H   H104      1.0  0.60650  0.83980  0.64180  1.0000
  C   C185      1.0  0.01980  0.87330  0.22670  1.0000
  C   C186      1.0  0.98020  0.87330  0.27330  1.0000
  C   C187      1.0  0.51980  0.37330  0.22670  1.0000
  C   C188      1.0  0.48020  0.37330  0.27330  1.0000
  C   C189      1.0  0.98020  0.12670  0.77330  1.0000
  C   C190      1.0  0.01980  0.12670  0.72670  1.0000
  C   C191      1.0  0.48020  0.62670  0.77330  1.0000
  C   C192      1.0  0.51980  0.62670  0.72670  1.0000
  H   H105      1.0  0.03390  0.91220  0.21030  1.0000
  H   H106      1.0  0.96610  0.91220  0.28970  1.0000
  H   H107      1.0  0.53390  0.41220  0.21030  1.0000
  H   H108      1.0  0.46610  0.41220  0.28970  1.0000
  H   H109      1.0  0.96610  0.08780  0.78970  1.0000
  H   H110      1.0  0.03390  0.08780  0.71030  1.0000
  H   H111      1.0  0.46610  0.58780  0.78970  1.0000
  H   H112      1.0  0.53390  0.58780  0.71030  1.0000
