data_image0
_chemical_formula_structural       Sm4S16N32O32C24H8C8H8C8H8C32H8C8H8C8H8C32H8C8H8C8H8C8H8C24H8C8H8C8H8C8H8
_chemical_formula_sum              "Sm4 S16 N32 O32 C192 H112"
_cell_length_a       15.4249
_cell_length_b       20.8456
_cell_length_c       20.5195
_cell_angle_alpha    90
_cell_angle_beta     107.921
_cell_angle_gamma    90

_space_group_name_H-M_alt    "P 1"
_space_group_IT_number       1

loop_
  _space_group_symop_operation_xyz
  'x, y, z'

loop_
  _atom_site_type_symbol
  _atom_site_label
  _atom_site_symmetry_multiplicity
  _atom_site_fract_x
  _atom_site_fract_y
  _atom_site_fract_z
  _atom_site_occupancy
  Sm  Sm1       1.0  0.00000  0.58917  0.25000  1.0000
  Sm  Sm2       1.0  0.50000  0.08917  0.25000  1.0000
  Sm  Sm3       1.0  0.00000  0.41083  0.75000  1.0000
  Sm  Sm4       1.0  0.50000  0.91083  0.75000  1.0000
  S   S1        1.0  0.22205  0.29624  0.18037  1.0000
  S   S2        1.0  0.77795  0.29624  0.31963  1.0000
  S   S3        1.0  0.72205  0.79624  0.18037  1.0000
  S   S4        1.0  0.27795  0.79624  0.31963  1.0000
  S   S5        1.0  0.77795  0.70376  0.81963  1.0000
  S   S6        1.0  0.22205  0.70376  0.68037  1.0000
  S   S7        1.0  0.27795  0.20376  0.81963  1.0000
  S   S8        1.0  0.72205  0.20376  0.68037  1.0000
  S   S9        1.0  0.20139  0.39174  0.17174  1.0000
  S   S10       1.0  0.79861  0.39174  0.32826  1.0000
  S   S11       1.0  0.70139  0.89174  0.17174  1.0000
  S   S12       1.0  0.29861  0.89174  0.32826  1.0000
  S   S13       1.0  0.79861  0.60826  0.82826  1.0000
  S   S14       1.0  0.20139  0.60826  0.67174  1.0000
  S   S15       1.0  0.29861  0.10826  0.82826  1.0000
  S   S16       1.0  0.70139  0.10826  0.67174  1.0000
  N   N1        1.0  0.04920  0.34460  0.08120  1.0000
  N   N2        1.0  0.95080  0.34460  0.41880  1.0000
  N   N3        1.0  0.54920  0.84460  0.08120  1.0000
  N   N4        1.0  0.45080  0.84460  0.41880  1.0000
  N   N5        1.0  0.95080  0.65540  0.91880  1.0000
  N   N6        1.0  0.04920  0.65540  0.58120  1.0000
  N   N7        1.0  0.45080  0.15540  0.91880  1.0000
  N   N8        1.0  0.54920  0.15540  0.58120  1.0000
  N   N9        1.0  0.29800  0.32790  0.08370  1.0000
  N   N10       1.0  0.70200  0.32790  0.41630  1.0000
  N   N11       1.0  0.79800  0.82790  0.08370  1.0000
  N   N12       1.0  0.20200  0.82790  0.41630  1.0000
  N   N13       1.0  0.70200  0.67210  0.91630  1.0000
  N   N14       1.0  0.29800  0.67210  0.58370  1.0000
  N   N15       1.0  0.20200  0.17210  0.91630  1.0000
  N   N16       1.0  0.79800  0.17210  0.58370  1.0000
  N   N17       1.0  0.91220  0.48100  0.20830  1.0000
  N   N18       1.0  0.08780  0.48100  0.29170  1.0000
  N   N19       1.0  0.41220  0.98100  0.20830  1.0000
  N   N20       1.0  0.58780  0.98100  0.29170  1.0000
  N   N21       1.0  0.08780  0.51900  0.79170  1.0000
  N   N22       1.0  0.91220  0.51900  0.70830  1.0000
  N   N23       1.0  0.58780  0.01900  0.79170  1.0000
  N   N24       1.0  0.41220  0.01900  0.70830  1.0000
  N   N25       1.0  0.04700  0.69790  0.20260  1.0000
  N   N26       1.0  0.95300  0.69790  0.29740  1.0000
  N   N27       1.0  0.54700  0.19790  0.20260  1.0000
  N   N28       1.0  0.45300  0.19790  0.29740  1.0000
  N   N29       1.0  0.95300  0.30210  0.79740  1.0000
  N   N30       1.0  0.04700  0.30210  0.70260  1.0000
  N   N31       1.0  0.45300  0.80210  0.79740  1.0000
  N   N32       1.0  0.54700  0.80210  0.70260  1.0000
  O   O1        1.0  0.17620  0.52490  0.14200  1.0000
  O   O2        1.0  0.82380  0.52490  0.35800  1.0000
  O   O3        1.0  0.67620  0.02490  0.14200  1.0000
  O   O4        1.0  0.32380  0.02490  0.35800  1.0000
  O   O5        1.0  0.82380  0.47510  0.85800  1.0000
  O   O6        1.0  0.17620  0.47510  0.64200  1.0000
  O   O7        1.0  0.32380  0.97510  0.85800  1.0000
  O   O8        1.0  0.67620  0.97510  0.64200  1.0000
  O   O9        1.0  0.04780  0.55800  0.15830  1.0000
  O   O10       1.0  0.95220  0.55800  0.34170  1.0000
  O   O11       1.0  0.54780  0.05800  0.15830  1.0000
  O   O12       1.0  0.45220  0.05800  0.34170  1.0000
  O   O13       1.0  0.95220  0.44200  0.84170  1.0000
  O   O14       1.0  0.04780  0.44200  0.65830  1.0000
  O   O15       1.0  0.45220  0.94200  0.84170  1.0000
  O   O16       1.0  0.54780  0.94200  0.65830  1.0000
  O   O17       1.0  0.36080  0.12000  0.17620  1.0000
  O   O18       1.0  0.63920  0.12000  0.32380  1.0000
  O   O19       1.0  0.86080  0.62000  0.17620  1.0000
  O   O20       1.0  0.13920  0.62000  0.32380  1.0000
  O   O21       1.0  0.63920  0.88000  0.82380  1.0000
  O   O22       1.0  0.36080  0.88000  0.67620  1.0000
  O   O23       1.0  0.13920  0.38000  0.82380  1.0000
  O   O24       1.0  0.86080  0.38000  0.67620  1.0000
  O   O25       1.0  0.23120  0.16450  0.17910  1.0000
  O   O26       1.0  0.76880  0.16450  0.32090  1.0000
  O   O27       1.0  0.73120  0.66450  0.17910  1.0000
  O   O28       1.0  0.26880  0.66450  0.32090  1.0000
  O   O29       1.0  0.76880  0.83550  0.82090  1.0000
  O   O30       1.0  0.23120  0.83550  0.67910  1.0000
  O   O31       1.0  0.26880  0.33550  0.82090  1.0000
  O   O32       1.0  0.73120  0.33550  0.67910  1.0000
  C   C1        1.0  0.08890  0.39770  0.11200  1.0000
  C   C2        1.0  0.91110  0.39770  0.38800  1.0000
  C   C3        1.0  0.58890  0.89770  0.11200  1.0000
  C   C4        1.0  0.41110  0.89770  0.38800  1.0000
  C   C5        1.0  0.91110  0.60230  0.88800  1.0000
  C   C6        1.0  0.08890  0.60230  0.61200  1.0000
  C   C7        1.0  0.41110  0.10230  0.88800  1.0000
  C   C8        1.0  0.58890  0.10230  0.61200  1.0000
  C   C9        1.0  0.04760  0.45940  0.10260  1.0000
  C   C10       1.0  0.95240  0.45940  0.39740  1.0000
  C   C11       1.0  0.54760  0.95940  0.10260  1.0000
  C   C12       1.0  0.45240  0.95940  0.39740  1.0000
  C   C13       1.0  0.95240  0.54060  0.89740  1.0000
  C   C14       1.0  0.04760  0.54060  0.60260  1.0000
  C   C15       1.0  0.45240  0.04060  0.89740  1.0000
  C   C16       1.0  0.54760  0.04060  0.60260  1.0000
  C   C17       1.0  0.95830  0.46230  0.05870  1.0000
  C   C18       1.0  0.04170  0.46230  0.44130  1.0000
  C   C19       1.0  0.45830  0.96230  0.05870  1.0000
  C   C20       1.0  0.54170  0.96230  0.44130  1.0000
  C   C21       1.0  0.04170  0.53770  0.94130  1.0000
  C   C22       1.0  0.95830  0.53770  0.55870  1.0000
  C   C23       1.0  0.54170  0.03770  0.94130  1.0000
  C   C24       1.0  0.45830  0.03770  0.55870  1.0000
  H   H1        1.0  0.92630  0.50080  0.05150  1.0000
  H   H2        1.0  0.07370  0.50080  0.44850  1.0000
  H   H3        1.0  0.42630  0.00080  0.05150  1.0000
  H   H4        1.0  0.57370  0.00080  0.44850  1.0000
  H   H5        1.0  0.07370  0.49920  0.94850  1.0000
  H   H6        1.0  0.92630  0.49920  0.55150  1.0000
  H   H7        1.0  0.57370  0.99920  0.94850  1.0000
  H   H8        1.0  0.42630  0.99920  0.55150  1.0000
  C   C25       1.0  0.91770  0.40630  0.02580  1.0000
  C   C26       1.0  0.08230  0.40630  0.47420  1.0000
  C   C27       1.0  0.41770  0.90630  0.02580  1.0000
  C   C28       1.0  0.58230  0.90630  0.47420  1.0000
  C   C29       1.0  0.08230  0.59370  0.97420  1.0000
  C   C30       1.0  0.91770  0.59370  0.52580  1.0000
  C   C31       1.0  0.58230  0.09370  0.97420  1.0000
  C   C32       1.0  0.41770  0.09370  0.52580  1.0000
  H   H9        1.0  0.85850  0.40730  0.99600  1.0000
  H   H10       1.0  0.14150  0.40730  0.50400  1.0000
  H   H11       1.0  0.35850  0.90730  0.99600  1.0000
  H   H12       1.0  0.64150  0.90730  0.50400  1.0000
  H   H13       1.0  0.14150  0.59270  0.00400  1.0000
  H   H14       1.0  0.85850  0.59270  0.49600  1.0000
  H   H15       1.0  0.64150  0.09270  0.00400  1.0000
  H   H16       1.0  0.35850  0.09270  0.49600  1.0000
  C   C33       1.0  0.96490  0.35070  0.03740  1.0000
  C   C34       1.0  0.03510  0.35070  0.46260  1.0000
  C   C35       1.0  0.46490  0.85070  0.03740  1.0000
  C   C36       1.0  0.53510  0.85070  0.46260  1.0000
  C   C37       1.0  0.03510  0.64930  0.96260  1.0000
  C   C38       1.0  0.96490  0.64930  0.53740  1.0000
  C   C39       1.0  0.53510  0.14930  0.96260  1.0000
  C   C40       1.0  0.46490  0.14930  0.53740  1.0000
  H   H17       1.0  0.93730  0.31440  0.01350  1.0000
  H   H18       1.0  0.06270  0.31440  0.48650  1.0000
  H   H19       1.0  0.43730  0.81440  0.01350  1.0000
  H   H20       1.0  0.56270  0.81440  0.48650  1.0000
  H   H21       1.0  0.06270  0.68560  0.98650  1.0000
  H   H22       1.0  0.93730  0.68560  0.51350  1.0000
  H   H23       1.0  0.56270  0.18560  0.98650  1.0000
  H   H24       1.0  0.43730  0.18560  0.51350  1.0000
  C   C41       1.0  0.09340  0.51750  0.13640  1.0000
  C   C42       1.0  0.90660  0.51750  0.36360  1.0000
  C   C43       1.0  0.59340  0.01750  0.13640  1.0000
  C   C44       1.0  0.40660  0.01750  0.36360  1.0000
  C   C45       1.0  0.90660  0.48250  0.86360  1.0000
  C   C46       1.0  0.09340  0.48250  0.63640  1.0000
  C   C47       1.0  0.40660  0.98250  0.86360  1.0000
  C   C48       1.0  0.59340  0.98250  0.63640  1.0000
  C   C49       1.0  0.28290  0.28110  0.12000  1.0000
  C   C50       1.0  0.71710  0.28110  0.38000  1.0000
  C   C51       1.0  0.78290  0.78110  0.12000  1.0000
  C   C52       1.0  0.21710  0.78110  0.38000  1.0000
  C   C53       1.0  0.71710  0.71890  0.88000  1.0000
  C   C54       1.0  0.28290  0.71890  0.62000  1.0000
  C   C55       1.0  0.21710  0.21890  0.88000  1.0000
  C   C56       1.0  0.78290  0.21890  0.62000  1.0000
  C   C57       1.0  0.31560  0.21860  0.11640  1.0000
  C   C58       1.0  0.68440  0.21860  0.38360  1.0000
  C   C59       1.0  0.81560  0.71860  0.11640  1.0000
  C   C60       1.0  0.18440  0.71860  0.38360  1.0000
  C   C61       1.0  0.68440  0.78140  0.88360  1.0000
  C   C62       1.0  0.31560  0.78140  0.61640  1.0000
  C   C63       1.0  0.18440  0.28140  0.88360  1.0000
  C   C64       1.0  0.81560  0.28140  0.61640  1.0000
  C   C65       1.0  0.36500  0.20840  0.07190  1.0000
  C   C66       1.0  0.63500  0.20840  0.42810  1.0000
  C   C67       1.0  0.86500  0.70840  0.07190  1.0000
  C   C68       1.0  0.13500  0.70840  0.42810  1.0000
  C   C69       1.0  0.63500  0.79160  0.92810  1.0000
  C   C70       1.0  0.36500  0.79160  0.57190  1.0000
  C   C71       1.0  0.13500  0.29160  0.92810  1.0000
  C   C72       1.0  0.86500  0.29160  0.57190  1.0000
  H   H25       1.0  0.38970  0.16810  0.06940  1.0000
  H   H26       1.0  0.61030  0.16810  0.43060  1.0000
  H   H27       1.0  0.88970  0.66810  0.06940  1.0000
  H   H28       1.0  0.11030  0.66810  0.43060  1.0000
  H   H29       1.0  0.61030  0.83190  0.93060  1.0000
  H   H30       1.0  0.38970  0.83190  0.56940  1.0000
  H   H31       1.0  0.11030  0.33190  0.93060  1.0000
  H   H32       1.0  0.88970  0.33190  0.56940  1.0000
  C   C73       1.0  0.37770  0.25470  0.03290  1.0000
  C   C74       1.0  0.62230  0.25470  0.46710  1.0000
  C   C75       1.0  0.87770  0.75470  0.03290  1.0000
  C   C76       1.0  0.12230  0.75470  0.46710  1.0000
  C   C77       1.0  0.62230  0.74530  0.96710  1.0000
  C   C78       1.0  0.37770  0.74530  0.53290  1.0000
  C   C79       1.0  0.12230  0.24530  0.96710  1.0000
  C   C80       1.0  0.87770  0.24530  0.53290  1.0000
  H   H33       1.0  0.40940  0.24790  0.00170  1.0000
  H   H34       1.0  0.59060  0.24790  0.49830  1.0000
  H   H35       1.0  0.90940  0.74790  0.00170  1.0000
  H   H36       1.0  0.09060  0.74790  0.49830  1.0000
  H   H37       1.0  0.59060  0.75210  0.99830  1.0000
  H   H38       1.0  0.40940  0.75210  0.50170  1.0000
  H   H39       1.0  0.09060  0.25210  0.99830  1.0000
  H   H40       1.0  0.90940  0.25210  0.50170  1.0000
  C   C81       1.0  0.34160  0.31530  0.03990  1.0000
  C   C82       1.0  0.65840  0.31530  0.46010  1.0000
  C   C83       1.0  0.84160  0.81530  0.03990  1.0000
  C   C84       1.0  0.15840  0.81530  0.46010  1.0000
  C   C85       1.0  0.65840  0.68470  0.96010  1.0000
  C   C86       1.0  0.34160  0.68470  0.53990  1.0000
  C   C87       1.0  0.15840  0.18470  0.96010  1.0000
  C   C88       1.0  0.84160  0.18470  0.53990  1.0000
  H   H41       1.0  0.34930  0.34840  0.01170  1.0000
  H   H42       1.0  0.65070  0.34840  0.48830  1.0000
  H   H43       1.0  0.84930  0.84840  0.01170  1.0000
  H   H44       1.0  0.15070  0.84840  0.48830  1.0000
  H   H45       1.0  0.65070  0.65160  0.98830  1.0000
  H   H46       1.0  0.34930  0.65160  0.51170  1.0000
  H   H47       1.0  0.15070  0.15160  0.98830  1.0000
  H   H48       1.0  0.84930  0.15160  0.51170  1.0000
  C   C89       1.0  0.30060  0.16440  0.15920  1.0000
  C   C90       1.0  0.69940  0.16440  0.34080  1.0000
  C   C91       1.0  0.80060  0.66440  0.15920  1.0000
  C   C92       1.0  0.19940  0.66440  0.34080  1.0000
  C   C93       1.0  0.69940  0.83560  0.84080  1.0000
  C   C94       1.0  0.30060  0.83560  0.65920  1.0000
  C   C95       1.0  0.19940  0.33560  0.84080  1.0000
  C   C96       1.0  0.80060  0.33560  0.65920  1.0000
  C   C97       1.0  0.95590  0.42370  0.22730  1.0000
  C   C98       1.0  0.04410  0.42370  0.27270  1.0000
  C   C99       1.0  0.45590  0.92370  0.22730  1.0000
  C   C100      1.0  0.54410  0.92370  0.27270  1.0000
  C   C101      1.0  0.04410  0.57630  0.77270  1.0000
  C   C102      1.0  0.95590  0.57630  0.72730  1.0000
  C   C103      1.0  0.54410  0.07630  0.77270  1.0000
  C   C104      1.0  0.45590  0.07630  0.72730  1.0000
  C   C105      1.0  0.91290  0.36440  0.20310  1.0000
  C   C106      1.0  0.08710  0.36440  0.29690  1.0000
  C   C107      1.0  0.41290  0.86440  0.20310  1.0000
  C   C108      1.0  0.58710  0.86440  0.29690  1.0000
  C   C109      1.0  0.08710  0.63560  0.79690  1.0000
  C   C110      1.0  0.91290  0.63560  0.70310  1.0000
  C   C111      1.0  0.58710  0.13560  0.79690  1.0000
  C   C112      1.0  0.41290  0.13560  0.70310  1.0000
  C   C113      1.0  0.82310  0.36850  0.15600  1.0000
  C   C114      1.0  0.17690  0.36850  0.34400  1.0000
  C   C115      1.0  0.32310  0.86850  0.15600  1.0000
  C   C116      1.0  0.67690  0.86850  0.34400  1.0000
  C   C117      1.0  0.17690  0.63150  0.84400  1.0000
  C   C118      1.0  0.82310  0.63150  0.65600  1.0000
  C   C119      1.0  0.67690  0.13150  0.84400  1.0000
  C   C120      1.0  0.32310  0.13150  0.65600  1.0000
  H   H49       1.0  0.79300  0.33100  0.13730  1.0000
  H   H50       1.0  0.20700  0.33100  0.36270  1.0000
  H   H51       1.0  0.29300  0.83100  0.13730  1.0000
  H   H52       1.0  0.70700  0.83100  0.36270  1.0000
  H   H53       1.0  0.20700  0.66900  0.86270  1.0000
  H   H54       1.0  0.79300  0.66900  0.63730  1.0000
  H   H55       1.0  0.70700  0.16900  0.86270  1.0000
  H   H56       1.0  0.29300  0.16900  0.63730  1.0000
  C   C121      1.0  0.78180  0.42380  0.13830  1.0000
  C   C122      1.0  0.21820  0.42380  0.36170  1.0000
  C   C123      1.0  0.28180  0.92380  0.13830  1.0000
  C   C124      1.0  0.71820  0.92380  0.36170  1.0000
  C   C125      1.0  0.21820  0.57620  0.86170  1.0000
  C   C126      1.0  0.78180  0.57620  0.63830  1.0000
  C   C127      1.0  0.71820  0.07620  0.86170  1.0000
  C   C128      1.0  0.28180  0.07620  0.63830  1.0000
  H   H57       1.0  0.72290  0.42540  0.10810  1.0000
  H   H58       1.0  0.27710  0.42540  0.39190  1.0000
  H   H59       1.0  0.22290  0.92540  0.10810  1.0000
  H   H60       1.0  0.77710  0.92540  0.39190  1.0000
  H   H61       1.0  0.27710  0.57460  0.89190  1.0000
  H   H62       1.0  0.72290  0.57460  0.60810  1.0000
  H   H63       1.0  0.77710  0.07460  0.89190  1.0000
  H   H64       1.0  0.22290  0.07460  0.60810  1.0000
  C   C129      1.0  0.82760  0.48010  0.16550  1.0000
  C   C130      1.0  0.17240  0.48010  0.33450  1.0000
  C   C131      1.0  0.32760  0.98010  0.16550  1.0000
  C   C132      1.0  0.67240  0.98010  0.33450  1.0000
  C   C133      1.0  0.17240  0.51990  0.83450  1.0000
  C   C134      1.0  0.82760  0.51990  0.66550  1.0000
  C   C135      1.0  0.67240  0.01990  0.83450  1.0000
  C   C136      1.0  0.32760  0.01990  0.66550  1.0000
  H   H65       1.0  0.79740  0.51900  0.15320  1.0000
  H   H66       1.0  0.20260  0.51900  0.34680  1.0000
  H   H67       1.0  0.29740  0.01900  0.15320  1.0000
  H   H68       1.0  0.70260  0.01900  0.34680  1.0000
  H   H69       1.0  0.20260  0.48100  0.84680  1.0000
  H   H70       1.0  0.79740  0.48100  0.65320  1.0000
  H   H71       1.0  0.70260  0.98100  0.84680  1.0000
  H   H72       1.0  0.29740  0.98100  0.65320  1.0000
  C   C137      1.0  0.96230  0.30580  0.23030  1.0000
  C   C138      1.0  0.03770  0.30580  0.26970  1.0000
  C   C139      1.0  0.46230  0.80580  0.23030  1.0000
  C   C140      1.0  0.53770  0.80580  0.26970  1.0000
  C   C141      1.0  0.03770  0.69420  0.76970  1.0000
  C   C142      1.0  0.96230  0.69420  0.73030  1.0000
  C   C143      1.0  0.53770  0.19420  0.76970  1.0000
  C   C144      1.0  0.46230  0.19420  0.73030  1.0000
  H   H73       1.0  0.93390  0.26660  0.21630  1.0000
  H   H74       1.0  0.06610  0.26660  0.28370  1.0000
  H   H75       1.0  0.43390  0.76660  0.21630  1.0000
  H   H76       1.0  0.56610  0.76660  0.28370  1.0000
  H   H77       1.0  0.06610  0.73340  0.78370  1.0000
  H   H78       1.0  0.93390  0.73340  0.71630  1.0000
  H   H79       1.0  0.56610  0.23340  0.78370  1.0000
  H   H80       1.0  0.43390  0.23340  0.71630  1.0000
  C   C145      1.0  0.02310  0.75440  0.22520  1.0000
  C   C146      1.0  0.97690  0.75440  0.27480  1.0000
  C   C147      1.0  0.52310  0.25440  0.22520  1.0000
  C   C148      1.0  0.47690  0.25440  0.27480  1.0000
  C   C149      1.0  0.97690  0.24560  0.77480  1.0000
  C   C150      1.0  0.02310  0.24560  0.72520  1.0000
  C   C151      1.0  0.47690  0.74560  0.77480  1.0000
  C   C152      1.0  0.52310  0.74560  0.72520  1.0000
  C   C153      1.0  0.04370  0.81410  0.19960  1.0000
  C   C154      1.0  0.95630  0.81410  0.30040  1.0000
  C   C155      1.0  0.54370  0.31410  0.19960  1.0000
  C   C156      1.0  0.45630  0.31410  0.30040  1.0000
  C   C157      1.0  0.95630  0.18590  0.80040  1.0000
  C   C158      1.0  0.04370  0.18590  0.69960  1.0000
  C   C159      1.0  0.45630  0.68590  0.80040  1.0000
  C   C160      1.0  0.54370  0.68590  0.69960  1.0000
  C   C161      1.0  0.08990  0.81210  0.15090  1.0000
  C   C162      1.0  0.91010  0.81210  0.34910  1.0000
  C   C163      1.0  0.58990  0.31210  0.15090  1.0000
  C   C164      1.0  0.41010  0.31210  0.34910  1.0000
  C   C165      1.0  0.91010  0.18790  0.84910  1.0000
  C   C166      1.0  0.08990  0.18790  0.65090  1.0000
  C   C167      1.0  0.41010  0.68790  0.84910  1.0000
  C   C168      1.0  0.58990  0.68790  0.65090  1.0000
  H   H81       1.0  0.10380  0.85010  0.13250  1.0000
  H   H82       1.0  0.89620  0.85010  0.36750  1.0000
  H   H83       1.0  0.60380  0.35010  0.13250  1.0000
  H   H84       1.0  0.39620  0.35010  0.36750  1.0000
  H   H85       1.0  0.89620  0.14990  0.86750  1.0000
  H   H86       1.0  0.10380  0.14990  0.63250  1.0000
  H   H87       1.0  0.39620  0.64990  0.86750  1.0000
  H   H88       1.0  0.60380  0.64990  0.63250  1.0000
  C   C169      1.0  0.11530  0.75360  0.12960  1.0000
  C   C170      1.0  0.88470  0.75360  0.37040  1.0000
  C   C171      1.0  0.61530  0.25360  0.12960  1.0000
  C   C172      1.0  0.38470  0.25360  0.37040  1.0000
  C   C173      1.0  0.88470  0.24640  0.87040  1.0000
  C   C174      1.0  0.11530  0.24640  0.62960  1.0000
  C   C175      1.0  0.38470  0.74640  0.87040  1.0000
  C   C176      1.0  0.61530  0.74640  0.62960  1.0000
  H   H89       1.0  0.14740  0.75180  0.09810  1.0000
  H   H90       1.0  0.85260  0.75180  0.40190  1.0000
  H   H91       1.0  0.64740  0.25180  0.09810  1.0000
  H   H92       1.0  0.35260  0.25180  0.40190  1.0000
  H   H93       1.0  0.85260  0.24820  0.90190  1.0000
  H   H94       1.0  0.14740  0.24820  0.59810  1.0000
  H   H95       1.0  0.35260  0.74820  0.90190  1.0000
  H   H96       1.0  0.64740  0.74820  0.59810  1.0000
  C   C177      1.0  0.09140  0.69830  0.15690  1.0000
  C   C178      1.0  0.90860  0.69830  0.34310  1.0000
  C   C179      1.0  0.59140  0.19830  0.15690  1.0000
  C   C180      1.0  0.40860  0.19830  0.34310  1.0000
  C   C181      1.0  0.90860  0.30170  0.84310  1.0000
  C   C182      1.0  0.09140  0.30170  0.65690  1.0000
  C   C183      1.0  0.40860  0.80170  0.84310  1.0000
  C   C184      1.0  0.59140  0.80170  0.65690  1.0000
  H   H97       1.0  0.10750  0.65910  0.14230  1.0000
  H   H98       1.0  0.89250  0.65910  0.35770  1.0000
  H   H99       1.0  0.60750  0.15910  0.14230  1.0000
  H   H100      1.0  0.39250  0.15910  0.35770  1.0000
  H   H101      1.0  0.89250  0.34090  0.85770  1.0000
  H   H102      1.0  0.10750  0.34090  0.64230  1.0000
  H   H103      1.0  0.39250  0.84090  0.85770  1.0000
  H   H104      1.0  0.60750  0.84090  0.64230  1.0000
  C   C185      1.0  0.01900  0.87260  0.22760  1.0000
  C   C186      1.0  0.98100  0.87260  0.27240  1.0000
  C   C187      1.0  0.51900  0.37260  0.22760  1.0000
  C   C188      1.0  0.48100  0.37260  0.27240  1.0000
  C   C189      1.0  0.98100  0.12740  0.77240  1.0000
  C   C190      1.0  0.01900  0.12740  0.72760  1.0000
  C   C191      1.0  0.48100  0.62740  0.77240  1.0000
  C   C192      1.0  0.51900  0.62740  0.72760  1.0000
  H   H105      1.0  0.03220  0.91170  0.21100  1.0000
  H   H106      1.0  0.96780  0.91170  0.28900  1.0000
  H   H107      1.0  0.53220  0.41170  0.21100  1.0000
  H   H108      1.0  0.46780  0.41170  0.28900  1.0000
  H   H109      1.0  0.96780  0.08830  0.78900  1.0000
  H   H110      1.0  0.03220  0.08830  0.71100  1.0000
  H   H111      1.0  0.46780  0.58830  0.78900  1.0000
  H   H112      1.0  0.53220  0.58830  0.71100  1.0000
