data_image0
_chemical_formula_structural       Dy4S16N32O32C24H8C8H8C8H8C32H8C8H8C8H8C32H8C8H8C8H8C8H8C24H8C8H8C8H8C8H8
_chemical_formula_sum              "Dy4 S16 N32 O32 C192 H112"
_cell_length_a       15.4348
_cell_length_b       20.7072
_cell_length_c       20.5941
_cell_angle_alpha    90
_cell_angle_beta     107.509
_cell_angle_gamma    90

_space_group_name_H-M_alt    "P 1"
_space_group_IT_number       1

loop_
  _space_group_symop_operation_xyz
  'x, y, z'

loop_
  _atom_site_type_symbol
  _atom_site_label
  _atom_site_symmetry_multiplicity
  _atom_site_fract_x
  _atom_site_fract_y
  _atom_site_fract_z
  _atom_site_occupancy
  Dy  Dy1       1.0  0.00000  0.58878  0.25000  1.0000
  Dy  Dy2       1.0  0.50000  0.08878  0.25000  1.0000
  Dy  Dy3       1.0  0.00000  0.41122  0.75000  1.0000
  Dy  Dy4       1.0  0.50000  0.91122  0.75000  1.0000
  S   S1        1.0  0.77740  0.29567  0.31981  1.0000
  S   S2        1.0  0.22260  0.29567  0.18019  1.0000
  S   S3        1.0  0.27740  0.79567  0.31981  1.0000
  S   S4        1.0  0.72260  0.79567  0.18019  1.0000
  S   S5        1.0  0.22260  0.70433  0.68019  1.0000
  S   S6        1.0  0.77740  0.70433  0.81981  1.0000
  S   S7        1.0  0.72260  0.20433  0.68019  1.0000
  S   S8        1.0  0.27740  0.20433  0.81981  1.0000
  S   S9        1.0  0.79949  0.39162  0.32872  1.0000
  S   S10       1.0  0.20051  0.39162  0.17128  1.0000
  S   S11       1.0  0.29949  0.89162  0.32872  1.0000
  S   S12       1.0  0.70051  0.89162  0.17128  1.0000
  S   S13       1.0  0.20051  0.60838  0.67128  1.0000
  S   S14       1.0  0.79949  0.60838  0.82872  1.0000
  S   S15       1.0  0.70051  0.10838  0.67128  1.0000
  S   S16       1.0  0.29949  0.10838  0.82872  1.0000
  N   N1        1.0  0.95070  0.34420  0.41840  1.0000
  N   N2        1.0  0.04930  0.34420  0.08160  1.0000
  N   N3        1.0  0.45070  0.84420  0.41840  1.0000
  N   N4        1.0  0.54930  0.84420  0.08160  1.0000
  N   N5        1.0  0.04930  0.65580  0.58160  1.0000
  N   N6        1.0  0.95070  0.65580  0.91840  1.0000
  N   N7        1.0  0.54930  0.15580  0.58160  1.0000
  N   N8        1.0  0.45070  0.15580  0.91840  1.0000
  N   N9        1.0  0.70330  0.32770  0.41720  1.0000
  N   N10       1.0  0.29670  0.32770  0.08280  1.0000
  N   N11       1.0  0.20330  0.82770  0.41720  1.0000
  N   N12       1.0  0.79670  0.82770  0.08280  1.0000
  N   N13       1.0  0.29670  0.67230  0.58280  1.0000
  N   N14       1.0  0.70330  0.67230  0.91720  1.0000
  N   N15       1.0  0.79670  0.17230  0.58280  1.0000
  N   N16       1.0  0.20330  0.17230  0.91720  1.0000
  N   N17       1.0  0.08840  0.48290  0.29130  1.0000
  N   N18       1.0  0.91160  0.48290  0.20870  1.0000
  N   N19       1.0  0.58840  0.98290  0.29130  1.0000
  N   N20       1.0  0.41160  0.98290  0.20870  1.0000
  N   N21       1.0  0.91160  0.51710  0.70870  1.0000
  N   N22       1.0  0.08840  0.51710  0.79130  1.0000
  N   N23       1.0  0.41160  0.01710  0.70870  1.0000
  N   N24       1.0  0.58840  0.01710  0.79130  1.0000
  N   N25       1.0  0.95490  0.69580  0.29760  1.0000
  N   N26       1.0  0.04510  0.69580  0.20240  1.0000
  N   N27       1.0  0.45490  0.19580  0.29760  1.0000
  N   N28       1.0  0.54510  0.19580  0.20240  1.0000
  N   N29       1.0  0.04510  0.30420  0.70240  1.0000
  N   N30       1.0  0.95490  0.30420  0.79760  1.0000
  N   N31       1.0  0.54510  0.80420  0.70240  1.0000
  N   N32       1.0  0.45490  0.80420  0.79760  1.0000
  O   O1        1.0  0.82640  0.52610  0.35930  1.0000
  O   O2        1.0  0.17360  0.52610  0.14070  1.0000
  O   O3        1.0  0.32640  0.02610  0.35930  1.0000
  O   O4        1.0  0.67360  0.02610  0.14070  1.0000
  O   O5        1.0  0.17360  0.47390  0.64070  1.0000
  O   O6        1.0  0.82640  0.47390  0.85930  1.0000
  O   O7        1.0  0.67360  0.97390  0.64070  1.0000
  O   O8        1.0  0.32640  0.97390  0.85930  1.0000
  O   O9        1.0  0.95330  0.55720  0.33950  1.0000
  O   O10       1.0  0.04670  0.55720  0.16050  1.0000
  O   O11       1.0  0.45330  0.05720  0.33950  1.0000
  O   O12       1.0  0.54670  0.05720  0.16050  1.0000
  O   O13       1.0  0.04670  0.44280  0.66050  1.0000
  O   O14       1.0  0.95330  0.44280  0.83950  1.0000
  O   O15       1.0  0.54670  0.94280  0.66050  1.0000
  O   O16       1.0  0.45330  0.94280  0.83950  1.0000
  O   O17       1.0  0.63420  0.12030  0.32270  1.0000
  O   O18       1.0  0.36580  0.12030  0.17730  1.0000
  O   O19       1.0  0.13420  0.62030  0.32270  1.0000
  O   O20       1.0  0.86580  0.62030  0.17730  1.0000
  O   O21       1.0  0.36580  0.87970  0.67730  1.0000
  O   O22       1.0  0.63420  0.87970  0.82270  1.0000
  O   O23       1.0  0.86580  0.37970  0.67730  1.0000
  O   O24       1.0  0.13420  0.37970  0.82270  1.0000
  O   O25       1.0  0.76580  0.16320  0.31970  1.0000
  O   O26       1.0  0.23420  0.16320  0.18030  1.0000
  O   O27       1.0  0.26580  0.66320  0.31970  1.0000
  O   O28       1.0  0.73420  0.66320  0.18030  1.0000
  O   O29       1.0  0.23420  0.83680  0.68030  1.0000
  O   O30       1.0  0.76580  0.83680  0.81970  1.0000
  O   O31       1.0  0.73420  0.33680  0.68030  1.0000
  O   O32       1.0  0.26580  0.33680  0.81970  1.0000
  C   C1        1.0  0.91170  0.39750  0.38800  1.0000
  C   C2        1.0  0.08830  0.39750  0.11200  1.0000
  C   C3        1.0  0.41170  0.89750  0.38800  1.0000
  C   C4        1.0  0.58830  0.89750  0.11200  1.0000
  C   C5        1.0  0.08830  0.60250  0.61200  1.0000
  C   C6        1.0  0.91170  0.60250  0.88800  1.0000
  C   C7        1.0  0.58830  0.10250  0.61200  1.0000
  C   C8        1.0  0.41170  0.10250  0.88800  1.0000
  C   C9        1.0  0.95340  0.45940  0.39720  1.0000
  C   C10       1.0  0.04660  0.45940  0.10280  1.0000
  C   C11       1.0  0.45340  0.95940  0.39720  1.0000
  C   C12       1.0  0.54660  0.95940  0.10280  1.0000
  C   C13       1.0  0.04660  0.54060  0.60280  1.0000
  C   C14       1.0  0.95340  0.54060  0.89720  1.0000
  C   C15       1.0  0.54660  0.04060  0.60280  1.0000
  C   C16       1.0  0.45340  0.04060  0.89720  1.0000
  C   C17       1.0  0.04050  0.46170  0.44040  1.0000
  C   C18       1.0  0.95950  0.46170  0.05960  1.0000
  C   C19       1.0  0.54050  0.96170  0.44040  1.0000
  C   C20       1.0  0.45950  0.96170  0.05960  1.0000
  C   C21       1.0  0.95950  0.53830  0.55960  1.0000
  C   C22       1.0  0.04050  0.53830  0.94040  1.0000
  C   C23       1.0  0.45950  0.03830  0.55960  1.0000
  C   C24       1.0  0.54050  0.03830  0.94040  1.0000
  H   H1        1.0  0.07260  0.50040  0.44730  1.0000
  H   H2        1.0  0.92740  0.50040  0.05270  1.0000
  H   H3        1.0  0.57260  0.00040  0.44730  1.0000
  H   H4        1.0  0.42740  0.00040  0.05270  1.0000
  H   H5        1.0  0.92740  0.49960  0.55270  1.0000
  H   H6        1.0  0.07260  0.49960  0.94730  1.0000
  H   H7        1.0  0.42740  0.99960  0.55270  1.0000
  H   H8        1.0  0.57260  0.99960  0.94730  1.0000
  C   C25       1.0  0.08070  0.40550  0.47400  1.0000
  C   C26       1.0  0.91930  0.40550  0.02600  1.0000
  C   C27       1.0  0.58070  0.90550  0.47400  1.0000
  C   C28       1.0  0.41930  0.90550  0.02600  1.0000
  C   C29       1.0  0.91930  0.59450  0.52600  1.0000
  C   C30       1.0  0.08070  0.59450  0.97400  1.0000
  C   C31       1.0  0.41930  0.09450  0.52600  1.0000
  C   C32       1.0  0.58070  0.09450  0.97400  1.0000
  H   H9        1.0  0.13900  0.40680  0.50450  1.0000
  H   H10       1.0  0.86100  0.40680  0.99550  1.0000
  H   H11       1.0  0.63900  0.90680  0.50450  1.0000
  H   H12       1.0  0.36100  0.90680  0.99550  1.0000
  H   H13       1.0  0.86100  0.59320  0.49550  1.0000
  H   H14       1.0  0.13900  0.59320  0.00450  1.0000
  H   H15       1.0  0.36100  0.09320  0.49550  1.0000
  H   H16       1.0  0.63900  0.09320  0.00450  1.0000
  C   C33       1.0  0.03440  0.35020  0.46180  1.0000
  C   C34       1.0  0.96560  0.35020  0.03820  1.0000
  C   C35       1.0  0.53440  0.85020  0.46180  1.0000
  C   C36       1.0  0.46560  0.85020  0.03820  1.0000
  C   C37       1.0  0.96560  0.64980  0.53820  1.0000
  C   C38       1.0  0.03440  0.64980  0.96180  1.0000
  C   C39       1.0  0.46560  0.14980  0.53820  1.0000
  C   C40       1.0  0.53440  0.14980  0.96180  1.0000
  H   H17       1.0  0.06210  0.31350  0.48490  1.0000
  H   H18       1.0  0.93790  0.31350  0.01510  1.0000
  H   H19       1.0  0.56210  0.81350  0.48490  1.0000
  H   H20       1.0  0.43790  0.81350  0.01510  1.0000
  H   H21       1.0  0.93790  0.68650  0.51510  1.0000
  H   H22       1.0  0.06210  0.68650  0.98490  1.0000
  H   H23       1.0  0.43790  0.18650  0.51510  1.0000
  H   H24       1.0  0.56210  0.18650  0.98490  1.0000
  C   C41       1.0  0.90740  0.51700  0.36260  1.0000
  C   C42       1.0  0.09260  0.51700  0.13740  1.0000
  C   C43       1.0  0.40740  0.01700  0.36260  1.0000
  C   C44       1.0  0.59260  0.01700  0.13740  1.0000
  C   C45       1.0  0.09260  0.48300  0.63740  1.0000
  C   C46       1.0  0.90740  0.48300  0.86260  1.0000
  C   C47       1.0  0.59260  0.98300  0.63740  1.0000
  C   C48       1.0  0.40740  0.98300  0.86260  1.0000
  C   C49       1.0  0.71640  0.28010  0.38090  1.0000
  C   C50       1.0  0.28360  0.28010  0.11910  1.0000
  C   C51       1.0  0.21640  0.78010  0.38090  1.0000
  C   C52       1.0  0.78360  0.78010  0.11910  1.0000
  C   C53       1.0  0.28360  0.71990  0.61910  1.0000
  C   C54       1.0  0.71640  0.71990  0.88090  1.0000
  C   C55       1.0  0.78360  0.21990  0.61910  1.0000
  C   C56       1.0  0.21640  0.21990  0.88090  1.0000
  C   C57       1.0  0.68170  0.21780  0.38320  1.0000
  C   C58       1.0  0.31830  0.21780  0.11680  1.0000
  C   C59       1.0  0.18170  0.71780  0.38320  1.0000
  C   C60       1.0  0.81830  0.71780  0.11680  1.0000
  C   C61       1.0  0.31830  0.78220  0.61680  1.0000
  C   C62       1.0  0.68170  0.78220  0.88320  1.0000
  C   C63       1.0  0.81830  0.28220  0.61680  1.0000
  C   C64       1.0  0.18170  0.28220  0.88320  1.0000
  C   C65       1.0  0.63200  0.20820  0.42740  1.0000
  C   C66       1.0  0.36800  0.20820  0.07260  1.0000
  C   C67       1.0  0.13200  0.70820  0.42740  1.0000
  C   C68       1.0  0.86800  0.70820  0.07260  1.0000
  C   C69       1.0  0.36800  0.79180  0.57260  1.0000
  C   C70       1.0  0.63200  0.79180  0.92740  1.0000
  C   C71       1.0  0.86800  0.29180  0.57260  1.0000
  C   C72       1.0  0.13200  0.29180  0.92740  1.0000
  H   H25       1.0  0.60530  0.16820  0.42910  1.0000
  H   H26       1.0  0.39470  0.16820  0.07090  1.0000
  H   H27       1.0  0.10530  0.66820  0.42910  1.0000
  H   H28       1.0  0.89470  0.66820  0.07090  1.0000
  H   H29       1.0  0.39470  0.83180  0.57090  1.0000
  H   H30       1.0  0.60530  0.83180  0.92910  1.0000
  H   H31       1.0  0.89470  0.33180  0.57090  1.0000
  H   H32       1.0  0.10530  0.33180  0.92910  1.0000
  C   C73       1.0  0.62180  0.25470  0.46720  1.0000
  C   C74       1.0  0.37820  0.25470  0.03280  1.0000
  C   C75       1.0  0.12180  0.75470  0.46720  1.0000
  C   C76       1.0  0.87820  0.75470  0.03280  1.0000
  C   C77       1.0  0.37820  0.74530  0.53280  1.0000
  C   C78       1.0  0.62180  0.74530  0.96720  1.0000
  C   C79       1.0  0.87820  0.24530  0.53280  1.0000
  C   C80       1.0  0.12180  0.24530  0.96720  1.0000
  H   H33       1.0  0.59040  0.24800  0.49880  1.0000
  H   H34       1.0  0.40960  0.24800  0.00120  1.0000
  H   H35       1.0  0.09040  0.74800  0.49880  1.0000
  H   H36       1.0  0.90960  0.74800  0.00120  1.0000
  H   H37       1.0  0.40960  0.75200  0.50120  1.0000
  H   H38       1.0  0.59040  0.75200  0.99880  1.0000
  H   H39       1.0  0.90960  0.25200  0.50120  1.0000
  H   H40       1.0  0.09040  0.25200  0.99880  1.0000
  C   C81       1.0  0.65980  0.31490  0.46080  1.0000
  C   C82       1.0  0.34020  0.31490  0.03920  1.0000
  C   C83       1.0  0.15980  0.81490  0.46080  1.0000
  C   C84       1.0  0.84020  0.81490  0.03920  1.0000
  C   C85       1.0  0.34020  0.68510  0.53920  1.0000
  C   C86       1.0  0.65980  0.68510  0.96080  1.0000
  C   C87       1.0  0.84020  0.18510  0.53920  1.0000
  C   C88       1.0  0.15980  0.18510  0.96080  1.0000
  H   H41       1.0  0.65350  0.34790  0.48970  1.0000
  H   H42       1.0  0.34650  0.34790  0.01030  1.0000
  H   H43       1.0  0.15350  0.84790  0.48970  1.0000
  H   H44       1.0  0.84650  0.84790  0.01030  1.0000
  H   H45       1.0  0.34650  0.65210  0.51030  1.0000
  H   H46       1.0  0.65350  0.65210  0.98970  1.0000
  H   H47       1.0  0.84650  0.15210  0.51030  1.0000
  H   H48       1.0  0.15350  0.15210  0.98970  1.0000
  C   C89       1.0  0.69600  0.16320  0.34020  1.0000
  C   C90       1.0  0.30400  0.16320  0.15980  1.0000
  C   C91       1.0  0.19600  0.66320  0.34020  1.0000
  C   C92       1.0  0.80400  0.66320  0.15980  1.0000
  C   C93       1.0  0.30400  0.83680  0.65980  1.0000
  C   C94       1.0  0.69600  0.83680  0.84020  1.0000
  C   C95       1.0  0.80400  0.33680  0.65980  1.0000
  C   C96       1.0  0.19600  0.33680  0.84020  1.0000
  C   C97       1.0  0.04530  0.42500  0.27270  1.0000
  C   C98       1.0  0.95470  0.42500  0.22730  1.0000
  C   C99       1.0  0.54530  0.92500  0.27270  1.0000
  C   C100      1.0  0.45470  0.92500  0.22730  1.0000
  C   C101      1.0  0.95470  0.57500  0.72730  1.0000
  C   C102      1.0  0.04530  0.57500  0.77270  1.0000
  C   C103      1.0  0.45470  0.07500  0.72730  1.0000
  C   C104      1.0  0.54530  0.07500  0.77270  1.0000
  C   C105      1.0  0.08830  0.36590  0.29710  1.0000
  C   C106      1.0  0.91170  0.36590  0.20290  1.0000
  C   C107      1.0  0.58830  0.86590  0.29710  1.0000
  C   C108      1.0  0.41170  0.86590  0.20290  1.0000
  C   C109      1.0  0.91170  0.63410  0.70290  1.0000
  C   C110      1.0  0.08830  0.63410  0.79710  1.0000
  C   C111      1.0  0.41170  0.13410  0.70290  1.0000
  C   C112      1.0  0.58830  0.13410  0.79710  1.0000
  C   C113      1.0  0.17730  0.36840  0.34230  1.0000
  C   C114      1.0  0.82270  0.36840  0.15770  1.0000
  C   C115      1.0  0.67730  0.86840  0.34230  1.0000
  C   C116      1.0  0.32270  0.86840  0.15770  1.0000
  C   C117      1.0  0.82270  0.63160  0.65770  1.0000
  C   C118      1.0  0.17730  0.63160  0.84230  1.0000
  C   C119      1.0  0.32270  0.13160  0.65770  1.0000
  C   C120      1.0  0.67730  0.13160  0.84230  1.0000
  H   H49       1.0  0.20780  0.33060  0.36000  1.0000
  H   H50       1.0  0.79220  0.33060  0.14000  1.0000
  H   H51       1.0  0.70780  0.83060  0.36000  1.0000
  H   H52       1.0  0.29220  0.83060  0.14000  1.0000
  H   H53       1.0  0.79220  0.66940  0.64000  1.0000
  H   H54       1.0  0.20780  0.66940  0.86000  1.0000
  H   H55       1.0  0.29220  0.16940  0.64000  1.0000
  H   H56       1.0  0.70780  0.16940  0.86000  1.0000
  C   C121      1.0  0.21660  0.42460  0.35930  1.0000
  C   C122      1.0  0.78340  0.42460  0.14070  1.0000
  C   C123      1.0  0.71660  0.92460  0.35930  1.0000
  C   C124      1.0  0.28340  0.92460  0.14070  1.0000
  C   C125      1.0  0.78340  0.57540  0.64070  1.0000
  C   C126      1.0  0.21660  0.57540  0.85930  1.0000
  C   C127      1.0  0.28340  0.07540  0.64070  1.0000
  C   C128      1.0  0.71660  0.07540  0.85930  1.0000
  H   H57       1.0  0.27500  0.42660  0.38960  1.0000
  H   H58       1.0  0.72500  0.42660  0.11040  1.0000
  H   H59       1.0  0.77500  0.92660  0.38960  1.0000
  H   H60       1.0  0.22500  0.92660  0.11040  1.0000
  H   H61       1.0  0.72500  0.57340  0.61040  1.0000
  H   H62       1.0  0.27500  0.57340  0.88960  1.0000
  H   H63       1.0  0.22500  0.07340  0.61040  1.0000
  H   H64       1.0  0.77500  0.07340  0.88960  1.0000
  C   C129      1.0  0.17160  0.48190  0.33210  1.0000
  C   C130      1.0  0.82840  0.48190  0.16790  1.0000
  C   C131      1.0  0.67160  0.98190  0.33210  1.0000
  C   C132      1.0  0.32840  0.98190  0.16790  1.0000
  C   C133      1.0  0.82840  0.51810  0.66790  1.0000
  C   C134      1.0  0.17160  0.51810  0.83210  1.0000
  C   C135      1.0  0.32840  0.01810  0.66790  1.0000
  C   C136      1.0  0.67160  0.01810  0.83210  1.0000
  H   H65       1.0  0.20230  0.52090  0.34360  1.0000
  H   H66       1.0  0.79770  0.52090  0.15640  1.0000
  H   H67       1.0  0.70230  0.02090  0.34360  1.0000
  H   H68       1.0  0.29770  0.02090  0.15640  1.0000
  H   H69       1.0  0.79770  0.47910  0.65640  1.0000
  H   H70       1.0  0.20230  0.47910  0.84360  1.0000
  H   H71       1.0  0.29770  0.97910  0.65640  1.0000
  H   H72       1.0  0.70230  0.97910  0.84360  1.0000
  C   C137      1.0  0.03770  0.30610  0.27000  1.0000
  C   C138      1.0  0.96230  0.30610  0.23000  1.0000
  C   C139      1.0  0.53770  0.80610  0.27000  1.0000
  C   C140      1.0  0.46230  0.80610  0.23000  1.0000
  C   C141      1.0  0.96230  0.69390  0.73000  1.0000
  C   C142      1.0  0.03770  0.69390  0.77000  1.0000
  C   C143      1.0  0.46230  0.19390  0.73000  1.0000
  C   C144      1.0  0.53770  0.19390  0.77000  1.0000
  H   H73       1.0  0.06530  0.26660  0.28460  1.0000
  H   H74       1.0  0.93470  0.26660  0.21540  1.0000
  H   H75       1.0  0.56530  0.76660  0.28460  1.0000
  H   H76       1.0  0.43470  0.76660  0.21540  1.0000
  H   H77       1.0  0.93470  0.73340  0.71540  1.0000
  H   H78       1.0  0.06530  0.73340  0.78460  1.0000
  H   H79       1.0  0.43470  0.23340  0.71540  1.0000
  H   H80       1.0  0.56530  0.23340  0.78460  1.0000
  C   C145      1.0  0.97640  0.75270  0.27530  1.0000
  C   C146      1.0  0.02360  0.75270  0.22470  1.0000
  C   C147      1.0  0.47640  0.25270  0.27530  1.0000
  C   C148      1.0  0.52360  0.25270  0.22470  1.0000
  C   C149      1.0  0.02360  0.24730  0.72470  1.0000
  C   C150      1.0  0.97640  0.24730  0.77530  1.0000
  C   C151      1.0  0.52360  0.74730  0.72470  1.0000
  C   C152      1.0  0.47640  0.74730  0.77530  1.0000
  C   C153      1.0  0.95660  0.81190  0.30000  1.0000
  C   C154      1.0  0.04340  0.81190  0.20000  1.0000
  C   C155      1.0  0.45660  0.31190  0.30000  1.0000
  C   C156      1.0  0.54340  0.31190  0.20000  1.0000
  C   C157      1.0  0.04340  0.18810  0.70000  1.0000
  C   C158      1.0  0.95660  0.18810  0.80000  1.0000
  C   C159      1.0  0.54340  0.68810  0.70000  1.0000
  C   C160      1.0  0.45660  0.68810  0.80000  1.0000
  C   C161      1.0  0.91200  0.81140  0.34750  1.0000
  C   C162      1.0  0.08800  0.81140  0.15250  1.0000
  C   C163      1.0  0.41200  0.31140  0.34750  1.0000
  C   C164      1.0  0.58800  0.31140  0.15250  1.0000
  C   C165      1.0  0.08800  0.18860  0.65250  1.0000
  C   C166      1.0  0.91200  0.18860  0.84750  1.0000
  C   C167      1.0  0.58800  0.68860  0.65250  1.0000
  C   C168      1.0  0.41200  0.68860  0.84750  1.0000
  H   H81       1.0  0.89840  0.85020  0.36500  1.0000
  H   H82       1.0  0.10160  0.85020  0.13500  1.0000
  H   H83       1.0  0.39840  0.35020  0.36500  1.0000
  H   H84       1.0  0.60160  0.35020  0.13500  1.0000
  H   H85       1.0  0.10160  0.14980  0.63500  1.0000
  H   H86       1.0  0.89840  0.14980  0.86500  1.0000
  H   H87       1.0  0.60160  0.64980  0.63500  1.0000
  H   H88       1.0  0.39840  0.64980  0.86500  1.0000
  C   C169      1.0  0.88560  0.75170  0.37070  1.0000
  C   C170      1.0  0.11440  0.75170  0.12930  1.0000
  C   C171      1.0  0.38560  0.25170  0.37070  1.0000
  C   C172      1.0  0.61440  0.25170  0.12930  1.0000
  C   C173      1.0  0.11440  0.24830  0.62930  1.0000
  C   C174      1.0  0.88560  0.24830  0.87070  1.0000
  C   C175      1.0  0.61440  0.74830  0.62930  1.0000
  C   C176      1.0  0.38560  0.74830  0.87070  1.0000
  H   H89       1.0  0.85370  0.75050  0.40250  1.0000
  H   H90       1.0  0.14630  0.75050  0.09750  1.0000
  H   H91       1.0  0.35370  0.25050  0.40250  1.0000
  H   H92       1.0  0.64630  0.25050  0.09750  1.0000
  H   H93       1.0  0.14630  0.24950  0.59750  1.0000
  H   H94       1.0  0.85370  0.24950  0.90250  1.0000
  H   H95       1.0  0.64630  0.74950  0.59750  1.0000
  H   H96       1.0  0.35370  0.74950  0.90250  1.0000
  C   C177      1.0  0.90990  0.69560  0.34380  1.0000
  C   C178      1.0  0.09010  0.69560  0.15620  1.0000
  C   C179      1.0  0.40990  0.19560  0.34380  1.0000
  C   C180      1.0  0.59010  0.19560  0.15620  1.0000
  C   C181      1.0  0.09010  0.30440  0.65620  1.0000
  C   C182      1.0  0.90990  0.30440  0.84380  1.0000
  C   C183      1.0  0.59010  0.80440  0.65620  1.0000
  C   C184      1.0  0.40990  0.80440  0.84380  1.0000
  H   H97       1.0  0.89420  0.65610  0.35860  1.0000
  H   H98       1.0  0.10580  0.65610  0.14140  1.0000
  H   H99       1.0  0.39420  0.15610  0.35860  1.0000
  H   H100      1.0  0.60580  0.15610  0.14140  1.0000
  H   H101      1.0  0.10580  0.34390  0.64140  1.0000
  H   H102      1.0  0.89420  0.34390  0.85860  1.0000
  H   H103      1.0  0.60580  0.84390  0.64140  1.0000
  H   H104      1.0  0.39420  0.84390  0.85860  1.0000
  C   C185      1.0  0.97930  0.87090  0.27310  1.0000
  C   C186      1.0  0.02070  0.87090  0.22690  1.0000
  C   C187      1.0  0.47930  0.37090  0.27310  1.0000
  C   C188      1.0  0.52070  0.37090  0.22690  1.0000
  C   C189      1.0  0.02070  0.12910  0.72690  1.0000
  C   C190      1.0  0.97930  0.12910  0.77310  1.0000
  C   C191      1.0  0.52070  0.62910  0.72690  1.0000
  C   C192      1.0  0.47930  0.62910  0.77310  1.0000
  H   H105      1.0  0.96420  0.91000  0.28910  1.0000
  H   H106      1.0  0.03580  0.91000  0.21090  1.0000
  H   H107      1.0  0.46420  0.41000  0.28910  1.0000
  H   H108      1.0  0.53580  0.41000  0.21090  1.0000
  H   H109      1.0  0.03580  0.09000  0.71090  1.0000
  H   H110      1.0  0.96420  0.09000  0.78910  1.0000
  H   H111      1.0  0.53580  0.59000  0.71090  1.0000
  H   H112      1.0  0.46420  0.59000  0.78910  1.0000
