data_image0
_chemical_formula_structural       Tb4S16N32O32C24H8C8H8C8H8C32H8C8H8C8H8C32H8C8H8C8H8C8H8C24H8C8H8C8H8C8H8
_chemical_formula_sum              "Tb4 S16 N32 O32 C192 H112"
_cell_length_a       15.4639
_cell_length_b       20.7895
_cell_length_c       20.5303
_cell_angle_alpha    90
_cell_angle_beta     107.544
_cell_angle_gamma    90

_space_group_name_H-M_alt    "P 1"
_space_group_IT_number       1

loop_
  _space_group_symop_operation_xyz
  'x, y, z'

loop_
  _atom_site_type_symbol
  _atom_site_label
  _atom_site_symmetry_multiplicity
  _atom_site_fract_x
  _atom_site_fract_y
  _atom_site_fract_z
  _atom_site_occupancy
  Tb  Tb1       1.0  0.00000  0.58849  0.25000  1.0000
  Tb  Tb2       1.0  0.50000  0.08849  0.25000  1.0000
  Tb  Tb3       1.0  0.00000  0.41151  0.75000  1.0000
  Tb  Tb4       1.0  0.50000  0.91151  0.75000  1.0000
  S   S1        1.0  0.77780  0.29545  0.32072  1.0000
  S   S2        1.0  0.22220  0.29545  0.17928  1.0000
  S   S3        1.0  0.27780  0.79545  0.32072  1.0000
  S   S4        1.0  0.72220  0.79545  0.17928  1.0000
  S   S5        1.0  0.22220  0.70455  0.67928  1.0000
  S   S6        1.0  0.77780  0.70455  0.82072  1.0000
  S   S7        1.0  0.72220  0.20455  0.67928  1.0000
  S   S8        1.0  0.27780  0.20455  0.82072  1.0000
  S   S9        1.0  0.79900  0.39137  0.32887  1.0000
  S   S10       1.0  0.20100  0.39137  0.17113  1.0000
  S   S11       1.0  0.29900  0.89137  0.32887  1.0000
  S   S12       1.0  0.70100  0.89137  0.17113  1.0000
  S   S13       1.0  0.20100  0.60863  0.67113  1.0000
  S   S14       1.0  0.79900  0.60863  0.82887  1.0000
  S   S15       1.0  0.70100  0.10863  0.67113  1.0000
  S   S16       1.0  0.29900  0.10863  0.82887  1.0000
  N   N1        1.0  0.95100  0.34460  0.41960  1.0000
  N   N2        1.0  0.04900  0.34460  0.08040  1.0000
  N   N3        1.0  0.45100  0.84460  0.41960  1.0000
  N   N4        1.0  0.54900  0.84460  0.08040  1.0000
  N   N5        1.0  0.04900  0.65540  0.58040  1.0000
  N   N6        1.0  0.95100  0.65540  0.91960  1.0000
  N   N7        1.0  0.54900  0.15540  0.58040  1.0000
  N   N8        1.0  0.45100  0.15540  0.91960  1.0000
  N   N9        1.0  0.70200  0.32800  0.41730  1.0000
  N   N10       1.0  0.29800  0.32800  0.08270  1.0000
  N   N11       1.0  0.20200  0.82800  0.41730  1.0000
  N   N12       1.0  0.79800  0.82800  0.08270  1.0000
  N   N13       1.0  0.29800  0.67200  0.58270  1.0000
  N   N14       1.0  0.70200  0.67200  0.91730  1.0000
  N   N15       1.0  0.79800  0.17200  0.58270  1.0000
  N   N16       1.0  0.20200  0.17200  0.91730  1.0000
  N   N17       1.0  0.08700  0.48220  0.28970  1.0000
  N   N18       1.0  0.91300  0.48220  0.21030  1.0000
  N   N19       1.0  0.58700  0.98220  0.28970  1.0000
  N   N20       1.0  0.41300  0.98220  0.21030  1.0000
  N   N21       1.0  0.91300  0.51780  0.71030  1.0000
  N   N22       1.0  0.08700  0.51780  0.78970  1.0000
  N   N23       1.0  0.41300  0.01780  0.71030  1.0000
  N   N24       1.0  0.58700  0.01780  0.78970  1.0000
  N   N25       1.0  0.95330  0.69570  0.29870  1.0000
  N   N26       1.0  0.04670  0.69570  0.20130  1.0000
  N   N27       1.0  0.45330  0.19570  0.29870  1.0000
  N   N28       1.0  0.54670  0.19570  0.20130  1.0000
  N   N29       1.0  0.04670  0.30430  0.70130  1.0000
  N   N30       1.0  0.95330  0.30430  0.79870  1.0000
  N   N31       1.0  0.54670  0.80430  0.70130  1.0000
  N   N32       1.0  0.45330  0.80430  0.79870  1.0000
  O   O1        1.0  0.82630  0.52480  0.35900  1.0000
  O   O2        1.0  0.17370  0.52480  0.14100  1.0000
  O   O3        1.0  0.32630  0.02480  0.35900  1.0000
  O   O4        1.0  0.67370  0.02480  0.14100  1.0000
  O   O5        1.0  0.17370  0.47520  0.64100  1.0000
  O   O6        1.0  0.82630  0.47520  0.85900  1.0000
  O   O7        1.0  0.67370  0.97520  0.64100  1.0000
  O   O8        1.0  0.32630  0.97520  0.85900  1.0000
  O   O9        1.0  0.95140  0.55750  0.34020  1.0000
  O   O10       1.0  0.04860  0.55750  0.15980  1.0000
  O   O11       1.0  0.45140  0.05750  0.34020  1.0000
  O   O12       1.0  0.54860  0.05750  0.15980  1.0000
  O   O13       1.0  0.04860  0.44250  0.65980  1.0000
  O   O14       1.0  0.95140  0.44250  0.84020  1.0000
  O   O15       1.0  0.54860  0.94250  0.65980  1.0000
  O   O16       1.0  0.45140  0.94250  0.84020  1.0000
  O   O17       1.0  0.63560  0.11960  0.32470  1.0000
  O   O18       1.0  0.36440  0.11960  0.17530  1.0000
  O   O19       1.0  0.13560  0.61960  0.32470  1.0000
  O   O20       1.0  0.86440  0.61960  0.17530  1.0000
  O   O21       1.0  0.36440  0.88040  0.67530  1.0000
  O   O22       1.0  0.63560  0.88040  0.82470  1.0000
  O   O23       1.0  0.86440  0.38040  0.67530  1.0000
  O   O24       1.0  0.13560  0.38040  0.82470  1.0000
  O   O25       1.0  0.76460  0.16470  0.31810  1.0000
  O   O26       1.0  0.23540  0.16470  0.18190  1.0000
  O   O27       1.0  0.26460  0.66470  0.31810  1.0000
  O   O28       1.0  0.73540  0.66470  0.18190  1.0000
  O   O29       1.0  0.23540  0.83530  0.68190  1.0000
  O   O30       1.0  0.76460  0.83530  0.81810  1.0000
  O   O31       1.0  0.73540  0.33530  0.68190  1.0000
  O   O32       1.0  0.26460  0.33530  0.81810  1.0000
  C   C1        1.0  0.91130  0.39810  0.38930  1.0000
  C   C2        1.0  0.08870  0.39810  0.11070  1.0000
  C   C3        1.0  0.41130  0.89810  0.38930  1.0000
  C   C4        1.0  0.58870  0.89810  0.11070  1.0000
  C   C5        1.0  0.08870  0.60190  0.61070  1.0000
  C   C6        1.0  0.91130  0.60190  0.88930  1.0000
  C   C7        1.0  0.58870  0.10190  0.61070  1.0000
  C   C8        1.0  0.41130  0.10190  0.88930  1.0000
  C   C9        1.0  0.95210  0.45930  0.39740  1.0000
  C   C10       1.0  0.04790  0.45930  0.10260  1.0000
  C   C11       1.0  0.45210  0.95930  0.39740  1.0000
  C   C12       1.0  0.54790  0.95930  0.10260  1.0000
  C   C13       1.0  0.04790  0.54070  0.60260  1.0000
  C   C14       1.0  0.95210  0.54070  0.89740  1.0000
  C   C15       1.0  0.54790  0.04070  0.60260  1.0000
  C   C16       1.0  0.45210  0.04070  0.89740  1.0000
  C   C17       1.0  0.04090  0.46080  0.44110  1.0000
  C   C18       1.0  0.95910  0.46080  0.05890  1.0000
  C   C19       1.0  0.54090  0.96080  0.44110  1.0000
  C   C20       1.0  0.45910  0.96080  0.05890  1.0000
  C   C21       1.0  0.95910  0.53920  0.55890  1.0000
  C   C22       1.0  0.04090  0.53920  0.94110  1.0000
  C   C23       1.0  0.45910  0.03920  0.55890  1.0000
  C   C24       1.0  0.54090  0.03920  0.94110  1.0000
  H   H1        1.0  0.07330  0.49920  0.44740  1.0000
  H   H2        1.0  0.92670  0.49920  0.05260  1.0000
  H   H3        1.0  0.57330  0.99920  0.44740  1.0000
  H   H4        1.0  0.42670  0.99920  0.05260  1.0000
  H   H5        1.0  0.92670  0.50080  0.55260  1.0000
  H   H6        1.0  0.07330  0.50080  0.94740  1.0000
  H   H7        1.0  0.42670  0.00080  0.55260  1.0000
  H   H8        1.0  0.57330  0.00080  0.94740  1.0000
  C   C25       1.0  0.08110  0.40630  0.47480  1.0000
  C   C26       1.0  0.91890  0.40630  0.02520  1.0000
  C   C27       1.0  0.58110  0.90630  0.47480  1.0000
  C   C28       1.0  0.41890  0.90630  0.02520  1.0000
  C   C29       1.0  0.91890  0.59370  0.52520  1.0000
  C   C30       1.0  0.08110  0.59370  0.97480  1.0000
  C   C31       1.0  0.41890  0.09370  0.52520  1.0000
  C   C32       1.0  0.58110  0.09370  0.97480  1.0000
  H   H9        1.0  0.13930  0.40800  0.50540  1.0000
  H   H10       1.0  0.86070  0.40800  0.99460  1.0000
  H   H11       1.0  0.63930  0.90800  0.50540  1.0000
  H   H12       1.0  0.36070  0.90800  0.99460  1.0000
  H   H13       1.0  0.86070  0.59200  0.49460  1.0000
  H   H14       1.0  0.13930  0.59200  0.00540  1.0000
  H   H15       1.0  0.36070  0.09200  0.49460  1.0000
  H   H16       1.0  0.63930  0.09200  0.00540  1.0000
  C   C33       1.0  0.03540  0.35050  0.46290  1.0000
  C   C34       1.0  0.96460  0.35050  0.03710  1.0000
  C   C35       1.0  0.53540  0.85050  0.46290  1.0000
  C   C36       1.0  0.46460  0.85050  0.03710  1.0000
  C   C37       1.0  0.96460  0.64950  0.53710  1.0000
  C   C38       1.0  0.03540  0.64950  0.96290  1.0000
  C   C39       1.0  0.46460  0.14950  0.53710  1.0000
  C   C40       1.0  0.53540  0.14950  0.96290  1.0000
  H   H17       1.0  0.06350  0.31400  0.48590  1.0000
  H   H18       1.0  0.93650  0.31400  0.01410  1.0000
  H   H19       1.0  0.56350  0.81400  0.48590  1.0000
  H   H20       1.0  0.43650  0.81400  0.01410  1.0000
  H   H21       1.0  0.93650  0.68600  0.51410  1.0000
  H   H22       1.0  0.06350  0.68600  0.98590  1.0000
  H   H23       1.0  0.43650  0.18600  0.51410  1.0000
  H   H24       1.0  0.56350  0.18600  0.98590  1.0000
  C   C41       1.0  0.90710  0.51720  0.36170  1.0000
  C   C42       1.0  0.09290  0.51720  0.13830  1.0000
  C   C43       1.0  0.40710  0.01720  0.36170  1.0000
  C   C44       1.0  0.59290  0.01720  0.13830  1.0000
  C   C45       1.0  0.09290  0.48280  0.63830  1.0000
  C   C46       1.0  0.90710  0.48280  0.86170  1.0000
  C   C47       1.0  0.59290  0.98280  0.63830  1.0000
  C   C48       1.0  0.40710  0.98280  0.86170  1.0000
  C   C49       1.0  0.71720  0.27990  0.38170  1.0000
  C   C50       1.0  0.28280  0.27990  0.11830  1.0000
  C   C51       1.0  0.21720  0.77990  0.38170  1.0000
  C   C52       1.0  0.78280  0.77990  0.11830  1.0000
  C   C53       1.0  0.28280  0.72010  0.61830  1.0000
  C   C54       1.0  0.71720  0.72010  0.88170  1.0000
  C   C55       1.0  0.78280  0.22010  0.61830  1.0000
  C   C56       1.0  0.21720  0.22010  0.88170  1.0000
  C   C57       1.0  0.68060  0.21790  0.38550  1.0000
  C   C58       1.0  0.31940  0.21790  0.11450  1.0000
  C   C59       1.0  0.18060  0.71790  0.38550  1.0000
  C   C60       1.0  0.81940  0.71790  0.11450  1.0000
  C   C61       1.0  0.31940  0.78210  0.61450  1.0000
  C   C62       1.0  0.68060  0.78210  0.88550  1.0000
  C   C63       1.0  0.81940  0.28210  0.61450  1.0000
  C   C64       1.0  0.18060  0.28210  0.88550  1.0000
  C   C65       1.0  0.63310  0.20800  0.42880  1.0000
  C   C66       1.0  0.36690  0.20800  0.07120  1.0000
  C   C67       1.0  0.13310  0.70800  0.42880  1.0000
  C   C68       1.0  0.86690  0.70800  0.07120  1.0000
  C   C69       1.0  0.36690  0.79200  0.57120  1.0000
  C   C70       1.0  0.63310  0.79200  0.92880  1.0000
  C   C71       1.0  0.86690  0.29200  0.57120  1.0000
  C   C72       1.0  0.13310  0.29200  0.92880  1.0000
  H   H25       1.0  0.60810  0.16770  0.43110  1.0000
  H   H26       1.0  0.39190  0.16770  0.06890  1.0000
  H   H27       1.0  0.10810  0.66770  0.43110  1.0000
  H   H28       1.0  0.89190  0.66770  0.06890  1.0000
  H   H29       1.0  0.39190  0.83230  0.56890  1.0000
  H   H30       1.0  0.60810  0.83230  0.93110  1.0000
  H   H31       1.0  0.89190  0.33230  0.56890  1.0000
  H   H32       1.0  0.10810  0.33230  0.93110  1.0000
  C   C73       1.0  0.62060  0.25650  0.47000  1.0000
  C   C74       1.0  0.37940  0.25650  0.03000  1.0000
  C   C75       1.0  0.12060  0.75650  0.47000  1.0000
  C   C76       1.0  0.87940  0.75650  0.03000  1.0000
  C   C77       1.0  0.37940  0.74350  0.53000  1.0000
  C   C78       1.0  0.62060  0.74350  0.97000  1.0000
  C   C79       1.0  0.87940  0.24350  0.53000  1.0000
  C   C80       1.0  0.12060  0.24350  0.97000  1.0000
  H   H33       1.0  0.58890  0.25090  0.50150  1.0000
  H   H34       1.0  0.41110  0.25090  0.99850  1.0000
  H   H35       1.0  0.08890  0.75090  0.50150  1.0000
  H   H36       1.0  0.91110  0.75090  0.99850  1.0000
  H   H37       1.0  0.41110  0.74910  0.49850  1.0000
  H   H38       1.0  0.58890  0.74910  0.00150  1.0000
  H   H39       1.0  0.91110  0.24910  0.49850  1.0000
  H   H40       1.0  0.08890  0.24910  0.00150  1.0000
  C   C81       1.0  0.65890  0.31450  0.46080  1.0000
  C   C82       1.0  0.34110  0.31450  0.03920  1.0000
  C   C83       1.0  0.15890  0.81450  0.46080  1.0000
  C   C84       1.0  0.84110  0.81450  0.03920  1.0000
  C   C85       1.0  0.34110  0.68550  0.53920  1.0000
  C   C86       1.0  0.65890  0.68550  0.96080  1.0000
  C   C87       1.0  0.84110  0.18550  0.53920  1.0000
  C   C88       1.0  0.15890  0.18550  0.96080  1.0000
  H   H41       1.0  0.65320  0.34790  0.48940  1.0000
  H   H42       1.0  0.34680  0.34790  0.01060  1.0000
  H   H43       1.0  0.15320  0.84790  0.48940  1.0000
  H   H44       1.0  0.84680  0.84790  0.01060  1.0000
  H   H45       1.0  0.34680  0.65210  0.51060  1.0000
  H   H46       1.0  0.65320  0.65210  0.98940  1.0000
  H   H47       1.0  0.84680  0.15210  0.51060  1.0000
  H   H48       1.0  0.15320  0.15210  0.98940  1.0000
  C   C89       1.0  0.69450  0.16140  0.34170  1.0000
  C   C90       1.0  0.30550  0.16140  0.15830  1.0000
  C   C91       1.0  0.19450  0.66140  0.34170  1.0000
  C   C92       1.0  0.80550  0.66140  0.15830  1.0000
  C   C93       1.0  0.30550  0.83860  0.65830  1.0000
  C   C94       1.0  0.69450  0.83860  0.84170  1.0000
  C   C95       1.0  0.80550  0.33860  0.65830  1.0000
  C   C96       1.0  0.19450  0.33860  0.84170  1.0000
  C   C97       1.0  0.04580  0.42510  0.27350  1.0000
  C   C98       1.0  0.95420  0.42510  0.22650  1.0000
  C   C99       1.0  0.54580  0.92510  0.27350  1.0000
  C   C100      1.0  0.45420  0.92510  0.22650  1.0000
  C   C101      1.0  0.95420  0.57490  0.72650  1.0000
  C   C102      1.0  0.04580  0.57490  0.77350  1.0000
  C   C103      1.0  0.45420  0.07490  0.72650  1.0000
  C   C104      1.0  0.54580  0.07490  0.77350  1.0000
  C   C105      1.0  0.08730  0.36630  0.29640  1.0000
  C   C106      1.0  0.91270  0.36630  0.20360  1.0000
  C   C107      1.0  0.58730  0.86630  0.29640  1.0000
  C   C108      1.0  0.41270  0.86630  0.20360  1.0000
  C   C109      1.0  0.91270  0.63370  0.70360  1.0000
  C   C110      1.0  0.08730  0.63370  0.79640  1.0000
  C   C111      1.0  0.41270  0.13370  0.70360  1.0000
  C   C112      1.0  0.58730  0.13370  0.79640  1.0000
  C   C113      1.0  0.17990  0.37030  0.34630  1.0000
  C   C114      1.0  0.82010  0.37030  0.15370  1.0000
  C   C115      1.0  0.67990  0.87030  0.34630  1.0000
  C   C116      1.0  0.32010  0.87030  0.15370  1.0000
  C   C117      1.0  0.82010  0.62970  0.65370  1.0000
  C   C118      1.0  0.17990  0.62970  0.84630  1.0000
  C   C119      1.0  0.32010  0.12970  0.65370  1.0000
  C   C120      1.0  0.67990  0.12970  0.84630  1.0000
  H   H49       1.0  0.20920  0.33320  0.36720  1.0000
  H   H50       1.0  0.79080  0.33320  0.13280  1.0000
  H   H51       1.0  0.70920  0.83320  0.36720  1.0000
  H   H52       1.0  0.29080  0.83320  0.13280  1.0000
  H   H53       1.0  0.79080  0.66680  0.63280  1.0000
  H   H54       1.0  0.20920  0.66680  0.86720  1.0000
  H   H55       1.0  0.29080  0.16680  0.63280  1.0000
  H   H56       1.0  0.70920  0.16680  0.86720  1.0000
  C   C121      1.0  0.21880  0.42510  0.36020  1.0000
  C   C122      1.0  0.78120  0.42510  0.13980  1.0000
  C   C123      1.0  0.71880  0.92510  0.36020  1.0000
  C   C124      1.0  0.28120  0.92510  0.13980  1.0000
  C   C125      1.0  0.78120  0.57490  0.63980  1.0000
  C   C126      1.0  0.21880  0.57490  0.86020  1.0000
  C   C127      1.0  0.28120  0.07490  0.63980  1.0000
  C   C128      1.0  0.71880  0.07490  0.86020  1.0000
  H   H57       1.0  0.27880  0.42710  0.38750  1.0000
  H   H58       1.0  0.72120  0.42710  0.11250  1.0000
  H   H59       1.0  0.77880  0.92710  0.38750  1.0000
  H   H60       1.0  0.22120  0.92710  0.11250  1.0000
  H   H61       1.0  0.72120  0.57290  0.61250  1.0000
  H   H62       1.0  0.27880  0.57290  0.88750  1.0000
  H   H63       1.0  0.22120  0.07290  0.61250  1.0000
  H   H64       1.0  0.77880  0.07290  0.88750  1.0000
  C   C129      1.0  0.17130  0.48320  0.33450  1.0000
  C   C130      1.0  0.82870  0.48320  0.16550  1.0000
  C   C131      1.0  0.67130  0.98320  0.33450  1.0000
  C   C132      1.0  0.32870  0.98320  0.16550  1.0000
  C   C133      1.0  0.82870  0.51680  0.66550  1.0000
  C   C134      1.0  0.17130  0.51680  0.83450  1.0000
  C   C135      1.0  0.32870  0.01680  0.66550  1.0000
  C   C136      1.0  0.67130  0.01680  0.83450  1.0000
  H   H65       1.0  0.19920  0.52250  0.34890  1.0000
  H   H66       1.0  0.80080  0.52250  0.15110  1.0000
  H   H67       1.0  0.69920  0.02250  0.34890  1.0000
  H   H68       1.0  0.30080  0.02250  0.15110  1.0000
  H   H69       1.0  0.80080  0.47750  0.65110  1.0000
  H   H70       1.0  0.19920  0.47750  0.84890  1.0000
  H   H71       1.0  0.30080  0.97750  0.65110  1.0000
  H   H72       1.0  0.69920  0.97750  0.84890  1.0000
  C   C137      1.0  0.03610  0.30660  0.26950  1.0000
  C   C138      1.0  0.96390  0.30660  0.23050  1.0000
  C   C139      1.0  0.53610  0.80660  0.26950  1.0000
  C   C140      1.0  0.46390  0.80660  0.23050  1.0000
  C   C141      1.0  0.96390  0.69340  0.73050  1.0000
  C   C142      1.0  0.03610  0.69340  0.76950  1.0000
  C   C143      1.0  0.46390  0.19340  0.73050  1.0000
  C   C144      1.0  0.53610  0.19340  0.76950  1.0000
  H   H73       1.0  0.06320  0.26720  0.28470  1.0000
  H   H74       1.0  0.93680  0.26720  0.21530  1.0000
  H   H75       1.0  0.56320  0.76720  0.28470  1.0000
  H   H76       1.0  0.43680  0.76720  0.21530  1.0000
  H   H77       1.0  0.93680  0.73280  0.71530  1.0000
  H   H78       1.0  0.06320  0.73280  0.78470  1.0000
  H   H79       1.0  0.43680  0.23280  0.71530  1.0000
  H   H80       1.0  0.56320  0.23280  0.78470  1.0000
  C   C145      1.0  0.97600  0.75320  0.27430  1.0000
  C   C146      1.0  0.02400  0.75320  0.22570  1.0000
  C   C147      1.0  0.47600  0.25320  0.27430  1.0000
  C   C148      1.0  0.52400  0.25320  0.22570  1.0000
  C   C149      1.0  0.02400  0.24680  0.72570  1.0000
  C   C150      1.0  0.97600  0.24680  0.77430  1.0000
  C   C151      1.0  0.52400  0.74680  0.72570  1.0000
  C   C152      1.0  0.47600  0.74680  0.77430  1.0000
  C   C153      1.0  0.95740  0.81270  0.29940  1.0000
  C   C154      1.0  0.04260  0.81270  0.20060  1.0000
  C   C155      1.0  0.45740  0.31270  0.29940  1.0000
  C   C156      1.0  0.54260  0.31270  0.20060  1.0000
  C   C157      1.0  0.04260  0.18730  0.70060  1.0000
  C   C158      1.0  0.95740  0.18730  0.79940  1.0000
  C   C159      1.0  0.54260  0.68730  0.70060  1.0000
  C   C160      1.0  0.45740  0.68730  0.79940  1.0000
  C   C161      1.0  0.91090  0.80970  0.34560  1.0000
  C   C162      1.0  0.08910  0.80970  0.15440  1.0000
  C   C163      1.0  0.41090  0.30970  0.34560  1.0000
  C   C164      1.0  0.58910  0.30970  0.15440  1.0000
  C   C165      1.0  0.08910  0.19030  0.65440  1.0000
  C   C166      1.0  0.91090  0.19030  0.84560  1.0000
  C   C167      1.0  0.58910  0.69030  0.65440  1.0000
  C   C168      1.0  0.41090  0.69030  0.84560  1.0000
  H   H81       1.0  0.89490  0.84820  0.36190  1.0000
  H   H82       1.0  0.10510  0.84820  0.13810  1.0000
  H   H83       1.0  0.39490  0.34820  0.36190  1.0000
  H   H84       1.0  0.60510  0.34820  0.13810  1.0000
  H   H85       1.0  0.10510  0.15180  0.63810  1.0000
  H   H86       1.0  0.89490  0.15180  0.86190  1.0000
  H   H87       1.0  0.60510  0.65180  0.63810  1.0000
  H   H88       1.0  0.39490  0.65180  0.86190  1.0000
  C   C169      1.0  0.88540  0.75180  0.37050  1.0000
  C   C170      1.0  0.11460  0.75180  0.12950  1.0000
  C   C171      1.0  0.38540  0.25180  0.37050  1.0000
  C   C172      1.0  0.61460  0.25180  0.12950  1.0000
  C   C173      1.0  0.11460  0.24820  0.62950  1.0000
  C   C174      1.0  0.88540  0.24820  0.87050  1.0000
  C   C175      1.0  0.61460  0.74820  0.62950  1.0000
  C   C176      1.0  0.38540  0.74820  0.87050  1.0000
  H   H89       1.0  0.85380  0.75110  0.40250  1.0000
  H   H90       1.0  0.14620  0.75110  0.09750  1.0000
  H   H91       1.0  0.35380  0.25110  0.40250  1.0000
  H   H92       1.0  0.64620  0.25110  0.09750  1.0000
  H   H93       1.0  0.14620  0.24890  0.59750  1.0000
  H   H94       1.0  0.85380  0.24890  0.90250  1.0000
  H   H95       1.0  0.64620  0.74890  0.59750  1.0000
  H   H96       1.0  0.35380  0.74890  0.90250  1.0000
  C   C177      1.0  0.91060  0.69620  0.34400  1.0000
  C   C178      1.0  0.08940  0.69620  0.15600  1.0000
  C   C179      1.0  0.41060  0.19620  0.34400  1.0000
  C   C180      1.0  0.58940  0.19620  0.15600  1.0000
  C   C181      1.0  0.08940  0.30380  0.65600  1.0000
  C   C182      1.0  0.91060  0.30380  0.84400  1.0000
  C   C183      1.0  0.58940  0.80380  0.65600  1.0000
  C   C184      1.0  0.41060  0.80380  0.84400  1.0000
  H   H97       1.0  0.89610  0.65690  0.35970  1.0000
  H   H98       1.0  0.10390  0.65690  0.14030  1.0000
  H   H99       1.0  0.39610  0.15690  0.35970  1.0000
  H   H100      1.0  0.60390  0.15690  0.14030  1.0000
  H   H101      1.0  0.10390  0.34310  0.64030  1.0000
  H   H102      1.0  0.89610  0.34310  0.85970  1.0000
  H   H103      1.0  0.60390  0.84310  0.64030  1.0000
  H   H104      1.0  0.39610  0.84310  0.85970  1.0000
  C   C185      1.0  0.98260  0.87120  0.27370  1.0000
  C   C186      1.0  0.01740  0.87120  0.22630  1.0000
  C   C187      1.0  0.48260  0.37120  0.27370  1.0000
  C   C188      1.0  0.51740  0.37120  0.22630  1.0000
  C   C189      1.0  0.01740  0.12880  0.72630  1.0000
  C   C190      1.0  0.98260  0.12880  0.77370  1.0000
  C   C191      1.0  0.51740  0.62880  0.72630  1.0000
  C   C192      1.0  0.48260  0.62880  0.77370  1.0000
  H   H105      1.0  0.97290  0.91010  0.29270  1.0000
  H   H106      1.0  0.02710  0.91010  0.20730  1.0000
  H   H107      1.0  0.47290  0.41010  0.29270  1.0000
  H   H108      1.0  0.52710  0.41010  0.20730  1.0000
  H   H109      1.0  0.02710  0.08990  0.70730  1.0000
  H   H110      1.0  0.97290  0.08990  0.79270  1.0000
  H   H111      1.0  0.52710  0.58990  0.70730  1.0000
  H   H112      1.0  0.47290  0.58990  0.79270  1.0000
