data_image0
_chemical_formula_structural       U2S2O12C2O2C2H2C2H2C6H4S2C2O6C6H2O2C4H2
_chemical_formula_sum              "U2 S4 O22 C24 H12"
_cell_length_a       9.4658
_cell_length_b       10.375
_cell_length_c       17.544
_cell_angle_alpha    100.663
_cell_angle_beta     97.488
_cell_angle_gamma    114.388

_space_group_name_H-M_alt    "P 1"
_space_group_IT_number       1

loop_
  _space_group_symop_operation_xyz
  'x, y, z'

loop_
  _atom_site_type_symbol
  _atom_site_label
  _atom_site_symmetry_multiplicity
  _atom_site_fract_x
  _atom_site_fract_y
  _atom_site_fract_z
  _atom_site_occupancy
  U   U1        1.0  0.87894  0.59650  0.25459  1.0000
  U   U2        1.0  0.12106  0.40350  0.74541  1.0000
  S   S1        1.0  0.92168  0.62520  0.53562  1.0000
  S   S2        1.0  0.07832  0.37480  0.46438  1.0000
  O   O1        1.0  0.05770  0.75860  0.30360  1.0000
  O   O2        1.0  0.94230  0.24140  0.69640  1.0000
  O   O3        1.0  0.79020  0.62330  0.37366  1.0000
  O   O4        1.0  0.20980  0.37670  0.62634  1.0000
  O   O5        1.0  0.69840  0.43720  0.20480  1.0000
  O   O6        1.0  0.30160  0.56280  0.79520  1.0000
  O   O7        1.0  0.05120  0.54710  0.67350  1.0000
  O   O8        1.0  0.94880  0.45290  0.32650  1.0000
  O   O9        1.0  0.13780  0.76610  0.76070  1.0000
  O   O10       1.0  0.86220  0.23390  0.23930  1.0000
  O   O11       1.0  0.75190  0.82270  0.40800  1.0000
  O   O12       1.0  0.24810  0.17730  0.59200  1.0000
  C   C1        1.0  0.99850  0.72950  0.63250  1.0000
  C   C2        1.0  0.00150  0.27050  0.36750  1.0000
  O   O13       1.0  0.72680  0.73740  0.25480  1.0000
  O   O14       1.0  0.27320  0.26260  0.74520  1.0000
  C   C3        1.0  0.98630  0.85780  0.64300  1.0000
  C   C4        1.0  0.01370  0.14220  0.35700  1.0000
  H   H1        1.0  0.02150  0.92760  0.69180  1.0000
  H   H2        1.0  0.97850  0.07240  0.30820  1.0000
  C   C5        1.0  0.91450  0.87280  0.57180  1.0000
  C   C6        1.0  0.08550  0.12720  0.42820  1.0000
  H   H3        1.0  0.89760  0.95390  0.56820  1.0000
  H   H4        1.0  0.10240  0.04610  0.43180  1.0000
  C   C7        1.0  0.87250  0.75480  0.50880  1.0000
  C   C8        1.0  0.12750  0.24520  0.49120  1.0000
  C   C9        1.0  0.06810  0.67790  0.69460  1.0000
  C   C10       1.0  0.93190  0.32210  0.30540  1.0000
  C   C11       1.0  0.79920  0.73440  0.42460  1.0000
  C   C12       1.0  0.20080  0.26560  0.57540  1.0000
  H   H5        1.0  0.72600  0.78500  0.22300  1.0000
  H   H6        1.0  0.27400  0.21500  0.77700  1.0000
  H   H7        1.0  0.69800  0.75600  0.29600  1.0000
  H   H8        1.0  0.30200  0.24400  0.70400  1.0000
  S   S3        1.0  0.89433  0.60504  0.96617  1.0000
  S   S4        1.0  0.10567  0.39496  0.03383  1.0000
  C   C13       1.0  0.83790  0.49000  0.80200  1.0000
  C   C14       1.0  0.16210  0.51000  0.19800  1.0000
  O   O15       1.0  0.86630  0.67280  0.13540  1.0000
  O   O16       1.0  0.13370  0.32720  0.86460  1.0000
  O   O17       1.0  0.97340  0.48940  0.82071  1.0000
  O   O18       1.0  0.02660  0.51060  0.17929  1.0000
  O   O19       1.0  0.75010  0.44260  0.73429  1.0000
  O   O20       1.0  0.24990  0.55740  0.26571  1.0000
  C   C15       1.0  0.75690  0.64900  0.00330  1.0000
  C   C16       1.0  0.24310  0.35100  0.99670  1.0000
  C   C17       1.0  0.77420  0.70250  0.08990  1.0000
  C   C18       1.0  0.22580  0.29750  0.91010  1.0000
  C   C19       1.0  0.63140  0.62130  0.94340  1.0000
  C   C20       1.0  0.36860  0.37870  0.05660  1.0000
  H   H9        1.0  0.54540  0.63890  0.95200  1.0000
  H   H10       1.0  0.45460  0.36110  0.04800  1.0000
  O   O21       1.0  0.69940  0.76990  0.11260  1.0000
  O   O22       1.0  0.30060  0.23010  0.88740  1.0000
  C   C21       1.0  0.78430  0.54980  0.86990  1.0000
  C   C22       1.0  0.21570  0.45020  0.13010  1.0000
  C   C23       1.0  0.64620  0.56380  0.86780  1.0000
  C   C24       1.0  0.35380  0.43620  0.13220  1.0000
  H   H11       1.0  0.57030  0.53770  0.82100  1.0000
  H   H12       1.0  0.42970  0.46230  0.17900  1.0000
