data_image0
_chemical_formula_structural       Al2Na2O24C4H4C4H4C4H4
_chemical_formula_sum              "Al2 Na2 O24 C12 H12"
_cell_length_a       7.6824
_cell_length_b       8.7403
_cell_length_c       11.7201
_cell_angle_alpha    90
_cell_angle_beta     91.422
_cell_angle_gamma    90

_space_group_name_H-M_alt    "P 1"
_space_group_IT_number       1

loop_
  _space_group_symop_operation_xyz
  'x, y, z'

loop_
  _atom_site_type_symbol
  _atom_site_label
  _atom_site_symmetry_multiplicity
  _atom_site_fract_x
  _atom_site_fract_y
  _atom_site_fract_z
  _atom_site_occupancy
  Al  Al1       1.0  0.50000  0.00000  0.50000  1.0000
  Al  Al2       1.0  0.00000  0.50000  0.00000  1.0000
  Na  Na1       1.0  0.50000  0.00000  0.00000  1.0000
  Na  Na2       1.0  0.00000  0.50000  0.50000  1.0000
  O   O1        1.0  0.37738  0.97689  0.63729  1.0000
  O   O2        1.0  0.12262  0.47689  0.86271  1.0000
  O   O3        1.0  0.62262  0.02311  0.36271  1.0000
  O   O4        1.0  0.87738  0.52311  0.13729  1.0000
  O   O5        1.0  0.35253  0.94993  0.82422  1.0000
  O   O6        1.0  0.14747  0.44993  0.67578  1.0000
  O   O7        1.0  0.64747  0.05007  0.17578  1.0000
  O   O8        1.0  0.85253  0.55007  0.32422  1.0000
  O   O9        1.0  0.58218  0.18987  0.55593  1.0000
  O   O10       1.0  0.91782  0.68987  0.94407  1.0000
  O   O11       1.0  0.41782  0.81013  0.44407  1.0000
  O   O12       1.0  0.08218  0.31013  0.05593  1.0000
  O   O13       1.0  0.72942  0.40663  0.56120  1.0000
  O   O14       1.0  0.77058  0.90663  0.93880  1.0000
  O   O15       1.0  0.27058  0.59337  0.43880  1.0000
  O   O16       1.0  0.22942  0.09337  0.06120  1.0000
  O   O17       1.0  0.58088  0.24202  0.92187  1.0000
  O   O18       1.0  0.91912  0.74202  0.57813  1.0000
  O   O19       1.0  0.41912  0.75798  0.07813  1.0000
  O   O20       1.0  0.08088  0.25798  0.42187  1.0000
  O   O21       1.0  0.79648  0.41056  0.93355  1.0000
  O   O22       1.0  0.70352  0.91056  0.56645  1.0000
  O   O23       1.0  0.20352  0.58944  0.06645  1.0000
  O   O24       1.0  0.29648  0.08944  0.43355  1.0000
  C   C1        1.0  0.44001  0.97024  0.73838  1.0000
  C   C2        1.0  0.05999  0.47024  0.76162  1.0000
  C   C3        1.0  0.55999  0.02976  0.26162  1.0000
  C   C4        1.0  0.94001  0.52976  0.23838  1.0000
  H   H1        1.0  0.56240  0.98160  0.74880  1.0000
  H   H2        1.0  0.93760  0.48160  0.75120  1.0000
  H   H3        1.0  0.43760  0.01840  0.25120  1.0000
  H   H4        1.0  0.06240  0.51840  0.24880  1.0000
  C   C5        1.0  0.68415  0.28669  0.51334  1.0000
  C   C6        1.0  0.81585  0.78669  0.98666  1.0000
  C   C7        1.0  0.31585  0.71331  0.48666  1.0000
  C   C8        1.0  0.18415  0.21331  0.01334  1.0000
  H   H5        1.0  0.72870  0.26590  0.44000  1.0000
  H   H6        1.0  0.77130  0.76590  0.06000  1.0000
  H   H7        1.0  0.27130  0.73410  0.56000  1.0000
  H   H8        1.0  0.22870  0.23410  0.94000  1.0000
  C   C9        1.0  0.72309  0.28641  0.96090  1.0000
  C   C10       1.0  0.77691  0.78641  0.53910  1.0000
  C   C11       1.0  0.27691  0.71359  0.03910  1.0000
  C   C12       1.0  0.22309  0.21359  0.46090  1.0000
  H   H9        1.0  0.78160  0.22290  0.01530  1.0000
  H   H10       1.0  0.71840  0.72290  0.48470  1.0000
  H   H11       1.0  0.21840  0.77710  0.98470  1.0000
  H   H12       1.0  0.28160  0.27710  0.51530  1.0000
