data_image0
_chemical_formula_structural       Al2Na2O24C4H4C4H4C4H4
_chemical_formula_sum              "Al2 Na2 O24 C12 H12"
_cell_length_a       7.7161
_cell_length_b       8.7769
_cell_length_c       11.7466
_cell_angle_alpha    90
_cell_angle_beta     91.1728
_cell_angle_gamma    90

_space_group_name_H-M_alt    "P 1"
_space_group_IT_number       1

loop_
  _space_group_symop_operation_xyz
  'x, y, z'

loop_
  _atom_site_type_symbol
  _atom_site_label
  _atom_site_symmetry_multiplicity
  _atom_site_fract_x
  _atom_site_fract_y
  _atom_site_fract_z
  _atom_site_occupancy
  Al  Al1       1.0  0.50000  0.00000  0.50000  1.0000
  Al  Al2       1.0  0.00000  0.50000  0.00000  1.0000
  Na  Na1       1.0  0.50000  0.00000  1.00000  1.0000
  Na  Na2       1.0  0.00000  0.50000  0.50000  1.0000
  O   O1        1.0  0.37818  0.97605  0.63745  1.0000
  O   O2        1.0  0.12182  0.47605  0.86255  1.0000
  O   O3        1.0  0.62182  0.02395  0.36255  1.0000
  O   O4        1.0  0.87818  0.52395  0.13745  1.0000
  O   O5        1.0  0.35213  0.95047  0.82404  1.0000
  O   O6        1.0  0.14787  0.45047  0.67596  1.0000
  O   O7        1.0  0.64787  0.04953  0.17596  1.0000
  O   O8        1.0  0.85213  0.54953  0.32404  1.0000
  O   O9        1.0  0.58136  0.18926  0.55587  1.0000
  O   O10       1.0  0.91864  0.68926  0.94413  1.0000
  O   O11       1.0  0.41864  0.81074  0.44413  1.0000
  O   O12       1.0  0.08136  0.31074  0.05587  1.0000
  O   O13       1.0  0.73156  0.40284  0.56252  1.0000
  O   O14       1.0  0.76844  0.90284  0.93748  1.0000
  O   O15       1.0  0.26844  0.59716  0.43748  1.0000
  O   O16       1.0  0.23156  0.09716  0.06252  1.0000
  O   O17       1.0  0.58421  0.24144  0.92131  1.0000
  O   O18       1.0  0.91579  0.74144  0.57869  1.0000
  O   O19       1.0  0.41579  0.75856  0.07869  1.0000
  O   O20       1.0  0.08421  0.25856  0.42131  1.0000
  O   O21       1.0  0.79698  0.41038  0.93481  1.0000
  O   O22       1.0  0.70302  0.91038  0.56519  1.0000
  O   O23       1.0  0.20302  0.58962  0.06519  1.0000
  O   O24       1.0  0.29698  0.08962  0.43481  1.0000
  C   C1        1.0  0.43949  0.97058  0.73850  1.0000
  C   C2        1.0  0.06051  0.47058  0.76150  1.0000
  C   C3        1.0  0.56051  0.02942  0.26150  1.0000
  C   C4        1.0  0.93949  0.52942  0.23850  1.0000
  H   H1        1.0  0.56110  0.98280  0.74900  1.0000
  H   H2        1.0  0.93890  0.48280  0.75100  1.0000
  H   H3        1.0  0.43890  0.01720  0.25100  1.0000
  H   H4        1.0  0.06110  0.51720  0.24900  1.0000
  C   C5        1.0  0.68688  0.28350  0.51531  1.0000
  C   C6        1.0  0.81312  0.78350  0.98469  1.0000
  C   C7        1.0  0.31312  0.71650  0.48469  1.0000
  C   C8        1.0  0.18688  0.21650  0.01531  1.0000
  H   H5        1.0  0.73510  0.26090  0.44350  1.0000
  H   H6        1.0  0.76490  0.76090  0.05650  1.0000
  H   H7        1.0  0.26490  0.73910  0.55650  1.0000
  H   H8        1.0  0.23510  0.23910  0.94350  1.0000
  C   C9        1.0  0.72502  0.28612  0.96005  1.0000
  C   C10       1.0  0.77498  0.78612  0.53995  1.0000
  C   C11       1.0  0.27498  0.71388  0.03995  1.0000
  C   C12       1.0  0.22502  0.21388  0.46005  1.0000
  H   H9        1.0  0.78400  0.22190  0.01310  1.0000
  H   H10       1.0  0.71600  0.72190  0.48690  1.0000
  H   H11       1.0  0.21600  0.77810  0.98690  1.0000
  H   H12       1.0  0.28400  0.27810  0.51310  1.0000
