data_image0
_chemical_formula_structural       Al2Na2O24C4H4C4H4C4H4
_chemical_formula_sum              "Al2 Na2 O24 C12 H12"
_cell_length_a       7.7641
_cell_length_b       8.7866
_cell_length_c       11.7728
_cell_angle_alpha    90
_cell_angle_beta     90.998
_cell_angle_gamma    90

_space_group_name_H-M_alt    "P 1"
_space_group_IT_number       1

loop_
  _space_group_symop_operation_xyz
  'x, y, z'

loop_
  _atom_site_type_symbol
  _atom_site_label
  _atom_site_symmetry_multiplicity
  _atom_site_fract_x
  _atom_site_fract_y
  _atom_site_fract_z
  _atom_site_occupancy
  Al  Al1       1.0  0.50000  0.00000  0.50000  1.0000
  Al  Al2       1.0  0.00000  0.50000  0.00000  1.0000
  Na  Na1       1.0  0.50000  0.00000  0.00000  1.0000
  Na  Na2       1.0  0.00000  0.50000  0.50000  1.0000
  O   O1        1.0  0.37996  0.97525  0.63758  1.0000
  O   O2        1.0  0.12004  0.47525  0.86242  1.0000
  O   O3        1.0  0.62004  0.02475  0.36242  1.0000
  O   O4        1.0  0.87996  0.52475  0.13758  1.0000
  O   O5        1.0  0.35220  0.95244  0.82333  1.0000
  O   O6        1.0  0.14780  0.45244  0.67667  1.0000
  O   O7        1.0  0.64780  0.04756  0.17667  1.0000
  O   O8        1.0  0.85220  0.54756  0.32333  1.0000
  O   O9        1.0  0.58014  0.18945  0.55528  1.0000
  O   O10       1.0  0.91986  0.68945  0.94472  1.0000
  O   O11       1.0  0.41986  0.81055  0.44472  1.0000
  O   O12       1.0  0.08014  0.31055  0.05528  1.0000
  O   O13       1.0  0.73315  0.39983  0.56374  1.0000
  O   O14       1.0  0.76685  0.89983  0.93626  1.0000
  O   O15       1.0  0.26685  0.60017  0.43626  1.0000
  O   O16       1.0  0.23315  0.10017  0.06374  1.0000
  O   O17       1.0  0.58655  0.24263  0.92185  1.0000
  O   O18       1.0  0.91345  0.74263  0.57815  1.0000
  O   O19       1.0  0.41345  0.75737  0.07815  1.0000
  O   O20       1.0  0.08655  0.25737  0.42185  1.0000
  O   O21       1.0  0.79759  0.41070  0.93597  1.0000
  O   O22       1.0  0.70241  0.91070  0.56403  1.0000
  O   O23       1.0  0.20241  0.58930  0.06403  1.0000
  O   O24       1.0  0.29759  0.08930  0.43597  1.0000
  C   C1        1.0  0.43888  0.97209  0.73810  1.0000
  C   C2        1.0  0.06112  0.47209  0.76190  1.0000
  C   C3        1.0  0.56112  0.02791  0.26190  1.0000
  C   C4        1.0  0.93888  0.52791  0.23810  1.0000
  H   H1        1.0  0.55690  0.98570  0.74860  1.0000
  H   H2        1.0  0.94310  0.48570  0.75140  1.0000
  H   H3        1.0  0.44310  0.01430  0.25140  1.0000
  H   H4        1.0  0.05690  0.51430  0.24860  1.0000
  C   C5        1.0  0.68925  0.28060  0.51770  1.0000
  C   C6        1.0  0.81075  0.78060  0.98230  1.0000
  C   C7        1.0  0.31075  0.71940  0.48230  1.0000
  C   C8        1.0  0.18925  0.21940  0.01770  1.0000
  H   H5        1.0  0.74100  0.25590  0.44950  1.0000
  H   H6        1.0  0.75900  0.75590  0.05050  1.0000
  H   H7        1.0  0.25900  0.74410  0.55050  1.0000
  H   H8        1.0  0.24100  0.24410  0.94950  1.0000
  C   C9        1.0  0.72516  0.28759  0.96076  1.0000
  C   C10       1.0  0.77484  0.78759  0.53924  1.0000
  C   C11       1.0  0.27484  0.71241  0.03924  1.0000
  C   C12       1.0  0.22516  0.21241  0.46076  1.0000
  H   H9        1.0  0.78150  0.22500  0.01320  1.0000
  H   H10       1.0  0.71850  0.72500  0.48680  1.0000
  H   H11       1.0  0.21850  0.77500  0.98680  1.0000
  H   H12       1.0  0.28150  0.27500  0.51320  1.0000
