data_image0
_chemical_formula_structural       Al2Na2O24C4H4C4H4C4H4
_chemical_formula_sum              "Al2 Na2 O24 C12 H12"
_cell_length_a       7.7909
_cell_length_b       8.7733
_cell_length_c       11.7878
_cell_angle_alpha    90
_cell_angle_beta     90.918
_cell_angle_gamma    90

_space_group_name_H-M_alt    "P 1"
_space_group_IT_number       1

loop_
  _space_group_symop_operation_xyz
  'x, y, z'

loop_
  _atom_site_type_symbol
  _atom_site_label
  _atom_site_symmetry_multiplicity
  _atom_site_fract_x
  _atom_site_fract_y
  _atom_site_fract_z
  _atom_site_occupancy
  Al  Al1       1.0  0.50000  0.00000  0.50000  1.0000
  Al  Al2       1.0  0.00000  0.50000  0.00000  1.0000
  Na  Na1       1.0  0.50000  0.00000  0.00000  1.0000
  Na  Na2       1.0  0.00000  0.50000  0.50000  1.0000
  O   O1        1.0  0.38136  0.97474  0.63767  1.0000
  O   O2        1.0  0.11864  0.47474  0.86233  1.0000
  O   O3        1.0  0.61864  0.02526  0.36233  1.0000
  O   O4        1.0  0.88136  0.52526  0.13767  1.0000
  O   O5        1.0  0.35283  0.95400  0.82284  1.0000
  O   O6        1.0  0.14717  0.45400  0.67716  1.0000
  O   O7        1.0  0.64717  0.04600  0.17716  1.0000
  O   O8        1.0  0.85283  0.54600  0.32284  1.0000
  O   O9        1.0  0.57891  0.19047  0.55480  1.0000
  O   O10       1.0  0.92109  0.69047  0.94520  1.0000
  O   O11       1.0  0.42109  0.80953  0.44520  1.0000
  O   O12       1.0  0.07891  0.30953  0.05480  1.0000
  O   O13       1.0  0.73419  0.39869  0.56460  1.0000
  O   O14       1.0  0.76581  0.89869  0.93540  1.0000
  O   O15       1.0  0.26581  0.60131  0.43540  1.0000
  O   O16       1.0  0.23419  0.10131  0.06460  1.0000
  O   O17       1.0  0.58718  0.24416  0.92253  1.0000
  O   O18       1.0  0.91282  0.74416  0.57747  1.0000
  O   O19       1.0  0.41282  0.75584  0.07747  1.0000
  O   O20       1.0  0.08718  0.25584  0.42253  1.0000
  O   O21       1.0  0.79800  0.41125  0.93647  1.0000
  O   O22       1.0  0.70200  0.91125  0.56353  1.0000
  O   O23       1.0  0.20200  0.58875  0.06353  1.0000
  O   O24       1.0  0.29800  0.08875  0.43647  1.0000
  C   C1        1.0  0.43860  0.97290  0.73783  1.0000
  C   C2        1.0  0.06140  0.47290  0.76217  1.0000
  C   C3        1.0  0.56140  0.02710  0.26217  1.0000
  C   C4        1.0  0.93860  0.52710  0.23783  1.0000
  H   H1        1.0  0.55600  0.98720  0.74840  1.0000
  H   H2        1.0  0.94400  0.48720  0.75160  1.0000
  H   H3        1.0  0.44400  0.01280  0.25160  1.0000
  H   H4        1.0  0.05600  0.51280  0.24840  1.0000
  C   C5        1.0  0.69060  0.27910  0.51937  1.0000
  C   C6        1.0  0.80940  0.77910  0.98063  1.0000
  C   C7        1.0  0.30940  0.72090  0.48063  1.0000
  C   C8        1.0  0.19060  0.22090  0.01937  1.0000
  H   H5        1.0  0.74560  0.25210  0.45290  1.0000
  H   H6        1.0  0.75440  0.75210  0.04710  1.0000
  H   H7        1.0  0.25440  0.74790  0.54710  1.0000
  H   H8        1.0  0.24560  0.24790  0.95290  1.0000
  C   C9        1.0  0.72420  0.28970  0.96196  1.0000
  C   C10       1.0  0.77580  0.78970  0.53804  1.0000
  C   C11       1.0  0.27580  0.71030  0.03804  1.0000
  C   C12       1.0  0.22420  0.21030  0.46196  1.0000
  H   H9        1.0  0.77840  0.22810  0.01590  1.0000
  H   H10       1.0  0.72160  0.72810  0.48410  1.0000
  H   H11       1.0  0.22160  0.77190  0.98410  1.0000
  H   H12       1.0  0.27840  0.27190  0.51590  1.0000
