data_image0
_chemical_formula_structural       Al2Na2O24C4H4C4H4C4H4
_chemical_formula_sum              "Al2 Na2 O24 C12 H12"
_cell_length_a       7.9591
_cell_length_b       8.7533
_cell_length_c       11.8451
_cell_angle_alpha    90
_cell_angle_beta     90.8977
_cell_angle_gamma    90

_space_group_name_H-M_alt    "P 1"
_space_group_IT_number       1

loop_
  _space_group_symop_operation_xyz
  'x, y, z'

loop_
  _atom_site_type_symbol
  _atom_site_label
  _atom_site_symmetry_multiplicity
  _atom_site_fract_x
  _atom_site_fract_y
  _atom_site_fract_z
  _atom_site_occupancy
  Al  Al1       1.0  0.50000  0.00000  0.50000  1.0000
  Al  Al2       1.0  0.00000  0.50000  0.00000  1.0000
  Na  Na1       1.0  0.50000  0.00000  0.00000  1.0000
  Na  Na2       1.0  1.00000  0.50000  0.50000  1.0000
  O   O1        1.0  0.38357  0.97445  0.63719  1.0000
  O   O2        1.0  0.11643  0.47445  0.86281  1.0000
  O   O3        1.0  0.61643  0.02555  0.36281  1.0000
  O   O4        1.0  0.88357  0.52555  0.13719  1.0000
  O   O5        1.0  0.35557  0.96101  0.82225  1.0000
  O   O6        1.0  0.14443  0.46101  0.67775  1.0000
  O   O7        1.0  0.64443  0.03899  0.17775  1.0000
  O   O8        1.0  0.85557  0.53899  0.32225  1.0000
  O   O9        1.0  0.57575  0.19258  0.55204  1.0000
  O   O10       1.0  0.92425  0.69258  0.94796  1.0000
  O   O11       1.0  0.42425  0.80742  0.44796  1.0000
  O   O12       1.0  0.07575  0.30742  0.05204  1.0000
  O   O13       1.0  0.74526  0.39026  0.56782  1.0000
  O   O14       1.0  0.75474  0.89026  0.93218  1.0000
  O   O15       1.0  0.25474  0.60974  0.43218  1.0000
  O   O16       1.0  0.24526  0.10974  0.06782  1.0000
  O   O17       1.0  0.59206  0.24672  0.92429  1.0000
  O   O18       1.0  0.90794  0.74672  0.57571  1.0000
  O   O19       1.0  0.40794  0.75328  0.07571  1.0000
  O   O20       1.0  0.09206  0.25328  0.42429  1.0000
  O   O21       1.0  0.80343  0.41055  0.93524  1.0000
  O   O22       1.0  0.69657  0.91055  0.56476  1.0000
  O   O23       1.0  0.19657  0.58945  0.06476  1.0000
  O   O24       1.0  0.30343  0.08945  0.43524  1.0000
  C   C1        1.0  0.43772  0.98773  0.73722  1.0000
  C   C2        1.0  0.06228  0.48773  0.76278  1.0000
  C   C3        1.0  0.56228  0.01227  0.26278  1.0000
  C   C4        1.0  0.93772  0.51227  0.23722  1.0000
  H   H1        1.0  0.54810  0.02020  0.74770  1.0000
  H   H2        1.0  0.95190  0.52020  0.75230  1.0000
  H   H3        1.0  0.45190  0.97980  0.25230  1.0000
  H   H4        1.0  0.04810  0.47980  0.24770  1.0000
  C   C5        1.0  0.70500  0.26755  0.52593  1.0000
  C   C6        1.0  0.79500  0.76755  0.97407  1.0000
  C   C7        1.0  0.29500  0.73245  0.47407  1.0000
  C   C8        1.0  0.20500  0.23245  0.02593  1.0000
  H   H5        1.0  0.77430  0.22670  0.47110  1.0000
  H   H6        1.0  0.72570  0.72670  0.02890  1.0000
  H   H7        1.0  0.22570  0.77330  0.52890  1.0000
  H   H8        1.0  0.27430  0.27330  0.97110  1.0000
  C   C9        1.0  0.72342  0.29568  0.96744  1.0000
  C   C10       1.0  0.77658  0.79568  0.53256  1.0000
  C   C11       1.0  0.27658  0.70432  0.03256  1.0000
  C   C12       1.0  0.22342  0.20432  0.46744  1.0000
  H   H9        1.0  0.76690  0.24270  0.02930  1.0000
  H   H10       1.0  0.73310  0.74270  0.47070  1.0000
  H   H11       1.0  0.23310  0.75730  0.97070  1.0000
  H   H12       1.0  0.26690  0.25730  0.52930  1.0000
