data_image0
_chemical_formula_structural       Al2Na2O24C4H4C4H4C4H4
_chemical_formula_sum              "Al2 Na2 O24 C12 H12"
_cell_length_a       9.0072
_cell_length_b       8.3279
_cell_length_c       11.7993
_cell_angle_alpha    90
_cell_angle_beta     91.252
_cell_angle_gamma    90

_space_group_name_H-M_alt    "P 1"
_space_group_IT_number       1

loop_
  _space_group_symop_operation_xyz
  'x, y, z'

loop_
  _atom_site_type_symbol
  _atom_site_label
  _atom_site_symmetry_multiplicity
  _atom_site_fract_x
  _atom_site_fract_y
  _atom_site_fract_z
  _atom_site_occupancy
  Al  Al1       1.0  0.25000  0.25410  0.25000  1.0000
  Al  Al2       1.0  0.75000  0.74590  0.75000  1.0000
  Na  Na1       1.0  0.25000  0.25503  0.75000  1.0000
  Na  Na2       1.0  0.75000  0.74497  0.25000  1.0000
  O   O1        1.0  0.14068  0.25085  0.38553  1.0000
  O   O2        1.0  0.35932  0.25085  0.11447  1.0000
  O   O3        1.0  0.85932  0.74915  0.61447  1.0000
  O   O4        1.0  0.64068  0.74915  0.88553  1.0000
  O   O5        1.0  0.12017  0.25847  0.57280  1.0000
  O   O6        1.0  0.37983  0.25847  0.92720  1.0000
  O   O7        1.0  0.87983  0.74153  0.42720  1.0000
  O   O8        1.0  0.62017  0.74153  0.07280  1.0000
  O   O9        1.0  0.38654  0.10688  0.31433  1.0000
  O   O10       1.0  0.11346  0.10688  0.18567  1.0000
  O   O11       1.0  0.61346  0.89312  0.68567  1.0000
  O   O12       1.0  0.88654  0.89312  0.81433  1.0000
  O   O13       1.0  0.59004  0.95834  0.30304  1.0000
  O   O14       1.0  0.90996  0.95834  0.19696  1.0000
  O   O15       1.0  0.40996  0.04166  0.69696  1.0000
  O   O16       1.0  0.09004  0.04166  0.80304  1.0000
  O   O17       1.0  0.42952  0.42222  0.67133  1.0000
  O   O18       1.0  0.07048  0.42222  0.82867  1.0000
  O   O19       1.0  0.57048  0.57778  0.32867  1.0000
  O   O20       1.0  0.92952  0.57778  0.17133  1.0000
  O   O21       1.0  0.62971  0.57524  0.69203  1.0000
  O   O22       1.0  0.87029  0.57524  0.80797  1.0000
  O   O23       1.0  0.37029  0.42476  0.30797  1.0000
  O   O24       1.0  0.12971  0.42476  0.19203  1.0000
  C   C1        1.0  0.19301  0.26722  0.48656  1.0000
  C   C2        1.0  0.30699  0.26722  0.01344  1.0000
  C   C3        1.0  0.80699  0.73278  0.51344  1.0000
  C   C4        1.0  0.69301  0.73278  0.98656  1.0000
  H   H1        1.0  0.29640  0.28780  0.49540  1.0000
  H   H2        1.0  0.20360  0.28780  0.00460  1.0000
  H   H3        1.0  0.70360  0.71220  0.50460  1.0000
  H   H4        1.0  0.79640  0.71220  0.99540  1.0000
  C   C5        1.0  0.46638  0.99893  0.26836  1.0000
  C   C6        1.0  0.03362  0.99893  0.23164  1.0000
  C   C7        1.0  0.53362  0.00107  0.73164  1.0000
  C   C8        1.0  0.96638  0.00107  0.76836  1.0000
  H   H5        1.0  0.42710  0.94660  0.20280  1.0000
  H   H6        1.0  0.07290  0.94660  0.29720  1.0000
  H   H7        1.0  0.57290  0.05340  0.79720  1.0000
  H   H8        1.0  0.92710  0.05340  0.70280  1.0000
  C   C9        1.0  0.49301  0.54294  0.70750  1.0000
  C   C10       1.0  0.00699  0.54294  0.79250  1.0000
  C   C11       1.0  0.50699  0.45706  0.29250  1.0000
  C   C12       1.0  0.99301  0.45706  0.20750  1.0000
  H   H9        1.0  0.43660  0.61730  0.74990  1.0000
  H   H10       1.0  0.06340  0.61730  0.75010  1.0000
  H   H11       1.0  0.56340  0.38270  0.25010  1.0000
  H   H12       1.0  0.93660  0.38270  0.24990  1.0000
