data_image0
_chemical_formula_structural       Al2Na2O24C4H4C4H4C4H4
_chemical_formula_sum              "Al2 Na2 O24 C12 H12"
_cell_length_a       9.0182
_cell_length_b       8.5063
_cell_length_c       11.9602
_cell_angle_alpha    90
_cell_angle_beta     91.318
_cell_angle_gamma    90

_space_group_name_H-M_alt    "P 1"
_space_group_IT_number       1

loop_
  _space_group_symop_operation_xyz
  'x, y, z'

loop_
  _atom_site_type_symbol
  _atom_site_label
  _atom_site_symmetry_multiplicity
  _atom_site_fract_x
  _atom_site_fract_y
  _atom_site_fract_z
  _atom_site_occupancy
  Al  Al1       1.0  0.25000  0.26184  0.25000  1.0000
  Al  Al2       1.0  0.75000  0.73816  0.75000  1.0000
  Na  Na1       1.0  0.25000  0.24704  0.75000  1.0000
  Na  Na2       1.0  0.75000  0.75296  0.25000  1.0000
  O   O1        1.0  0.14644  0.25857  0.38606  1.0000
  O   O2        1.0  0.35356  0.25857  0.11394  1.0000
  O   O3        1.0  0.85356  0.74143  0.61394  1.0000
  O   O4        1.0  0.64644  0.74143  0.88606  1.0000
  O   O5        1.0  0.12518  0.25290  0.56938  1.0000
  O   O6        1.0  0.37482  0.25290  0.93062  1.0000
  O   O7        1.0  0.87482  0.74710  0.43062  1.0000
  O   O8        1.0  0.62518  0.74710  0.06938  1.0000
  O   O9        1.0  0.38835  0.11633  0.31028  1.0000
  O   O10       1.0  0.11165  0.11633  0.18972  1.0000
  O   O11       1.0  0.61165  0.88367  0.68972  1.0000
  O   O12       1.0  0.88835  0.88367  0.81028  1.0000
  O   O13       1.0  0.58589  0.96630  0.30245  1.0000
  O   O14       1.0  0.91411  0.96630  0.19755  1.0000
  O   O15       1.0  0.41411  0.03370  0.69755  1.0000
  O   O16       1.0  0.08589  0.03370  0.80245  1.0000
  O   O17       1.0  0.43411  0.41550  0.67747  1.0000
  O   O18       1.0  0.06589  0.41550  0.82253  1.0000
  O   O19       1.0  0.56589  0.58450  0.32253  1.0000
  O   O20       1.0  0.93411  0.58450  0.17747  1.0000
  O   O21       1.0  0.62715  0.57197  0.69462  1.0000
  O   O22       1.0  0.87285  0.57197  0.80538  1.0000
  O   O23       1.0  0.37285  0.42803  0.30538  1.0000
  O   O24       1.0  0.12715  0.42803  0.19462  1.0000
  C   C1        1.0  0.19520  0.26400  0.48529  1.0000
  C   C2        1.0  0.30480  0.26400  0.01471  1.0000
  C   C3        1.0  0.80480  0.73600  0.51471  1.0000
  C   C4        1.0  0.69520  0.73600  0.98529  1.0000
  H   H1        1.0  0.29690  0.27820  0.49480  1.0000
  H   H2        1.0  0.20310  0.27820  0.00520  1.0000
  H   H3        1.0  0.70310  0.72180  0.50520  1.0000
  H   H4        1.0  0.79690  0.72180  0.99480  1.0000
  C   C5        1.0  0.46490  0.00750  0.26962  1.0000
  C   C6        1.0  0.03510  0.00750  0.23038  1.0000
  C   C7        1.0  0.53510  0.99250  0.73038  1.0000
  C   C8        1.0  0.96490  0.99250  0.76962  1.0000
  H   H5        1.0  0.42410  0.95390  0.20850  1.0000
  H   H6        1.0  0.07590  0.95390  0.29150  1.0000
  H   H7        1.0  0.57590  0.04610  0.79150  1.0000
  H   H8        1.0  0.92410  0.04610  0.70850  1.0000
  C   C9        1.0  0.49560  0.53280  0.71272  1.0000
  C   C10       1.0  0.00440  0.53280  0.78728  1.0000
  C   C11       1.0  0.50440  0.46720  0.28728  1.0000
  C   C12       1.0  0.99560  0.46720  0.21272  1.0000
  H   H9        1.0  0.44040  0.59980  0.75700  1.0000
  H   H10       1.0  0.05960  0.59980  0.74300  1.0000
  H   H11       1.0  0.55960  0.40020  0.24300  1.0000
  H   H12       1.0  0.94040  0.40020  0.25700  1.0000
