data_image0
_chemical_formula_structural       Al2Na2O24C4H4C4H4C4H4
_chemical_formula_sum              "Al2 Na2 O24 C12 H12"
_cell_length_a       9.0067
_cell_length_b       8.3612
_cell_length_c       11.8307
_cell_angle_alpha    90
_cell_angle_beta     91.334
_cell_angle_gamma    90

_space_group_name_H-M_alt    "P 1"
_space_group_IT_number       1

loop_
  _space_group_symop_operation_xyz
  'x, y, z'

loop_
  _atom_site_type_symbol
  _atom_site_label
  _atom_site_symmetry_multiplicity
  _atom_site_fract_x
  _atom_site_fract_y
  _atom_site_fract_z
  _atom_site_occupancy
  Al  Al1       1.0  0.25000  0.25546  0.25000  1.0000
  Al  Al2       1.0  0.75000  0.74454  0.75000  1.0000
  Na  Na1       1.0  0.25000  0.25357  0.75000  1.0000
  Na  Na2       1.0  0.75000  0.74643  0.25000  1.0000
  O   O1        1.0  0.14184  0.25241  0.38569  1.0000
  O   O2        1.0  0.35816  0.25241  0.11431  1.0000
  O   O3        1.0  0.85816  0.74759  0.61431  1.0000
  O   O4        1.0  0.64184  0.74759  0.88569  1.0000
  O   O5        1.0  0.12102  0.25755  0.57211  1.0000
  O   O6        1.0  0.37898  0.25755  0.92789  1.0000
  O   O7        1.0  0.87898  0.74245  0.42789  1.0000
  O   O8        1.0  0.62102  0.74245  0.07211  1.0000
  O   O9        1.0  0.38703  0.10866  0.31354  1.0000
  O   O10       1.0  0.11297  0.10866  0.18646  1.0000
  O   O11       1.0  0.61297  0.89134  0.68646  1.0000
  O   O12       1.0  0.88703  0.89134  0.81354  1.0000
  O   O13       1.0  0.58940  0.96004  0.30313  1.0000
  O   O14       1.0  0.91060  0.96004  0.19687  1.0000
  O   O15       1.0  0.41060  0.03996  0.69687  1.0000
  O   O16       1.0  0.08940  0.03996  0.80313  1.0000
  O   O17       1.0  0.43056  0.42063  0.67264  1.0000
  O   O18       1.0  0.06944  0.42063  0.82736  1.0000
  O   O19       1.0  0.56944  0.57937  0.32736  1.0000
  O   O20       1.0  0.93056  0.57937  0.17264  1.0000
  O   O21       1.0  0.62917  0.57488  0.69243  1.0000
  O   O22       1.0  0.87083  0.57488  0.80757  1.0000
  O   O23       1.0  0.37083  0.42512  0.30757  1.0000
  O   O24       1.0  0.12917  0.42512  0.19243  1.0000
  C   C1        1.0  0.19344  0.26560  0.48625  1.0000
  C   C2        1.0  0.30656  0.26560  0.01375  1.0000
  C   C3        1.0  0.80656  0.73440  0.51375  1.0000
  C   C4        1.0  0.69344  0.73440  0.98625  1.0000
  H   H1        1.0  0.29720  0.28320  0.49540  1.0000
  H   H2        1.0  0.20280  0.28320  0.00460  1.0000
  H   H3        1.0  0.70280  0.71680  0.50460  1.0000
  H   H4        1.0  0.79720  0.71680  0.99540  1.0000
  C   C5        1.0  0.46620  0.00052  0.26868  1.0000
  C   C6        1.0  0.03380  0.00052  0.23132  1.0000
  C   C7        1.0  0.53380  0.99948  0.73132  1.0000
  C   C8        1.0  0.96620  0.99948  0.76868  1.0000
  H   H5        1.0  0.42640  0.94760  0.20370  1.0000
  H   H6        1.0  0.07360  0.94760  0.29630  1.0000
  H   H7        1.0  0.57360  0.05240  0.79630  1.0000
  H   H8        1.0  0.92640  0.05240  0.70370  1.0000
  C   C9        1.0  0.49372  0.54055  0.70853  1.0000
  C   C10       1.0  0.00628  0.54055  0.79147  1.0000
  C   C11       1.0  0.50628  0.45945  0.29147  1.0000
  C   C12       1.0  0.99372  0.45945  0.20853  1.0000
  H   H9        1.0  0.43730  0.61350  0.75170  1.0000
  H   H10       1.0  0.06270  0.61350  0.74830  1.0000
  H   H11       1.0  0.56270  0.38650  0.24830  1.0000
  H   H12       1.0  0.93730  0.38650  0.25170  1.0000
