data_image0
_chemical_formula_structural       Al4Na4O48C4H4C4H4C4H4C4H4C4H4C4H4
_chemical_formula_sum              "Al4 Na4 O48 C24 H24"
_cell_length_a       8.0868
_cell_length_b       14.5592
_cell_length_c       14.7095
_cell_angle_alpha    90
_cell_angle_beta     91.215
_cell_angle_gamma    90

_space_group_name_H-M_alt    "P 1"
_space_group_IT_number       1

loop_
  _space_group_symop_operation_xyz
  'x, y, z'

loop_
  _atom_site_type_symbol
  _atom_site_label
  _atom_site_symmetry_multiplicity
  _atom_site_fract_x
  _atom_site_fract_y
  _atom_site_fract_z
  _atom_site_occupancy
  Al  Al1       1.0  0.72487  0.42383  0.25782  1.0000
  Al  Al2       1.0  0.27513  0.92383  0.24218  1.0000
  Al  Al3       1.0  0.27513  0.57617  0.74218  1.0000
  Al  Al4       1.0  0.72487  0.07617  0.75782  1.0000
  Na  Na1       1.0  0.21918  0.25660  0.00697  1.0000
  Na  Na2       1.0  0.78082  0.75660  0.49303  1.0000
  Na  Na3       1.0  0.78082  0.74340  0.99303  1.0000
  Na  Na4       1.0  0.21918  0.24340  0.50697  1.0000
  O   O1        1.0  0.53356  0.43475  0.18058  1.0000
  O   O2        1.0  0.46644  0.93475  0.31942  1.0000
  O   O3        1.0  0.46644  0.56525  0.81942  1.0000
  O   O4        1.0  0.53356  0.06525  0.68058  1.0000
  O   O5        1.0  0.32076  0.38358  0.09795  1.0000
  O   O6        1.0  0.67924  0.88358  0.40205  1.0000
  O   O7        1.0  0.67924  0.61642  0.90205  1.0000
  O   O8        1.0  0.32076  0.11642  0.59795  1.0000
  O   O9        1.0  0.62765  0.52148  0.32306  1.0000
  O   O10       1.0  0.37235  0.02148  0.17694  1.0000
  O   O11       1.0  0.37235  0.47852  0.67694  1.0000
  O   O12       1.0  0.62765  0.97852  0.82306  1.0000
  O   O13       1.0  0.62128  0.65519  0.39399  1.0000
  O   O14       1.0  0.37872  0.15519  0.10601  1.0000
  O   O15       1.0  0.37872  0.34481  0.60601  1.0000
  O   O16       1.0  0.62128  0.84481  0.89399  1.0000
  O   O17       1.0  0.91382  0.42581  0.33352  1.0000
  O   O18       1.0  0.08618  0.92581  0.16648  1.0000
  O   O19       1.0  0.08618  0.57419  0.66648  1.0000
  O   O20       1.0  0.91382  0.07419  0.83352  1.0000
  O   O21       1.0  0.10375  0.36622  0.42721  1.0000
  O   O22       1.0  0.89625  0.86622  0.07279  1.0000
  O   O23       1.0  0.89625  0.63378  0.57279  1.0000
  O   O24       1.0  0.10375  0.13378  0.92721  1.0000
  O   O25       1.0  0.80229  0.32403  0.18680  1.0000
  O   O26       1.0  0.19771  0.82403  0.31320  1.0000
  O   O27       1.0  0.19771  0.67597  0.81320  1.0000
  O   O28       1.0  0.80229  0.17597  0.68680  1.0000
  O   O29       1.0  0.97918  0.24573  0.10425  1.0000
  O   O30       1.0  0.02082  0.74573  0.39575  1.0000
  O   O31       1.0  0.02082  0.75427  0.89575  1.0000
  O   O32       1.0  0.97918  0.25427  0.60425  1.0000
  O   O33       1.0  0.62883  0.33419  0.33173  1.0000
  O   O34       1.0  0.37117  0.83419  0.16827  1.0000
  O   O35       1.0  0.37117  0.66581  0.66827  1.0000
  O   O36       1.0  0.62883  0.16581  0.83173  1.0000
  O   O37       1.0  0.44820  0.25429  0.41080  1.0000
  O   O38       1.0  0.55180  0.75429  0.08920  1.0000
  O   O39       1.0  0.55180  0.74571  0.58920  1.0000
  O   O40       1.0  0.44820  0.24571  0.91080  1.0000
  O   O41       1.0  0.84337  0.50685  0.18236  1.0000
  O   O42       1.0  0.15663  0.00685  0.31764  1.0000
  O   O43       1.0  0.15663  0.49315  0.81764  1.0000
  O   O44       1.0  0.84337  0.99315  0.68236  1.0000
  O   O45       1.0  0.89598  0.62485  0.09276  1.0000
  O   O46       1.0  0.10402  0.12485  0.40724  1.0000
  O   O47       1.0  0.10402  0.37515  0.90724  1.0000
  O   O48       1.0  0.89598  0.87515  0.59276  1.0000
  C   C1        1.0  0.45428  0.37183  0.13925  1.0000
  C   C2        1.0  0.54572  0.87183  0.36075  1.0000
  C   C3        1.0  0.54572  0.62817  0.86075  1.0000
  C   C4        1.0  0.45428  0.12817  0.63925  1.0000
  H   H1        1.0  0.50010  0.31170  0.13990  1.0000
  H   H2        1.0  0.49990  0.81170  0.36010  1.0000
  H   H3        1.0  0.49990  0.68830  0.86010  1.0000
  H   H4        1.0  0.50010  0.18830  0.63990  1.0000
  C   C5        1.0  0.69689  0.58902  0.36327  1.0000
  C   C6        1.0  0.30311  0.08902  0.13673  1.0000
  C   C7        1.0  0.30311  0.41098  0.63673  1.0000
  C   C8        1.0  0.69689  0.91098  0.86327  1.0000
  H   H5        1.0  0.81400  0.58840  0.37000  1.0000
  H   H6        1.0  0.18600  0.08840  0.13000  1.0000
  H   H7        1.0  0.18600  0.41160  0.63000  1.0000
  H   H8        1.0  0.81400  0.91160  0.87000  1.0000
  C   C9        1.0  0.98793  0.35892  0.37402  1.0000
  C   C10       1.0  0.01207  0.85892  0.12598  1.0000
  C   C11       1.0  0.01207  0.64108  0.62598  1.0000
  C   C12       1.0  0.98793  0.14108  0.87402  1.0000
  H   H9        1.0  0.94870  0.29870  0.36130  1.0000
  H   H10       1.0  0.05130  0.79870  0.13870  1.0000
  H   H11       1.0  0.05130  0.70130  0.63870  1.0000
  H   H12       1.0  0.94870  0.20130  0.86130  1.0000
  C   C13       1.0  0.94292  0.31327  0.15029  1.0000
  C   C14       1.0  0.05708  0.81327  0.34971  1.0000
  C   C15       1.0  0.05708  0.68673  0.84971  1.0000
  C   C16       1.0  0.94292  0.18673  0.65029  1.0000
  H   H13       1.0  0.02400  0.35980  0.15910  1.0000
  H   H14       1.0  0.97600  0.85980  0.34090  1.0000
  H   H15       1.0  0.97600  0.64020  0.84090  1.0000
  H   H16       1.0  0.02400  0.14020  0.65910  1.0000
  C   C17       1.0  0.48533  0.31805  0.36170  1.0000
  C   C18       1.0  0.51467  0.81805  0.13830  1.0000
  C   C19       1.0  0.51467  0.68195  0.63830  1.0000
  C   C20       1.0  0.48533  0.18195  0.86170  1.0000
  H   H17       1.0  0.39950  0.35940  0.34420  1.0000
  H   H18       1.0  0.60050  0.85940  0.15580  1.0000
  H   H19       1.0  0.60050  0.64060  0.65580  1.0000
  H   H20       1.0  0.39950  0.14060  0.84420  1.0000
  C   C21       1.0  0.80047  0.57861  0.13878  1.0000
  C   C22       1.0  0.19953  0.07861  0.36122  1.0000
  C   C23       1.0  0.19953  0.42139  0.86122  1.0000
  C   C24       1.0  0.80047  0.92139  0.63878  1.0000
  H   H21       1.0  0.68850  0.59790  0.14170  1.0000
  H   H22       1.0  0.31150  0.09790  0.35830  1.0000
  H   H23       1.0  0.31150  0.40210  0.85830  1.0000
  H   H24       1.0  0.68850  0.90210  0.64170  1.0000
