data_image0
_chemical_formula_structural       Al4Na4O48C4H4C4H4C4H4C4H4C4H4C4H4
_chemical_formula_sum              "Al4 Na4 O48 C24 H24"
_cell_length_a       8.1549
_cell_length_b       14.5265
_cell_length_c       14.9589
_cell_angle_alpha    90
_cell_angle_beta     90.944
_cell_angle_gamma    90

_space_group_name_H-M_alt    "P 1"
_space_group_IT_number       1

loop_
  _space_group_symop_operation_xyz
  'x, y, z'

loop_
  _atom_site_type_symbol
  _atom_site_label
  _atom_site_symmetry_multiplicity
  _atom_site_fract_x
  _atom_site_fract_y
  _atom_site_fract_z
  _atom_site_occupancy
  Al  Al1       1.0  0.73000  0.42031  0.25465  1.0000
  Al  Al2       1.0  0.27000  0.92031  0.24535  1.0000
  Al  Al3       1.0  0.27000  0.57969  0.74535  1.0000
  Al  Al4       1.0  0.73000  0.07969  0.75465  1.0000
  Na  Na1       1.0  0.22654  0.25400  0.00492  1.0000
  Na  Na2       1.0  0.77346  0.75400  0.49508  1.0000
  Na  Na3       1.0  0.77346  0.74600  0.99508  1.0000
  Na  Na4       1.0  0.22654  0.24600  0.50492  1.0000
  O   O1        1.0  0.53936  0.42994  0.17941  1.0000
  O   O2        1.0  0.46064  0.92994  0.32059  1.0000
  O   O3        1.0  0.46064  0.57006  0.82059  1.0000
  O   O4        1.0  0.53936  0.07006  0.67941  1.0000
  O   O5        1.0  0.32970  0.38012  0.09798  1.0000
  O   O6        1.0  0.67030  0.88012  0.40202  1.0000
  O   O7        1.0  0.67030  0.61988  0.90202  1.0000
  O   O8        1.0  0.32970  0.11988  0.59798  1.0000
  O   O9        1.0  0.63307  0.51768  0.32019  1.0000
  O   O10       1.0  0.36693  0.01768  0.17981  1.0000
  O   O11       1.0  0.36693  0.48232  0.67981  1.0000
  O   O12       1.0  0.63307  0.98232  0.82019  1.0000
  O   O13       1.0  0.62324  0.64793  0.39500  1.0000
  O   O14       1.0  0.37676  0.14793  0.10500  1.0000
  O   O15       1.0  0.37676  0.35207  0.60500  1.0000
  O   O16       1.0  0.62324  0.85207  0.89500  1.0000
  O   O17       1.0  0.91783  0.42195  0.32853  1.0000
  O   O18       1.0  0.08217  0.92195  0.17147  1.0000
  O   O19       1.0  0.08217  0.57805  0.67147  1.0000
  O   O20       1.0  0.91783  0.07805  0.82853  1.0000
  O   O21       1.0  0.10620  0.36481  0.42027  1.0000
  O   O22       1.0  0.89380  0.86481  0.07973  1.0000
  O   O23       1.0  0.89380  0.63519  0.57973  1.0000
  O   O24       1.0  0.10620  0.13519  0.92027  1.0000
  O   O25       1.0  0.80948  0.32084  0.18395  1.0000
  O   O26       1.0  0.19052  0.82084  0.31605  1.0000
  O   O27       1.0  0.19052  0.67916  0.81605  1.0000
  O   O28       1.0  0.80948  0.17916  0.68395  1.0000
  O   O29       1.0  0.98440  0.24471  0.10200  1.0000
  O   O30       1.0  0.01560  0.74471  0.39800  1.0000
  O   O31       1.0  0.01560  0.75529  0.89800  1.0000
  O   O32       1.0  0.98440  0.25529  0.60200  1.0000
  O   O33       1.0  0.63342  0.32997  0.32679  1.0000
  O   O34       1.0  0.36658  0.82997  0.17321  1.0000
  O   O35       1.0  0.36658  0.67003  0.67321  1.0000
  O   O36       1.0  0.63342  0.17003  0.82679  1.0000
  O   O37       1.0  0.45920  0.25600  0.41154  1.0000
  O   O38       1.0  0.54080  0.75600  0.08846  1.0000
  O   O39       1.0  0.54080  0.74400  0.58846  1.0000
  O   O40       1.0  0.45920  0.24400  0.91154  1.0000
  O   O41       1.0  0.84449  0.50565  0.18061  1.0000
  O   O42       1.0  0.15551  0.00565  0.31939  1.0000
  O   O43       1.0  0.15551  0.49435  0.81939  1.0000
  O   O44       1.0  0.84449  0.99435  0.68061  1.0000
  O   O45       1.0  0.88940  0.62333  0.09245  1.0000
  O   O46       1.0  0.11060  0.12333  0.40755  1.0000
  O   O47       1.0  0.11060  0.37667  0.90755  1.0000
  O   O48       1.0  0.88940  0.87667  0.59245  1.0000
  C   C1        1.0  0.46130  0.36885  0.13757  1.0000
  C   C2        1.0  0.53870  0.86885  0.36243  1.0000
  C   C3        1.0  0.53870  0.63115  0.86243  1.0000
  C   C4        1.0  0.46130  0.13115  0.63757  1.0000
  H   H1        1.0  0.50680  0.31020  0.13640  1.0000
  H   H2        1.0  0.49320  0.81020  0.36360  1.0000
  H   H3        1.0  0.49320  0.68980  0.86360  1.0000
  H   H4        1.0  0.50680  0.18980  0.63640  1.0000
  C   C5        1.0  0.69820  0.58390  0.36166  1.0000
  C   C6        1.0  0.30180  0.08390  0.13834  1.0000
  C   C7        1.0  0.30180  0.41610  0.63834  1.0000
  C   C8        1.0  0.69820  0.91610  0.86166  1.0000
  H   H5        1.0  0.81200  0.58420  0.36740  1.0000
  H   H6        1.0  0.18800  0.08420  0.13260  1.0000
  H   H7        1.0  0.18800  0.41580  0.63260  1.0000
  H   H8        1.0  0.81200  0.91580  0.86740  1.0000
  C   C9        1.0  0.99160  0.35743  0.37003  1.0000
  C   C10       1.0  0.00840  0.85743  0.12997  1.0000
  C   C11       1.0  0.00840  0.64257  0.62997  1.0000
  C   C12       1.0  0.99160  0.14257  0.87003  1.0000
  H   H9        1.0  0.95230  0.29810  0.36020  1.0000
  H   H10       1.0  0.04770  0.79810  0.13980  1.0000
  H   H11       1.0  0.04770  0.70190  0.63980  1.0000
  H   H12       1.0  0.95230  0.20190  0.86020  1.0000
  C   C13       1.0  0.94650  0.31101  0.14711  1.0000
  C   C14       1.0  0.05350  0.81101  0.35289  1.0000
  C   C15       1.0  0.05350  0.68899  0.85289  1.0000
  C   C16       1.0  0.94650  0.18899  0.64711  1.0000
  H   H13       1.0  0.02370  0.35750  0.15490  1.0000
  H   H14       1.0  0.97630  0.85750  0.34510  1.0000
  H   H15       1.0  0.97630  0.64250  0.84510  1.0000
  H   H16       1.0  0.02370  0.14250  0.65490  1.0000
  C   C17       1.0  0.49780  0.31742  0.36278  1.0000
  C   C18       1.0  0.50220  0.81742  0.13722  1.0000
  C   C19       1.0  0.50220  0.68258  0.63722  1.0000
  C   C20       1.0  0.49780  0.18258  0.86278  1.0000
  H   H17       1.0  0.41730  0.36110  0.35010  1.0000
  H   H18       1.0  0.58270  0.86110  0.14990  1.0000
  H   H19       1.0  0.58270  0.63890  0.64990  1.0000
  H   H20       1.0  0.41730  0.13890  0.85010  1.0000
  C   C21       1.0  0.79980  0.57610  0.13796  1.0000
  C   C22       1.0  0.20020  0.07610  0.36204  1.0000
  C   C23       1.0  0.20020  0.42390  0.86204  1.0000
  C   C24       1.0  0.79980  0.92390  0.63796  1.0000
  H   H21       1.0  0.69030  0.59340  0.14140  1.0000
  H   H22       1.0  0.30970  0.09340  0.35860  1.0000
  H   H23       1.0  0.30970  0.40660  0.85860  1.0000
  H   H24       1.0  0.69030  0.90660  0.64140  1.0000
