data_image0
_chemical_formula_structural       Al3Na3O36C6H6C6H6C6H6
_chemical_formula_sum              "Al3 Na3 O36 C18 H18"
_cell_length_a       8.1821
_cell_length_b       8.1821
_cell_length_c       22.6596
_cell_angle_alpha    90
_cell_angle_beta     90
_cell_angle_gamma    120

_space_group_name_H-M_alt    "P 1"
_space_group_IT_number       1

loop_
  _space_group_symop_operation_xyz
  'x, y, z'

loop_
  _atom_site_type_symbol
  _atom_site_label
  _atom_site_symmetry_multiplicity
  _atom_site_fract_x
  _atom_site_fract_y
  _atom_site_fract_z
  _atom_site_occupancy
  Al  Al1       1.0  0.67094  0.32906  0.16670  1.0000
  Al  Al2       1.0  0.67094  0.34188  0.83337  1.0000
  Al  Al3       1.0  0.65812  0.32906  0.50003  1.0000
  Na  Na1       1.0  0.99145  0.99572  0.00000  1.0000
  Na  Na2       1.0  0.00428  0.99573  0.66667  1.0000
  Na  Na3       1.0  0.00427  0.00855  0.33333  1.0000
  O   O1        1.0  0.22330  0.21700  0.06543  1.0000
  O   O2        1.0  0.78300  0.00630  0.73210  1.0000
  O   O3        1.0  0.99370  0.77670  0.39876  1.0000
  O   O4        1.0  0.78300  0.77670  0.26790  1.0000
  O   O5        1.0  0.99370  0.21700  0.60124  1.0000
  O   O6        1.0  0.22330  0.00630  0.93457  1.0000
  O   O7        1.0  0.47590  0.32840  0.12220  1.0000
  O   O8        1.0  0.67160  0.14750  0.78887  1.0000
  O   O9        1.0  0.85250  0.52410  0.45553  1.0000
  O   O10       1.0  0.67160  0.52410  0.21113  1.0000
  O   O11       1.0  0.85250  0.32840  0.54447  1.0000
  O   O12       1.0  0.47590  0.14750  0.87780  1.0000
  O   O13       1.0  0.99670  0.25250  0.94665  1.0000
  O   O14       1.0  0.74750  0.74420  0.61332  1.0000
  O   O15       1.0  0.25580  0.00330  0.27998  1.0000
  O   O16       1.0  0.74750  0.00330  0.38668  1.0000
  O   O17       1.0  0.25580  0.25250  0.72002  1.0000
  O   O18       1.0  0.99670  0.74420  0.05335  1.0000
  O   O19       1.0  0.85690  0.35430  0.88590  1.0000
  O   O20       1.0  0.64570  0.50260  0.55257  1.0000
  O   O21       1.0  0.49740  0.14310  0.21923  1.0000
  O   O22       1.0  0.64570  0.14310  0.44743  1.0000
  O   O23       1.0  0.49740  0.35430  0.78077  1.0000
  O   O24       1.0  0.85690  0.50260  0.11410  1.0000
  O   O25       1.0  0.73660  0.96860  0.06268  1.0000
  O   O26       1.0  0.03140  0.76800  0.72935  1.0000
  O   O27       1.0  0.23200  0.26340  0.39601  1.0000
  O   O28       1.0  0.03140  0.26340  0.27065  1.0000
  O   O29       1.0  0.23200  0.96860  0.60399  1.0000
  O   O30       1.0  0.73660  0.76800  0.93732  1.0000
  O   O31       1.0  0.65030  0.12280  0.12247  1.0000
  O   O32       1.0  0.87720  0.52750  0.78914  1.0000
  O   O33       1.0  0.47250  0.34970  0.45580  1.0000
  O   O34       1.0  0.87720  0.34970  0.21086  1.0000
  O   O35       1.0  0.47250  0.12280  0.54420  1.0000
  O   O36       1.0  0.65030  0.52750  0.87753  1.0000
  C   C1        1.0  0.34440  0.20540  0.09129  1.0000
  C   C2        1.0  0.79460  0.13900  0.75796  1.0000
  C   C3        1.0  0.86100  0.65560  0.42462  1.0000
  C   C4        1.0  0.79460  0.65560  0.24204  1.0000
  C   C5        1.0  0.86100  0.20540  0.57538  1.0000
  C   C6        1.0  0.34440  0.13900  0.90871  1.0000
  H   H1        1.0  0.34070  0.09030  0.08810  1.0000
  H   H2        1.0  0.90970  0.25040  0.75477  1.0000
  H   H3        1.0  0.74960  0.65930  0.42143  1.0000
  H   H4        1.0  0.90970  0.65930  0.24523  1.0000
  H   H5        1.0  0.74960  0.09030  0.57857  1.0000
  H   H6        1.0  0.34070  0.25040  0.91190  1.0000
  C   C7        1.0  0.86840  0.23010  0.91464  1.0000
  C   C8        1.0  0.76990  0.63830  0.58131  1.0000
  C   C9        1.0  0.36170  0.13160  0.24797  1.0000
  C   C10       1.0  0.76990  0.13160  0.41869  1.0000
  C   C11       1.0  0.36170  0.23010  0.75203  1.0000
  C   C12       1.0  0.86840  0.63830  0.08536  1.0000
  H   H7        1.0  0.76790  0.10740  0.91110  1.0000
  H   H8        1.0  0.89260  0.66050  0.57777  1.0000
  H   H9        1.0  0.33950  0.23210  0.24443  1.0000
  H   H10       1.0  0.89260  0.23210  0.42223  1.0000
  H   H11       1.0  0.33950  0.10740  0.75557  1.0000
  H   H12       1.0  0.76790  0.66050  0.08890  1.0000
  C   C13       1.0  0.76800  0.10910  0.09027  1.0000
  C   C14       1.0  0.89090  0.65890  0.75694  1.0000
  C   C15       1.0  0.34110  0.23200  0.42360  1.0000
  C   C16       1.0  0.89090  0.23200  0.24306  1.0000
  C   C17       1.0  0.34110  0.10910  0.57640  1.0000
  C   C18       1.0  0.76800  0.65890  0.90973  1.0000
  H   H13       1.0  0.88820  0.21420  0.08730  1.0000
  H   H14       1.0  0.78580  0.67400  0.75397  1.0000
  H   H15       1.0  0.32600  0.11180  0.42063  1.0000
  H   H16       1.0  0.78580  0.11180  0.24603  1.0000
  H   H17       1.0  0.32600  0.21420  0.57937  1.0000
  H   H18       1.0  0.88820  0.67400  0.91270  1.0000
