data_image0
_chemical_formula_structural       Al4Na4O48C4H4C4H4C4H4C4H4C4H4C4H4
_chemical_formula_sum              "Al4 Na4 O48 C24 H24"
_cell_length_a       8.1086
_cell_length_b       14.5465
_cell_length_c       14.7895
_cell_angle_alpha    90
_cell_angle_beta     91.1963
_cell_angle_gamma    90

_space_group_name_H-M_alt    "P 1"
_space_group_IT_number       1

loop_
  _space_group_symop_operation_xyz
  'x, y, z'

loop_
  _atom_site_type_symbol
  _atom_site_label
  _atom_site_symmetry_multiplicity
  _atom_site_fract_x
  _atom_site_fract_y
  _atom_site_fract_z
  _atom_site_occupancy
  Al  Al1       1.0  0.72648  0.42265  0.25680  1.0000
  Al  Al2       1.0  0.27352  0.92265  0.24320  1.0000
  Al  Al3       1.0  0.27352  0.57735  0.74320  1.0000
  Al  Al4       1.0  0.72648  0.07735  0.75680  1.0000
  Na  Na1       1.0  0.22137  0.25593  0.00637  1.0000
  Na  Na2       1.0  0.77863  0.75593  0.49363  1.0000
  Na  Na3       1.0  0.77863  0.74407  0.99363  1.0000
  Na  Na4       1.0  0.22137  0.24407  0.50637  1.0000
  O   O1        1.0  0.53515  0.43339  0.18033  1.0000
  O   O2        1.0  0.46485  0.93339  0.31967  1.0000
  O   O3        1.0  0.46485  0.56661  0.81967  1.0000
  O   O4        1.0  0.53515  0.06661  0.68033  1.0000
  O   O5        1.0  0.32345  0.38273  0.09773  1.0000
  O   O6        1.0  0.67655  0.88273  0.40227  1.0000
  O   O7        1.0  0.67655  0.61727  0.90227  1.0000
  O   O8        1.0  0.32345  0.11727  0.59773  1.0000
  O   O9        1.0  0.62953  0.52009  0.32203  1.0000
  O   O10       1.0  0.37047  0.02009  0.17797  1.0000
  O   O11       1.0  0.37047  0.47991  0.67797  1.0000
  O   O12       1.0  0.62953  0.97991  0.82203  1.0000
  O   O13       1.0  0.62179  0.65308  0.39437  1.0000
  O   O14       1.0  0.37821  0.15308  0.10563  1.0000
  O   O15       1.0  0.37821  0.34692  0.60563  1.0000
  O   O16       1.0  0.62179  0.84692  0.89437  1.0000
  O   O17       1.0  0.91491  0.42458  0.33203  1.0000
  O   O18       1.0  0.08509  0.92458  0.16797  1.0000
  O   O19       1.0  0.08509  0.57542  0.66797  1.0000
  O   O20       1.0  0.91491  0.07542  0.83203  1.0000
  O   O21       1.0  0.10475  0.36578  0.42502  1.0000
  O   O22       1.0  0.89525  0.86578  0.07498  1.0000
  O   O23       1.0  0.89525  0.63422  0.57498  1.0000
  O   O24       1.0  0.10475  0.13422  0.92502  1.0000
  O   O25       1.0  0.80454  0.32301  0.18610  1.0000
  O   O26       1.0  0.19546  0.82301  0.31390  1.0000
  O   O27       1.0  0.19546  0.67699  0.81390  1.0000
  O   O28       1.0  0.80454  0.17699  0.68610  1.0000
  O   O29       1.0  0.98096  0.24531  0.10355  1.0000
  O   O30       1.0  0.01904  0.74531  0.39645  1.0000
  O   O31       1.0  0.01904  0.75469  0.89645  1.0000
  O   O32       1.0  0.98096  0.25469  0.60355  1.0000
  O   O33       1.0  0.63030  0.33288  0.33024  1.0000
  O   O34       1.0  0.36970  0.83288  0.16976  1.0000
  O   O35       1.0  0.36970  0.66712  0.66976  1.0000
  O   O36       1.0  0.63030  0.16712  0.83024  1.0000
  O   O37       1.0  0.45156  0.25488  0.41136  1.0000
  O   O38       1.0  0.54844  0.75488  0.08864  1.0000
  O   O39       1.0  0.54844  0.74512  0.58864  1.0000
  O   O40       1.0  0.45156  0.24512  0.91136  1.0000
  O   O41       1.0  0.84362  0.50638  0.18209  1.0000
  O   O42       1.0  0.15638  0.00638  0.31791  1.0000
  O   O43       1.0  0.15638  0.49362  0.81791  1.0000
  O   O44       1.0  0.84362  0.99362  0.68209  1.0000
  O   O45       1.0  0.89403  0.62426  0.09243  1.0000
  O   O46       1.0  0.10597  0.12426  0.40757  1.0000
  O   O47       1.0  0.10597  0.37574  0.90757  1.0000
  O   O48       1.0  0.89403  0.87574  0.59243  1.0000
  C   C1        1.0  0.45620  0.37104  0.13863  1.0000
  C   C2        1.0  0.54380  0.87104  0.36137  1.0000
  C   C3        1.0  0.54380  0.62896  0.86137  1.0000
  C   C4        1.0  0.45620  0.12896  0.63863  1.0000
  H   H1        1.0  0.50220  0.31100  0.13870  1.0000
  H   H2        1.0  0.49780  0.81100  0.36130  1.0000
  H   H3        1.0  0.49780  0.68900  0.86130  1.0000
  H   H4        1.0  0.50220  0.18900  0.63870  1.0000
  C   C5        1.0  0.69780  0.58758  0.36268  1.0000
  C   C6        1.0  0.30220  0.08758  0.13732  1.0000
  C   C7        1.0  0.30220  0.41242  0.63732  1.0000
  C   C8        1.0  0.69780  0.91242  0.86268  1.0000
  H   H5        1.0  0.81470  0.58750  0.36900  1.0000
  H   H6        1.0  0.18530  0.08750  0.13100  1.0000
  H   H7        1.0  0.18530  0.41250  0.63100  1.0000
  H   H8        1.0  0.81470  0.91250  0.86900  1.0000
  C   C9        1.0  0.98920  0.35858  0.37285  1.0000
  C   C10       1.0  0.01080  0.85858  0.12715  1.0000
  C   C11       1.0  0.01080  0.64142  0.62715  1.0000
  C   C12       1.0  0.98920  0.14142  0.87285  1.0000
  H   H9        1.0  0.94970  0.29820  0.36100  1.0000
  H   H10       1.0  0.05030  0.79820  0.13900  1.0000
  H   H11       1.0  0.05030  0.70180  0.63900  1.0000
  H   H12       1.0  0.94970  0.20180  0.86100  1.0000
  C   C13       1.0  0.94420  0.31250  0.14955  1.0000
  C   C14       1.0  0.05580  0.81250  0.35045  1.0000
  C   C15       1.0  0.05580  0.68750  0.85045  1.0000
  C   C16       1.0  0.94420  0.18750  0.64955  1.0000
  H   H13       1.0  0.02470  0.35930  0.15830  1.0000
  H   H14       1.0  0.97530  0.85930  0.34170  1.0000
  H   H15       1.0  0.97530  0.64070  0.84170  1.0000
  H   H16       1.0  0.02470  0.14070  0.65830  1.0000
  C   C17       1.0  0.48930  0.31785  0.36237  1.0000
  C   C18       1.0  0.51070  0.81785  0.13763  1.0000
  C   C19       1.0  0.51070  0.68215  0.63763  1.0000
  C   C20       1.0  0.48930  0.18215  0.86237  1.0000
  H   H17       1.0  0.40460  0.36030  0.34640  1.0000
  H   H18       1.0  0.59540  0.86030  0.15360  1.0000
  H   H19       1.0  0.59540  0.63970  0.65360  1.0000
  H   H20       1.0  0.40460  0.13970  0.84640  1.0000
  C   C21       1.0  0.80030  0.57782  0.13836  1.0000
  C   C22       1.0  0.19970  0.07782  0.36164  1.0000
  C   C23       1.0  0.19970  0.42218  0.86164  1.0000
  C   C24       1.0  0.80030  0.92218  0.63836  1.0000
  H   H21       1.0  0.68840  0.59670  0.14130  1.0000
  H   H22       1.0  0.31160  0.09670  0.35870  1.0000
  H   H23       1.0  0.31160  0.40330  0.85870  1.0000
  H   H24       1.0  0.68840  0.90330  0.64130  1.0000
