data_image0
_chemical_formula_structural       Al3O18C18O6H6O6H6O6H6Na3
_chemical_formula_sum              "Al3 O36 C18 H18 Na3"
_cell_length_a       8.1643
_cell_length_b       8.1643
_cell_length_c       22.6671
_cell_angle_alpha    90
_cell_angle_beta     90
_cell_angle_gamma    120

_space_group_name_H-M_alt    "P 1"
_space_group_IT_number       1

loop_
  _space_group_symop_operation_xyz
  'x, y, z'

loop_
  _atom_site_type_symbol
  _atom_site_label
  _atom_site_symmetry_multiplicity
  _atom_site_fract_x
  _atom_site_fract_y
  _atom_site_fract_z
  _atom_site_occupancy
  Al  Al1       1.0  0.67115  0.32885  0.16670  1.0000
  Al  Al2       1.0  0.67115  0.34230  0.83337  1.0000
  Al  Al3       1.0  0.65770  0.32885  0.50003  1.0000
  O   O1        1.0  0.47550  0.32830  0.12240  1.0000
  O   O2        1.0  0.67170  0.14720  0.78907  1.0000
  O   O3        1.0  0.85280  0.52450  0.45573  1.0000
  O   O4        1.0  0.67170  0.52450  0.21093  1.0000
  O   O5        1.0  0.85280  0.32830  0.54427  1.0000
  O   O6        1.0  0.47550  0.14720  0.87760  1.0000
  O   O7        1.0  0.85700  0.50130  0.11383  1.0000
  O   O8        1.0  0.49870  0.35570  0.78050  1.0000
  O   O9        1.0  0.64430  0.14300  0.44716  1.0000
  O   O10       1.0  0.49870  0.14300  0.21950  1.0000
  O   O11       1.0  0.64430  0.50130  0.55284  1.0000
  O   O12       1.0  0.85700  0.35570  0.88617  1.0000
  O   O13       1.0  0.87860  0.35040  0.21064  1.0000
  O   O14       1.0  0.64960  0.52820  0.87731  1.0000
  O   O15       1.0  0.47180  0.12140  0.54397  1.0000
  O   O16       1.0  0.64960  0.12140  0.12269  1.0000
  O   O17       1.0  0.47180  0.35040  0.45603  1.0000
  O   O18       1.0  0.87860  0.52820  0.78936  1.0000
  C   C1        1.0  0.34280  0.20240  0.09162  1.0000
  C   C2        1.0  0.79760  0.14040  0.75829  1.0000
  C   C3        1.0  0.85960  0.65720  0.42495  1.0000
  C   C4        1.0  0.79760  0.65720  0.24171  1.0000
  C   C5        1.0  0.85960  0.20240  0.57505  1.0000
  C   C6        1.0  0.34280  0.14040  0.90838  1.0000
  C   C7        1.0  0.86750  0.63860  0.08536  1.0000
  C   C8        1.0  0.36140  0.22890  0.75203  1.0000
  C   C9        1.0  0.77110  0.13250  0.41869  1.0000
  C   C10       1.0  0.36140  0.13250  0.24797  1.0000
  C   C11       1.0  0.77110  0.63860  0.58131  1.0000
  C   C12       1.0  0.86750  0.22890  0.91464  1.0000
  C   C13       1.0  0.89120  0.23130  0.24301  1.0000
  C   C14       1.0  0.76870  0.65990  0.90968  1.0000
  C   C15       1.0  0.34010  0.10880  0.57634  1.0000
  C   C16       1.0  0.76870  0.10880  0.09032  1.0000
  C   C17       1.0  0.34010  0.23130  0.42366  1.0000
  C   C18       1.0  0.89120  0.65990  0.75699  1.0000
  O   O19       1.0  0.22070  0.21480  0.06581  1.0000
  O   O20       1.0  0.78520  0.00590  0.73248  1.0000
  O   O21       1.0  0.99410  0.77930  0.39914  1.0000
  O   O22       1.0  0.78520  0.77930  0.26752  1.0000
  O   O23       1.0  0.99410  0.21480  0.60086  1.0000
  O   O24       1.0  0.22070  0.00590  0.93419  1.0000
  H   H1        1.0  0.33930  0.08460  0.08860  1.0000
  H   H2        1.0  0.91540  0.25470  0.75527  1.0000
  H   H3        1.0  0.74530  0.66070  0.42193  1.0000
  H   H4        1.0  0.91540  0.66070  0.24473  1.0000
  H   H5        1.0  0.74530  0.08460  0.57807  1.0000
  H   H6        1.0  0.33930  0.25470  0.91140  1.0000
  O   O25       1.0  0.99620  0.74430  0.05285  1.0000
  O   O26       1.0  0.25570  0.25190  0.71952  1.0000
  O   O27       1.0  0.74810  0.00380  0.38618  1.0000
  O   O28       1.0  0.25570  0.00380  0.28048  1.0000
  O   O29       1.0  0.74810  0.74430  0.61382  1.0000
  O   O30       1.0  0.99620  0.25190  0.94715  1.0000
  H   H7        1.0  0.76530  0.66210  0.08960  1.0000
  H   H8        1.0  0.33790  0.10320  0.75627  1.0000
  H   H9        1.0  0.89680  0.23470  0.42293  1.0000
  H   H10       1.0  0.33790  0.23470  0.24373  1.0000
  H   H11       1.0  0.89680  0.66210  0.57707  1.0000
  H   H12       1.0  0.76530  0.10320  0.91040  1.0000
  O   O31       1.0  0.03340  0.26390  0.27064  1.0000
  O   O32       1.0  0.73610  0.76950  0.93731  1.0000
  O   O33       1.0  0.23050  0.96660  0.60397  1.0000
  O   O34       1.0  0.73610  0.96660  0.06269  1.0000
  O   O35       1.0  0.23050  0.26390  0.39603  1.0000
  O   O36       1.0  0.03340  0.76950  0.72936  1.0000
  H   H13       1.0  0.78350  0.10850  0.24610  1.0000
  H   H14       1.0  0.89150  0.67500  0.91277  1.0000
  H   H15       1.0  0.32500  0.21650  0.57943  1.0000
  H   H16       1.0  0.89150  0.21650  0.08723  1.0000
  H   H17       1.0  0.32500  0.10850  0.42057  1.0000
  H   H18       1.0  0.78350  0.67500  0.75390  1.0000
  Na  Na1       1.0  0.99021  0.99510  0.00000  1.0000
  Na  Na2       1.0  0.00490  0.99511  0.66667  1.0000
  Na  Na3       1.0  0.00489  0.00979  0.33333  1.0000
