data_image0
_chemical_formula_structural       Al4Na4O48C4H4C4H4C4H4C4H4C4H4C4H4
_chemical_formula_sum              "Al4 Na4 O48 C24 H24"
_cell_length_a       8.1388
_cell_length_b       14.5283
_cell_length_c       14.9101
_cell_angle_alpha    90
_cell_angle_beta     91.0594
_cell_angle_gamma    90

_space_group_name_H-M_alt    "P 1"
_space_group_IT_number       1

loop_
  _space_group_symop_operation_xyz
  'x, y, z'

loop_
  _atom_site_type_symbol
  _atom_site_label
  _atom_site_symmetry_multiplicity
  _atom_site_fract_x
  _atom_site_fract_y
  _atom_site_fract_z
  _atom_site_occupancy
  Al  Al1       1.0  0.72879  0.42108  0.25540  1.0000
  Al  Al2       1.0  0.27121  0.92108  0.24460  1.0000
  Al  Al3       1.0  0.27121  0.57892  0.74460  1.0000
  Al  Al4       1.0  0.72879  0.07892  0.75540  1.0000
  Na  Na1       1.0  0.22471  0.25477  0.00534  1.0000
  Na  Na2       1.0  0.77529  0.75477  0.49466  1.0000
  Na  Na3       1.0  0.77529  0.74523  0.99466  1.0000
  Na  Na4       1.0  0.22471  0.24523  0.50534  1.0000
  O   O1        1.0  0.53794  0.43121  0.17996  1.0000
  O   O2        1.0  0.46206  0.93121  0.32004  1.0000
  O   O3        1.0  0.46206  0.56879  0.82004  1.0000
  O   O4        1.0  0.53794  0.06879  0.67996  1.0000
  O   O5        1.0  0.32750  0.38100  0.09765  1.0000
  O   O6        1.0  0.67250  0.88100  0.40235  1.0000
  O   O7        1.0  0.67250  0.61900  0.90235  1.0000
  O   O8        1.0  0.32750  0.11900  0.59765  1.0000
  O   O9        1.0  0.63205  0.51833  0.32065  1.0000
  O   O10       1.0  0.36795  0.01833  0.17935  1.0000
  O   O11       1.0  0.36795  0.48167  0.67935  1.0000
  O   O12       1.0  0.63205  0.98167  0.82065  1.0000
  O   O13       1.0  0.62292  0.64980  0.39479  1.0000
  O   O14       1.0  0.37708  0.14980  0.10521  1.0000
  O   O15       1.0  0.37708  0.35020  0.60521  1.0000
  O   O16       1.0  0.62292  0.85020  0.89479  1.0000
  O   O17       1.0  0.91679  0.42266  0.32957  1.0000
  O   O18       1.0  0.08321  0.92266  0.17043  1.0000
  O   O19       1.0  0.08321  0.57734  0.67043  1.0000
  O   O20       1.0  0.91679  0.07734  0.82957  1.0000
  O   O21       1.0  0.10552  0.36508  0.42210  1.0000
  O   O22       1.0  0.89448  0.86508  0.07790  1.0000
  O   O23       1.0  0.89448  0.63492  0.57790  1.0000
  O   O24       1.0  0.10552  0.13492  0.92210  1.0000
  O   O25       1.0  0.80802  0.32151  0.18502  1.0000
  O   O26       1.0  0.19198  0.82151  0.31498  1.0000
  O   O27       1.0  0.19198  0.67849  0.81498  1.0000
  O   O28       1.0  0.80802  0.17849  0.68502  1.0000
  O   O29       1.0  0.98329  0.24478  0.10259  1.0000
  O   O30       1.0  0.01671  0.74478  0.39741  1.0000
  O   O31       1.0  0.01671  0.75522  0.89741  1.0000
  O   O32       1.0  0.98329  0.25522  0.60259  1.0000
  O   O33       1.0  0.63231  0.33117  0.32793  1.0000
  O   O34       1.0  0.36769  0.83117  0.17207  1.0000
  O   O35       1.0  0.36769  0.66883  0.67207  1.0000
  O   O36       1.0  0.63231  0.16883  0.82793  1.0000
  O   O37       1.0  0.45626  0.25587  0.41180  1.0000
  O   O38       1.0  0.54374  0.75587  0.08820  1.0000
  O   O39       1.0  0.54374  0.74413  0.58820  1.0000
  O   O40       1.0  0.45626  0.24413  0.91180  1.0000
  O   O41       1.0  0.84421  0.50561  0.18137  1.0000
  O   O42       1.0  0.15579  0.00561  0.31863  1.0000
  O   O43       1.0  0.15579  0.49439  0.81863  1.0000
  O   O44       1.0  0.84421  0.99439  0.68137  1.0000
  O   O45       1.0  0.89133  0.62345  0.09220  1.0000
  O   O46       1.0  0.10867  0.12345  0.40780  1.0000
  O   O47       1.0  0.10867  0.37655  0.90780  1.0000
  O   O48       1.0  0.89133  0.87655  0.59220  1.0000
  C   C1        1.0  0.45950  0.36999  0.13794  1.0000
  C   C2        1.0  0.54050  0.86999  0.36206  1.0000
  C   C3        1.0  0.54050  0.63001  0.86206  1.0000
  C   C4        1.0  0.45950  0.13001  0.63794  1.0000
  H   H1        1.0  0.50500  0.31130  0.13720  1.0000
  H   H2        1.0  0.49500  0.81130  0.36280  1.0000
  H   H3        1.0  0.49500  0.68870  0.86280  1.0000
  H   H4        1.0  0.50500  0.18870  0.63720  1.0000
  C   C5        1.0  0.69790  0.58545  0.36203  1.0000
  C   C6        1.0  0.30210  0.08545  0.13797  1.0000
  C   C7        1.0  0.30210  0.41455  0.63797  1.0000
  C   C8        1.0  0.69790  0.91455  0.86203  1.0000
  H   H5        1.0  0.81180  0.58580  0.36790  1.0000
  H   H6        1.0  0.18820  0.08580  0.13210  1.0000
  H   H7        1.0  0.18820  0.41420  0.63210  1.0000
  H   H8        1.0  0.81180  0.91420  0.86790  1.0000
  C   C9        1.0  0.99080  0.35778  0.37114  1.0000
  C   C10       1.0  0.00920  0.85778  0.12886  1.0000
  C   C11       1.0  0.00920  0.64222  0.62886  1.0000
  C   C12       1.0  0.99080  0.14222  0.87114  1.0000
  H   H9        1.0  0.95170  0.29850  0.36080  1.0000
  H   H10       1.0  0.04830  0.79850  0.13920  1.0000
  H   H11       1.0  0.04830  0.70150  0.63920  1.0000
  H   H12       1.0  0.95170  0.20150  0.86080  1.0000
  C   C13       1.0  0.94590  0.31102  0.14794  1.0000
  C   C14       1.0  0.05410  0.81102  0.35206  1.0000
  C   C15       1.0  0.05410  0.68898  0.85206  1.0000
  C   C16       1.0  0.94590  0.18898  0.64794  1.0000
  H   H13       1.0  0.02390  0.35720  0.15600  1.0000
  H   H14       1.0  0.97610  0.85720  0.34400  1.0000
  H   H15       1.0  0.97610  0.64280  0.84400  1.0000
  H   H16       1.0  0.02390  0.14280  0.65600  1.0000
  C   C17       1.0  0.49540  0.31751  0.36303  1.0000
  C   C18       1.0  0.50460  0.81751  0.13697  1.0000
  C   C19       1.0  0.50460  0.68249  0.63697  1.0000
  C   C20       1.0  0.49540  0.18249  0.86303  1.0000
  H   H17       1.0  0.41410  0.36060  0.34950  1.0000
  H   H18       1.0  0.58590  0.86060  0.15050  1.0000
  H   H19       1.0  0.58590  0.63940  0.65050  1.0000
  H   H20       1.0  0.41410  0.13940  0.84950  1.0000
  C   C21       1.0  0.80010  0.57648  0.13801  1.0000
  C   C22       1.0  0.19990  0.07648  0.36199  1.0000
  C   C23       1.0  0.19990  0.42352  0.86199  1.0000
  C   C24       1.0  0.80010  0.92352  0.63801  1.0000
  H   H21       1.0  0.69060  0.59420  0.14110  1.0000
  H   H22       1.0  0.30940  0.09420  0.35890  1.0000
  H   H23       1.0  0.30940  0.40580  0.85890  1.0000
  H   H24       1.0  0.69060  0.90580  0.64110  1.0000
