data_image0
_chemical_formula_structural       Al4Na4O48C4H4C4H4C4H4C4H4C4H4C4H4
_chemical_formula_sum              "Al4 Na4 O48 C24 H24"
_cell_length_a       8.1658
_cell_length_b       14.4097
_cell_length_c       14.1173
_cell_angle_alpha    90
_cell_angle_beta     90.166
_cell_angle_gamma    90

_space_group_name_H-M_alt    "P 1"
_space_group_IT_number       1

loop_
  _space_group_symop_operation_xyz
  'x, y, z'

loop_
  _atom_site_type_symbol
  _atom_site_label
  _atom_site_symmetry_multiplicity
  _atom_site_fract_x
  _atom_site_fract_y
  _atom_site_fract_z
  _atom_site_occupancy
  Al  Al1       1.0  0.72440  0.42494  0.27290  1.0000
  Al  Al2       1.0  0.27560  0.92494  0.22710  1.0000
  Al  Al3       1.0  0.27560  0.57506  0.72710  1.0000
  Al  Al4       1.0  0.72440  0.07506  0.77290  1.0000
  Na  Na1       1.0  0.22422  0.27743  0.00652  1.0000
  Na  Na2       1.0  0.77578  0.77743  0.49348  1.0000
  Na  Na3       1.0  0.77578  0.72257  0.99348  1.0000
  Na  Na4       1.0  0.22422  0.22257  0.50652  1.0000
  O   O1        1.0  0.53491  0.44048  0.19728  1.0000
  O   O2        1.0  0.46509  0.94048  0.30272  1.0000
  O   O3        1.0  0.46509  0.55952  0.80272  1.0000
  O   O4        1.0  0.53491  0.05952  0.69728  1.0000
  O   O5        1.0  0.33320  0.40518  0.09807  1.0000
  O   O6        1.0  0.66680  0.90518  0.40193  1.0000
  O   O7        1.0  0.66680  0.59482  0.90193  1.0000
  O   O8        1.0  0.33320  0.09482  0.59807  1.0000
  O   O9        1.0  0.63287  0.51577  0.35358  1.0000
  O   O10       1.0  0.36713  0.01577  0.14642  1.0000
  O   O11       1.0  0.36713  0.48423  0.64642  1.0000
  O   O12       1.0  0.63287  0.98423  0.85358  1.0000
  O   O13       1.0  0.61991  0.65980  0.41006  1.0000
  O   O14       1.0  0.38009  0.15980  0.08994  1.0000
  O   O15       1.0  0.38009  0.34020  0.58994  1.0000
  O   O16       1.0  0.61991  0.84020  0.91006  1.0000
  O   O17       1.0  0.90731  0.41578  0.35350  1.0000
  O   O18       1.0  0.09269  0.91578  0.14650  1.0000
  O   O19       1.0  0.09269  0.58422  0.64650  1.0000
  O   O20       1.0  0.90731  0.08422  0.85350  1.0000
  O   O21       1.0  0.11944  0.34662  0.42227  1.0000
  O   O22       1.0  0.88056  0.84662  0.07773  1.0000
  O   O23       1.0  0.88056  0.65338  0.57773  1.0000
  O   O24       1.0  0.11944  0.15338  0.92227  1.0000
  O   O25       1.0  0.79891  0.33113  0.18851  1.0000
  O   O26       1.0  0.20109  0.83113  0.31149  1.0000
  O   O27       1.0  0.20109  0.66887  0.81149  1.0000
  O   O28       1.0  0.79891  0.16887  0.68851  1.0000
  O   O29       1.0  0.97793  0.26223  0.09381  1.0000
  O   O30       1.0  0.02207  0.76223  0.40619  1.0000
  O   O31       1.0  0.02207  0.73777  0.90619  1.0000
  O   O32       1.0  0.97793  0.23777  0.59381  1.0000
  O   O33       1.0  0.63210  0.32759  0.34638  1.0000
  O   O34       1.0  0.36790  0.82759  0.15362  1.0000
  O   O35       1.0  0.36790  0.67241  0.65362  1.0000
  O   O36       1.0  0.63210  0.17241  0.84638  1.0000
  O   O37       1.0  0.47216  0.22192  0.41182  1.0000
  O   O38       1.0  0.52784  0.72192  0.08818  1.0000
  O   O39       1.0  0.52784  0.77808  0.58818  1.0000
  O   O40       1.0  0.47216  0.27808  0.91182  1.0000
  O   O41       1.0  0.84303  0.51496  0.20522  1.0000
  O   O42       1.0  0.15697  0.01496  0.29478  1.0000
  O   O43       1.0  0.15697  0.48504  0.79478  1.0000
  O   O44       1.0  0.84303  0.98504  0.70522  1.0000
  O   O45       1.0  0.91853  0.61681  0.09619  1.0000
  O   O46       1.0  0.08147  0.11681  0.40381  1.0000
  O   O47       1.0  0.08147  0.38319  0.90381  1.0000
  O   O48       1.0  0.91853  0.88319  0.59619  1.0000
  C   C1        1.0  0.45879  0.38503  0.14300  1.0000
  C   C2        1.0  0.54121  0.88503  0.35700  1.0000
  C   C3        1.0  0.54121  0.61497  0.85700  1.0000
  C   C4        1.0  0.45879  0.11497  0.64300  1.0000
  H   H1        1.0  0.50090  0.32390  0.13640  1.0000
  H   H2        1.0  0.49910  0.82390  0.36360  1.0000
  H   H3        1.0  0.49910  0.67610  0.86360  1.0000
  H   H4        1.0  0.50090  0.17610  0.63640  1.0000
  C   C5        1.0  0.69706  0.59210  0.38042  1.0000
  C   C6        1.0  0.30294  0.09210  0.11958  1.0000
  C   C7        1.0  0.30294  0.40790  0.61958  1.0000
  C   C8        1.0  0.69706  0.90790  0.88042  1.0000
  H   H5        1.0  0.81290  0.59730  0.37740  1.0000
  H   H6        1.0  0.18710  0.09730  0.12260  1.0000
  H   H7        1.0  0.18710  0.40270  0.62260  1.0000
  H   H8        1.0  0.81290  0.90270  0.87740  1.0000
  C   C9        1.0  0.99640  0.34524  0.37322  1.0000
  C   C10       1.0  0.00360  0.84524  0.12678  1.0000
  C   C11       1.0  0.00360  0.65476  0.62678  1.0000
  C   C12       1.0  0.99640  0.15476  0.87322  1.0000
  H   H9        1.0  0.96400  0.28710  0.34750  1.0000
  H   H10       1.0  0.03600  0.78710  0.15250  1.0000
  H   H11       1.0  0.03600  0.71290  0.65250  1.0000
  H   H12       1.0  0.96400  0.21290  0.84750  1.0000
  C   C13       1.0  0.93784  0.32550  0.14794  1.0000
  C   C14       1.0  0.06216  0.82550  0.35206  1.0000
  C   C15       1.0  0.06216  0.67450  0.85206  1.0000
  C   C16       1.0  0.93784  0.17450  0.64794  1.0000
  H   H13       1.0  0.01560  0.37310  0.16020  1.0000
  H   H14       1.0  0.98440  0.87310  0.33980  1.0000
  H   H15       1.0  0.98440  0.62690  0.83980  1.0000
  H   H16       1.0  0.01560  0.12690  0.66020  1.0000
  C   C17       1.0  0.49252  0.29267  0.36427  1.0000
  C   C18       1.0  0.50748  0.79267  0.13573  1.0000
  C   C19       1.0  0.50748  0.70733  0.63573  1.0000
  C   C20       1.0  0.49252  0.20733  0.86427  1.0000
  H   H17       1.0  0.39830  0.32290  0.33950  1.0000
  H   H18       1.0  0.60170  0.82290  0.16050  1.0000
  H   H19       1.0  0.60170  0.67710  0.66050  1.0000
  H   H20       1.0  0.39830  0.17710  0.83950  1.0000
  C   C21       1.0  0.81664  0.56479  0.13345  1.0000
  C   C22       1.0  0.18336  0.06479  0.36655  1.0000
  C   C23       1.0  0.18336  0.43521  0.86655  1.0000
  C   C24       1.0  0.81664  0.93521  0.63345  1.0000
  H   H21       1.0  0.71050  0.56230  0.10580  1.0000
  H   H22       1.0  0.28950  0.06230  0.39420  1.0000
  H   H23       1.0  0.28950  0.43770  0.89420  1.0000
  H   H24       1.0  0.71050  0.93770  0.60580  1.0000
