data_image0
_chemical_formula_structural       Al4Na4O48C4H4C4H4C4H4C4H4C4H4C4H4
_chemical_formula_sum              "Al4 Na4 O48 C24 H24"
_cell_length_a       8.1678
_cell_length_b       14.4496
_cell_length_c       14.1349
_cell_angle_alpha    90
_cell_angle_beta     90.258
_cell_angle_gamma    90

_space_group_name_H-M_alt    "P 1"
_space_group_IT_number       1

loop_
  _space_group_symop_operation_xyz
  'x, y, z'

loop_
  _atom_site_type_symbol
  _atom_site_label
  _atom_site_symmetry_multiplicity
  _atom_site_fract_x
  _atom_site_fract_y
  _atom_site_fract_z
  _atom_site_occupancy
  Al  Al1       1.0  0.77507  0.42465  0.22775  1.0000
  Al  Al2       1.0  0.22493  0.92465  0.27225  1.0000
  Al  Al3       1.0  0.22493  0.57535  0.77225  1.0000
  Al  Al4       1.0  0.77507  0.07535  0.72775  1.0000
  Na  Na1       1.0  0.27553  0.27692  0.49365  1.0000
  Na  Na2       1.0  0.72447  0.77692  0.00635  1.0000
  Na  Na3       1.0  0.72447  0.72308  0.50635  1.0000
  Na  Na4       1.0  0.27553  0.22308  0.99365  1.0000
  O   O1        1.0  0.70022  0.33069  0.31134  1.0000
  O   O2        1.0  0.29978  0.83069  0.18866  1.0000
  O   O3        1.0  0.29978  0.66931  0.68866  1.0000
  O   O4        1.0  0.70022  0.16931  0.81134  1.0000
  O   O5        1.0  0.52295  0.26271  0.40671  1.0000
  O   O6        1.0  0.47705  0.76271  0.09329  1.0000
  O   O7        1.0  0.47705  0.73729  0.59329  1.0000
  O   O8        1.0  0.52295  0.23729  0.90671  1.0000
  O   O9        1.0  0.59240  0.41574  0.14707  1.0000
  O   O10       1.0  0.40760  0.91574  0.35293  1.0000
  O   O11       1.0  0.40760  0.58426  0.85293  1.0000
  O   O12       1.0  0.59240  0.08426  0.64707  1.0000
  O   O13       1.0  0.38163  0.34721  0.07713  1.0000
  O   O14       1.0  0.61837  0.84721  0.42287  1.0000
  O   O15       1.0  0.61837  0.65279  0.92287  1.0000
  O   O16       1.0  0.38163  0.15279  0.57713  1.0000
  O   O17       1.0  0.86611  0.51589  0.14768  1.0000
  O   O18       1.0  0.13389  0.01589  0.35232  1.0000
  O   O19       1.0  0.13389  0.48411  0.85232  1.0000
  O   O20       1.0  0.86611  0.98411  0.64768  1.0000
  O   O21       1.0  0.87945  0.65904  0.09071  1.0000
  O   O22       1.0  0.12055  0.15904  0.40929  1.0000
  O   O23       1.0  0.12055  0.34096  0.90929  1.0000
  O   O24       1.0  0.87945  0.84096  0.59071  1.0000
  O   O25       1.0  0.65659  0.51382  0.29604  1.0000
  O   O26       1.0  0.34341  0.01382  0.20396  1.0000
  O   O27       1.0  0.34341  0.48618  0.70396  1.0000
  O   O28       1.0  0.65659  0.98618  0.79604  1.0000
  O   O29       1.0  0.58268  0.61736  0.40277  1.0000
  O   O30       1.0  0.41732  0.11736  0.09723  1.0000
  O   O31       1.0  0.41732  0.38264  0.59723  1.0000
  O   O32       1.0  0.58268  0.88264  0.90277  1.0000
  O   O33       1.0  0.96470  0.43975  0.30319  1.0000
  O   O34       1.0  0.03530  0.93975  0.19681  1.0000
  O   O35       1.0  0.03530  0.56025  0.69681  1.0000
  O   O36       1.0  0.96470  0.06025  0.80319  1.0000
  O   O37       1.0  0.16558  0.40545  0.40274  1.0000
  O   O38       1.0  0.83442  0.90545  0.09726  1.0000
  O   O39       1.0  0.83442  0.59455  0.59726  1.0000
  O   O40       1.0  0.16558  0.09455  0.90274  1.0000
  O   O41       1.0  0.86809  0.32835  0.15375  1.0000
  O   O42       1.0  0.13191  0.82835  0.34625  1.0000
  O   O43       1.0  0.13191  0.67165  0.84625  1.0000
  O   O44       1.0  0.86809  0.17165  0.65375  1.0000
  O   O45       1.0  0.02640  0.22309  0.08784  1.0000
  O   O46       1.0  0.97360  0.72309  0.41216  1.0000
  O   O47       1.0  0.97360  0.77691  0.91216  1.0000
  O   O48       1.0  0.02640  0.27691  0.58784  1.0000
  C   C1        1.0  0.56284  0.32547  0.35277  1.0000
  C   C2        1.0  0.43716  0.82547  0.14723  1.0000
  C   C3        1.0  0.43716  0.67453  0.64723  1.0000
  C   C4        1.0  0.56284  0.17453  0.85277  1.0000
  H   H1        1.0  0.48560  0.37340  0.34130  1.0000
  H   H2        1.0  0.51440  0.87340  0.15870  1.0000
  H   H3        1.0  0.51440  0.62660  0.65870  1.0000
  H   H4        1.0  0.48560  0.12660  0.84130  1.0000
  C   C5        1.0  0.50329  0.34610  0.12649  1.0000
  C   C6        1.0  0.49671  0.84610  0.37351  1.0000
  C   C7        1.0  0.49671  0.65390  0.87351  1.0000
  C   C8        1.0  0.50329  0.15390  0.62649  1.0000
  H   H5        1.0  0.53520  0.28810  0.15220  1.0000
  H   H6        1.0  0.46480  0.78810  0.34780  1.0000
  H   H7        1.0  0.46480  0.71190  0.84780  1.0000
  H   H8        1.0  0.53520  0.21190  0.65220  1.0000
  C   C9        1.0  0.80267  0.59198  0.12092  1.0000
  C   C10       1.0  0.19733  0.09198  0.37908  1.0000
  C   C11       1.0  0.19733  0.40802  0.87908  1.0000
  C   C12       1.0  0.80267  0.90802  0.62092  1.0000
  H   H9        1.0  0.68700  0.59750  0.12450  1.0000
  H   H10       1.0  0.31300  0.09750  0.37550  1.0000
  H   H11       1.0  0.31300  0.40250  0.87550  1.0000
  H   H12       1.0  0.68700  0.90250  0.62450  1.0000
  C   C13       1.0  0.68383  0.56578  0.36507  1.0000
  C   C14       1.0  0.31617  0.06578  0.13493  1.0000
  C   C15       1.0  0.31617  0.43422  0.63493  1.0000
  C   C16       1.0  0.68383  0.93422  0.86507  1.0000
  H   H13       1.0  0.79150  0.56560  0.39070  1.0000
  H   H14       1.0  0.20850  0.06560  0.10930  1.0000
  H   H15       1.0  0.20850  0.43440  0.60930  1.0000
  H   H16       1.0  0.79150  0.93440  0.89070  1.0000
  C   C17       1.0  0.03992  0.38563  0.35860  1.0000
  C   C18       1.0  0.96008  0.88563  0.14140  1.0000
  C   C19       1.0  0.96008  0.61437  0.64140  1.0000
  C   C20       1.0  0.03992  0.11437  0.85860  1.0000
  H   H17       1.0  0.99640  0.32520  0.36680  1.0000
  H   H18       1.0  0.00360  0.82520  0.13320  1.0000
  H   H19       1.0  0.00360  0.67480  0.63320  1.0000
  H   H20       1.0  0.99640  0.17480  0.86680  1.0000
  C   C21       1.0  0.00619  0.29297  0.13578  1.0000
  C   C22       1.0  0.99381  0.79297  0.36422  1.0000
  C   C23       1.0  0.99381  0.70703  0.86422  1.0000
  C   C24       1.0  0.00619  0.20703  0.63578  1.0000
  H   H21       1.0  0.10060  0.32250  0.16110  1.0000
  H   H22       1.0  0.89940  0.82250  0.33890  1.0000
  H   H23       1.0  0.89940  0.67750  0.83890  1.0000
  H   H24       1.0  0.10060  0.17750  0.66110  1.0000
