data_image0
_chemical_formula_structural       Al4Na4O48C4H4C4H4C4H4C4H4C4H4C4H4
_chemical_formula_sum              "Al4 Na4 O48 C24 H24"
_cell_length_a       8.2471
_cell_length_b       14.3585
_cell_length_c       14.1812
_cell_angle_alpha    90
_cell_angle_beta     90.386
_cell_angle_gamma    90

_space_group_name_H-M_alt    "P 1"
_space_group_IT_number       1

loop_
  _space_group_symop_operation_xyz
  'x, y, z'

loop_
  _atom_site_type_symbol
  _atom_site_label
  _atom_site_symmetry_multiplicity
  _atom_site_fract_x
  _atom_site_fract_y
  _atom_site_fract_z
  _atom_site_occupancy
  Al  Al1       1.0  0.73970  0.42015  0.26724  1.0000
  Al  Al2       1.0  0.26030  0.92015  0.23276  1.0000
  Al  Al3       1.0  0.26030  0.57985  0.73276  1.0000
  Al  Al4       1.0  0.73970  0.07985  0.76724  1.0000
  Na  Na1       1.0  0.23928  0.27448  0.00520  1.0000
  Na  Na2       1.0  0.76072  0.77448  0.49480  1.0000
  Na  Na3       1.0  0.76072  0.72552  0.99480  1.0000
  Na  Na4       1.0  0.23928  0.22552  0.50520  1.0000
  O   O1        1.0  0.55047  0.43536  0.19369  1.0000
  O   O2        1.0  0.44953  0.93536  0.30631  1.0000
  O   O3        1.0  0.44953  0.56464  0.80631  1.0000
  O   O4        1.0  0.55047  0.06464  0.69369  1.0000
  O   O5        1.0  0.34990  0.40312  0.09537  1.0000
  O   O6        1.0  0.65010  0.90312  0.40463  1.0000
  O   O7        1.0  0.65010  0.59688  0.90463  1.0000
  O   O8        1.0  0.34990  0.09688  0.59537  1.0000
  O   O9        1.0  0.65045  0.50962  0.35078  1.0000
  O   O10       1.0  0.34955  0.00962  0.14922  1.0000
  O   O11       1.0  0.34955  0.49038  0.64922  1.0000
  O   O12       1.0  0.65045  0.99038  0.85078  1.0000
  O   O13       1.0  0.62110  0.65024  0.41184  1.0000
  O   O14       1.0  0.37890  0.15024  0.08816  1.0000
  O   O15       1.0  0.37890  0.34976  0.58816  1.0000
  O   O16       1.0  0.62110  0.84976  0.91184  1.0000
  O   O17       1.0  0.92308  0.41404  0.34747  1.0000
  O   O18       1.0  0.07692  0.91404  0.15253  1.0000
  O   O19       1.0  0.07692  0.58596  0.65253  1.0000
  O   O20       1.0  0.92308  0.08596  0.84747  1.0000
  O   O21       1.0  0.13420  0.34952  0.41781  1.0000
  O   O22       1.0  0.86580  0.84952  0.08219  1.0000
  O   O23       1.0  0.86580  0.65048  0.58219  1.0000
  O   O24       1.0  0.13420  0.15048  0.91781  1.0000
  O   O25       1.0  0.81784  0.32705  0.18535  1.0000
  O   O26       1.0  0.18216  0.82705  0.31465  1.0000
  O   O27       1.0  0.18216  0.67295  0.81465  1.0000
  O   O28       1.0  0.81784  0.17295  0.68535  1.0000
  O   O29       1.0  0.99810  0.25831  0.09456  1.0000
  O   O30       1.0  0.00190  0.75831  0.40544  1.0000
  O   O31       1.0  0.00190  0.74169  0.90544  1.0000
  O   O32       1.0  0.99810  0.24169  0.59456  1.0000
  O   O33       1.0  0.65054  0.32269  0.34036  1.0000
  O   O34       1.0  0.34946  0.82269  0.15964  1.0000
  O   O35       1.0  0.34946  0.67731  0.65964  1.0000
  O   O36       1.0  0.65054  0.17731  0.84036  1.0000
  O   O37       1.0  0.48920  0.22481  0.41241  1.0000
  O   O38       1.0  0.51080  0.72481  0.08759  1.0000
  O   O39       1.0  0.51080  0.77519  0.58759  1.0000
  O   O40       1.0  0.48920  0.27519  0.91241  1.0000
  O   O41       1.0  0.85165  0.51194  0.19909  1.0000
  O   O42       1.0  0.14835  0.01194  0.30091  1.0000
  O   O43       1.0  0.14835  0.48806  0.80091  1.0000
  O   O44       1.0  0.85165  0.98806  0.69909  1.0000
  O   O45       1.0  0.91430  0.61603  0.09175  1.0000
  O   O46       1.0  0.08570  0.11603  0.40825  1.0000
  O   O47       1.0  0.08570  0.38397  0.90825  1.0000
  O   O48       1.0  0.91430  0.88397  0.59175  1.0000
  C   C1        1.0  0.47550  0.38297  0.13784  1.0000
  C   C2        1.0  0.52450  0.88297  0.36216  1.0000
  C   C3        1.0  0.52450  0.61703  0.86216  1.0000
  C   C4        1.0  0.47550  0.11703  0.63784  1.0000
  H   H1        1.0  0.51840  0.32390  0.12770  1.0000
  H   H2        1.0  0.48160  0.82390  0.37230  1.0000
  H   H3        1.0  0.48160  0.67610  0.87230  1.0000
  H   H4        1.0  0.51840  0.17610  0.62770  1.0000
  C   C5        1.0  0.69440  0.59180  0.36868  1.0000
  C   C6        1.0  0.30560  0.09180  0.13132  1.0000
  C   C7        1.0  0.30560  0.40820  0.63132  1.0000
  C   C8        1.0  0.69440  0.90820  0.86868  1.0000
  H   H5        1.0  0.79530  0.60940  0.34590  1.0000
  H   H6        1.0  0.20470  0.10940  0.15410  1.0000
  H   H7        1.0  0.20470  0.39060  0.65410  1.0000
  H   H8        1.0  0.79530  0.89060  0.84590  1.0000
  C   C9        1.0  0.01340  0.34648  0.36955  1.0000
  C   C10       1.0  0.98660  0.84648  0.13045  1.0000
  C   C11       1.0  0.98660  0.65352  0.63045  1.0000
  C   C12       1.0  0.01340  0.15352  0.86955  1.0000
  H   H9        1.0  0.98370  0.28830  0.34620  1.0000
  H   H10       1.0  0.01630  0.78830  0.15380  1.0000
  H   H11       1.0  0.01630  0.71170  0.65380  1.0000
  H   H12       1.0  0.98370  0.21170  0.84620  1.0000
  C   C13       1.0  0.94940  0.32299  0.14028  1.0000
  C   C14       1.0  0.05060  0.82299  0.35972  1.0000
  C   C15       1.0  0.05060  0.67701  0.85972  1.0000
  C   C16       1.0  0.94940  0.17701  0.64028  1.0000
  H   H13       1.0  0.01550  0.37550  0.14270  1.0000
  H   H14       1.0  0.98450  0.87550  0.35730  1.0000
  H   H15       1.0  0.98450  0.62450  0.85730  1.0000
  H   H16       1.0  0.01550  0.12450  0.64270  1.0000
  C   C17       1.0  0.51710  0.29606  0.36821  1.0000
  C   C18       1.0  0.48290  0.79606  0.13179  1.0000
  C   C19       1.0  0.48290  0.70394  0.63179  1.0000
  C   C20       1.0  0.51710  0.20394  0.86821  1.0000
  H   H17       1.0  0.42880  0.33400  0.35420  1.0000
  H   H18       1.0  0.57120  0.83400  0.14580  1.0000
  H   H19       1.0  0.57120  0.66600  0.64580  1.0000
  H   H20       1.0  0.42880  0.16600  0.85420  1.0000
  C   C21       1.0  0.81970  0.56389  0.13170  1.0000
  C   C22       1.0  0.18030  0.06389  0.36830  1.0000
  C   C23       1.0  0.18030  0.43611  0.86830  1.0000
  C   C24       1.0  0.81970  0.93611  0.63170  1.0000
  H   H21       1.0  0.71350  0.56310  0.10930  1.0000
  H   H22       1.0  0.28650  0.06310  0.39070  1.0000
  H   H23       1.0  0.28650  0.43690  0.89070  1.0000
  H   H24       1.0  0.71350  0.93690  0.60930  1.0000
