data_image0
_chemical_formula_structural       AlNaO12C2H2C2H2C2H2
_chemical_formula_sum              "Al1 Na1 O12 C6 H6"
_cell_length_a       6.5206
_cell_length_b       7.9109
_cell_length_c       8.0857
_cell_angle_alpha    95.017
_cell_angle_beta     91.516
_cell_angle_gamma    110.988

_space_group_name_H-M_alt    "P 1"
_space_group_IT_number       1

loop_
  _space_group_symop_operation_xyz
  'x, y, z'

loop_
  _atom_site_type_symbol
  _atom_site_label
  _atom_site_symmetry_multiplicity
  _atom_site_fract_x
  _atom_site_fract_y
  _atom_site_fract_z
  _atom_site_occupancy
  Al  Al1       1.0  0.50000  0.50000  0.50000  1.0000
  Na  Na1       1.0  0.00000  0.00000  0.50000  1.0000
  O   O1        1.0  0.24980  0.29130  0.42053  1.0000
  O   O2        1.0  0.75020  0.70870  0.57947  1.0000
  O   O3        1.0  0.98800  0.12320  0.23100  1.0000
  O   O4        1.0  0.01200  0.87680  0.76900  1.0000
  O   O5        1.0  0.61590  0.34610  0.60633  1.0000
  O   O6        1.0  0.38410  0.65390  0.39367  1.0000
  O   O7        1.0  0.76710  0.13880  0.62540  1.0000
  O   O8        1.0  0.23290  0.86120  0.37460  1.0000
  O   O9        1.0  0.63740  0.47040  0.30302  1.0000
  O   O10       1.0  0.36260  0.52960  0.69698  1.0000
  O   O11       1.0  0.81010  0.56640  0.07650  1.0000
  O   O12       1.0  0.18990  0.43360  0.92350  1.0000
  C   C1        1.0  0.14910  0.26180  0.27770  1.0000
  C   C2        1.0  0.85090  0.73820  0.72230  1.0000
  H   H1        1.0  0.20080  0.35160  0.20250  1.0000
  H   H2        1.0  0.79920  0.64840  0.79750  1.0000
  C   C3        1.0  0.69530  0.23380  0.54570  1.0000
  C   C4        1.0  0.30470  0.76620  0.45430  1.0000
  H   H3        1.0  0.70060  0.22060  0.42810  1.0000
  H   H4        1.0  0.29940  0.77940  0.57190  1.0000
  C   C5        1.0  0.73510  0.59310  0.20990  1.0000
  C   C6        1.0  0.26490  0.40690  0.79010  1.0000
  H   H5        1.0  0.75110  0.71490  0.24650  1.0000
  H   H6        1.0  0.24890  0.28510  0.75350  1.0000
