data_image0
_chemical_formula_structural       Ce8Cl4O48C12H4C4H4C16H4C4H4C4H4C4H4C16H4C4H4C16H4C4H4C4H4C4H4C16H4C4H4C16H4C4H4C4H4C4H4C4
_chemical_formula_sum              "Ce8 Cl4 O48 C144 H72"
_cell_length_a       18.0206
_cell_length_b       14.8154
_cell_length_c       16.1806
_cell_angle_alpha    90
_cell_angle_beta     96.0266
_cell_angle_gamma    90

_space_group_name_H-M_alt    "P 1"
_space_group_IT_number       1

loop_
  _space_group_symop_operation_xyz
  'x, y, z'

loop_
  _atom_site_type_symbol
  _atom_site_label
  _atom_site_symmetry_multiplicity
  _atom_site_fract_x
  _atom_site_fract_y
  _atom_site_fract_z
  _atom_site_occupancy
  Ce  Ce1       1.0  0.37806  0.02521  0.99444  1.0000
  Ce  Ce2       1.0  0.62194  0.52521  0.50556  1.0000
  Ce  Ce3       1.0  0.62194  0.97479  0.00556  1.0000
  Ce  Ce4       1.0  0.37806  0.47479  0.49444  1.0000
  Ce  Ce5       1.0  0.11491  0.01350  0.99881  1.0000
  Ce  Ce6       1.0  0.88509  0.51350  0.50119  1.0000
  Ce  Ce7       1.0  0.88509  0.98650  0.00119  1.0000
  Ce  Ce8       1.0  0.11491  0.48650  0.49881  1.0000
  Cl  Cl1       1.0  0.25182  0.91124  0.02308  1.0000
  Cl  Cl2       1.0  0.74818  0.41124  0.47692  1.0000
  Cl  Cl3       1.0  0.74818  0.08876  0.97692  1.0000
  Cl  Cl4       1.0  0.25182  0.58876  0.52308  1.0000
  O   O1        1.0  0.44827  0.13195  0.92157  1.0000
  O   O2        1.0  0.55173  0.63195  0.57843  1.0000
  O   O3        1.0  0.55173  0.86805  0.07843  1.0000
  O   O4        1.0  0.44827  0.36805  0.42157  1.0000
  O   O5        1.0  0.57120  0.11238  0.93935  1.0000
  O   O6        1.0  0.42880  0.61238  0.56065  1.0000
  O   O7        1.0  0.42880  0.88762  0.06065  1.0000
  O   O8        1.0  0.57120  0.38762  0.43935  1.0000
  O   O9        1.0  0.31588  0.13570  0.07472  1.0000
  O   O10       1.0  0.68412  0.63570  0.42528  1.0000
  O   O11       1.0  0.68412  0.86430  0.92528  1.0000
  O   O12       1.0  0.31588  0.36430  0.57472  1.0000
  O   O13       1.0  0.47701  0.43210  0.59924  1.0000
  O   O14       1.0  0.52299  0.93210  0.90076  1.0000
  O   O15       1.0  0.52299  0.56790  0.40076  1.0000
  O   O16       1.0  0.47701  0.06790  0.09924  1.0000
  O   O17       1.0  0.19574  0.13934  0.02984  1.0000
  O   O18       1.0  0.80426  0.63934  0.47016  1.0000
  O   O19       1.0  0.80426  0.86066  0.97016  1.0000
  O   O20       1.0  0.19574  0.36066  0.52984  1.0000
  O   O21       1.0  0.59980  0.43140  0.62274  1.0000
  O   O22       1.0  0.40020  0.93140  0.87726  1.0000
  O   O23       1.0  0.40020  0.56860  0.37726  1.0000
  O   O24       1.0  0.59980  0.06860  0.12274  1.0000
  O   O25       1.0  0.28305  0.43157  0.38866  1.0000
  O   O26       1.0  0.71695  0.93157  0.11134  1.0000
  O   O27       1.0  0.71695  0.56843  0.61134  1.0000
  O   O28       1.0  0.28305  0.06843  0.88866  1.0000
  O   O29       1.0  0.16016  0.44828  0.36526  1.0000
  O   O30       1.0  0.83984  0.94828  0.13474  1.0000
  O   O31       1.0  0.83984  0.55172  0.63474  1.0000
  O   O32       1.0  0.16016  0.05172  0.86526  1.0000
  O   O33       1.0  0.06214  0.10088  0.10954  1.0000
  O   O34       1.0  0.93786  0.60088  0.39046  1.0000
  O   O35       1.0  0.93786  0.89912  0.89046  1.0000
  O   O36       1.0  0.06214  0.39912  0.60954  1.0000
  O   O37       1.0  0.93764  0.10581  0.08978  1.0000
  O   O38       1.0  0.06236  0.60581  0.41022  1.0000
  O   O39       1.0  0.06236  0.89419  0.91022  1.0000
  O   O40       1.0  0.93764  0.39419  0.58978  1.0000
  O   O41       1.0  0.00408  0.41606  0.43284  1.0000
  O   O42       1.0  0.99592  0.91606  0.06716  1.0000
  O   O43       1.0  0.99592  0.58394  0.56716  1.0000
  O   O44       1.0  0.00408  0.08394  0.93284  1.0000
  O   O45       1.0  0.88730  0.41080  0.37873  1.0000
  O   O46       1.0  0.11270  0.91080  0.12127  1.0000
  O   O47       1.0  0.11270  0.58920  0.62127  1.0000
  O   O48       1.0  0.88730  0.08920  0.87873  1.0000
  C   C1        1.0  0.51324  0.15070  0.90720  1.0000
  C   C2        1.0  0.48676  0.65070  0.59280  1.0000
  C   C3        1.0  0.48676  0.84930  0.09280  1.0000
  C   C4        1.0  0.51324  0.34930  0.40720  1.0000
  C   C5        1.0  0.52130  0.22360  0.84360  1.0000
  C   C6        1.0  0.47870  0.72360  0.65640  1.0000
  C   C7        1.0  0.47870  0.77640  0.15640  1.0000
  C   C8        1.0  0.52130  0.27640  0.34360  1.0000
  C   C9        1.0  0.47212  0.22270  0.77300  1.0000
  C   C10       1.0  0.52788  0.72270  0.72700  1.0000
  C   C11       1.0  0.52788  0.77730  0.22700  1.0000
  C   C12       1.0  0.47212  0.27730  0.27300  1.0000
  H   H1        1.0  0.43480  0.17920  0.76740  1.0000
  H   H2        1.0  0.56520  0.67920  0.73260  1.0000
  H   H3        1.0  0.56520  0.82080  0.23260  1.0000
  H   H4        1.0  0.43480  0.32080  0.26740  1.0000
  C   C13       1.0  0.47662  0.28570  0.70940  1.0000
  C   C14       1.0  0.52338  0.78570  0.79060  1.0000
  C   C15       1.0  0.52338  0.71430  0.29060  1.0000
  C   C16       1.0  0.47662  0.21430  0.20940  1.0000
  H   H5        1.0  0.44200  0.28380  0.66250  1.0000
  H   H6        1.0  0.55800  0.78380  0.83750  1.0000
  H   H7        1.0  0.55800  0.71620  0.33750  1.0000
  H   H8        1.0  0.44200  0.21620  0.16250  1.0000
  C   C17       1.0  0.53120  0.34980  0.71530  1.0000
  C   C18       1.0  0.46880  0.84980  0.78470  1.0000
  C   C19       1.0  0.46880  0.65020  0.28470  1.0000
  C   C20       1.0  0.53120  0.15020  0.21530  1.0000
  C   C21       1.0  0.58299  0.35600  0.78880  1.0000
  C   C22       1.0  0.41701  0.85600  0.71120  1.0000
  C   C23       1.0  0.41701  0.64400  0.21120  1.0000
  C   C24       1.0  0.58299  0.14400  0.28880  1.0000
  C   C25       1.0  0.57832  0.29090  0.85300  1.0000
  C   C26       1.0  0.42168  0.79090  0.64700  1.0000
  C   C27       1.0  0.42168  0.70910  0.14700  1.0000
  C   C28       1.0  0.57832  0.20910  0.35300  1.0000
  C   C29       1.0  0.63000  0.29750  0.92530  1.0000
  C   C30       1.0  0.37000  0.79750  0.57470  1.0000
  C   C31       1.0  0.37000  0.70250  0.07470  1.0000
  C   C32       1.0  0.63000  0.20250  0.42530  1.0000
  H   H9        1.0  0.62890  0.25460  0.96710  1.0000
  H   H10       1.0  0.37110  0.75460  0.53290  1.0000
  H   H11       1.0  0.37110  0.74540  0.03290  1.0000
  H   H12       1.0  0.62890  0.24540  0.46710  1.0000
  C   C33       1.0  0.68090  0.36500  0.93460  1.0000
  C   C34       1.0  0.31910  0.86500  0.56540  1.0000
  C   C35       1.0  0.31910  0.63500  0.06540  1.0000
  C   C36       1.0  0.68090  0.13500  0.43460  1.0000
  H   H13       1.0  0.71410  0.36790  0.98260  1.0000
  H   H14       1.0  0.28590  0.86790  0.51740  1.0000
  H   H15       1.0  0.28590  0.63210  0.01740  1.0000
  H   H16       1.0  0.71410  0.13210  0.48260  1.0000
  C   C37       1.0  0.68390  0.43010  0.87270  1.0000
  C   C38       1.0  0.31610  0.93010  0.62730  1.0000
  C   C39       1.0  0.31610  0.56990  0.12730  1.0000
  C   C40       1.0  0.68390  0.06990  0.37270  1.0000
  H   H17       1.0  0.71860  0.47670  0.88020  1.0000
  H   H18       1.0  0.28140  0.97670  0.61980  1.0000
  H   H19       1.0  0.28140  0.52330  0.11980  1.0000
  H   H20       1.0  0.71860  0.02330  0.38020  1.0000
  C   C41       1.0  0.63680  0.42610  0.80170  1.0000
  C   C42       1.0  0.36320  0.92610  0.69830  1.0000
  C   C43       1.0  0.36320  0.57390  0.19830  1.0000
  C   C44       1.0  0.63680  0.07390  0.30170  1.0000
  H   H21       1.0  0.63970  0.46990  0.76090  1.0000
  H   H22       1.0  0.36030  0.96990  0.73910  1.0000
  H   H23       1.0  0.36030  0.53010  0.23910  1.0000
  H   H24       1.0  0.63970  0.03010  0.26090  1.0000
  C   C45       1.0  0.53620  0.40950  0.64090  1.0000
  C   C46       1.0  0.46380  0.90950  0.85910  1.0000
  C   C47       1.0  0.46380  0.59050  0.35910  1.0000
  C   C48       1.0  0.53620  0.09050  0.14090  1.0000
  C   C49       1.0  0.25128  0.16700  0.07580  1.0000
  C   C50       1.0  0.74872  0.66700  0.42420  1.0000
  C   C51       1.0  0.74872  0.83300  0.92420  1.0000
  C   C52       1.0  0.25128  0.33300  0.57580  1.0000
  C   C53       1.0  0.24047  0.23870  0.13940  1.0000
  C   C54       1.0  0.75953  0.73870  0.36060  1.0000
  C   C55       1.0  0.75953  0.76130  0.86060  1.0000
  C   C56       1.0  0.24047  0.26130  0.63940  1.0000
  C   C57       1.0  0.28430  0.23190  0.21360  1.0000
  C   C58       1.0  0.71570  0.73190  0.28640  1.0000
  C   C59       1.0  0.71570  0.76810  0.78640  1.0000
  C   C60       1.0  0.28430  0.26810  0.71360  1.0000
  H   H25       1.0  0.32010  0.18650  0.22070  1.0000
  H   H26       1.0  0.67990  0.68650  0.27930  1.0000
  H   H27       1.0  0.67990  0.81350  0.77930  1.0000
  H   H28       1.0  0.32010  0.31350  0.72070  1.0000
  C   C61       1.0  0.27650  0.29170  0.27890  1.0000
  C   C62       1.0  0.72350  0.79170  0.22110  1.0000
  C   C63       1.0  0.72350  0.70830  0.72110  1.0000
  C   C64       1.0  0.27650  0.20830  0.77890  1.0000
  H   H29       1.0  0.30770  0.28600  0.32820  1.0000
  H   H30       1.0  0.69230  0.78600  0.17180  1.0000
  H   H31       1.0  0.69230  0.71400  0.67180  1.0000
  H   H32       1.0  0.30770  0.21400  0.82820  1.0000
  C   C65       1.0  0.22375  0.35850  0.27190  1.0000
  C   C66       1.0  0.77625  0.85850  0.22810  1.0000
  C   C67       1.0  0.77625  0.64150  0.72810  1.0000
  C   C68       1.0  0.22375  0.14150  0.77190  1.0000
  C   C69       1.0  0.17671  0.36890  0.19570  1.0000
  C   C70       1.0  0.82329  0.86890  0.30430  1.0000
  C   C71       1.0  0.82329  0.63110  0.80430  1.0000
  C   C72       1.0  0.17671  0.13110  0.69570  1.0000
  C   C73       1.0  0.18616  0.30910  0.12790  1.0000
  C   C74       1.0  0.81384  0.80910  0.37210  1.0000
  C   C75       1.0  0.81384  0.69090  0.87210  1.0000
  C   C76       1.0  0.18616  0.19090  0.62790  1.0000
  C   C77       1.0  0.14270  0.32490  0.05110  1.0000
  C   C78       1.0  0.85730  0.82490  0.44890  1.0000
  C   C79       1.0  0.85730  0.67510  0.94890  1.0000
  C   C80       1.0  0.14270  0.17510  0.55110  1.0000
  H   H33       1.0  0.14870  0.28750  0.00610  1.0000
  H   H34       1.0  0.85130  0.78750  0.49390  1.0000
  H   H35       1.0  0.85130  0.71250  0.99390  1.0000
  H   H36       1.0  0.14870  0.21250  0.50610  1.0000
  C   C81       1.0  0.09270  0.39330  0.04170  1.0000
  C   C82       1.0  0.90730  0.89330  0.45830  1.0000
  C   C83       1.0  0.90730  0.60670  0.95830  1.0000
  C   C84       1.0  0.09270  0.10670  0.54170  1.0000
  H   H37       1.0  0.06530  0.40270  0.99040  1.0000
  H   H38       1.0  0.93470  0.90270  0.50960  1.0000
  H   H39       1.0  0.93470  0.59730  0.00960  1.0000
  H   H40       1.0  0.06530  0.09730  0.49040  1.0000
  C   C85       1.0  0.08190  0.44960  0.10830  1.0000
  C   C86       1.0  0.91810  0.94960  0.39170  1.0000
  C   C87       1.0  0.91810  0.55040  0.89170  1.0000
  C   C88       1.0  0.08190  0.05040  0.60830  1.0000
  H   H41       1.0  0.04670  0.49560  0.10130  1.0000
  H   H42       1.0  0.95330  0.99560  0.39870  1.0000
  H   H43       1.0  0.95330  0.50440  0.89870  1.0000
  H   H44       1.0  0.04670  0.00440  0.60130  1.0000
  C   C89       1.0  0.12217  0.43840  0.18340  1.0000
  C   C90       1.0  0.87783  0.93840  0.31660  1.0000
  C   C91       1.0  0.87783  0.56160  0.81660  1.0000
  C   C92       1.0  0.12217  0.06160  0.68340  1.0000
  H   H45       1.0  0.11400  0.47650  0.22720  1.0000
  H   H46       1.0  0.88600  0.97650  0.27280  1.0000
  H   H47       1.0  0.88600  0.52350  0.77280  1.0000
  H   H48       1.0  0.11400  0.02350  0.72720  1.0000
  C   C93       1.0  0.22129  0.41790  0.34720  1.0000
  C   C94       1.0  0.77871  0.91790  0.15280  1.0000
  C   C95       1.0  0.77871  0.58210  0.65280  1.0000
  C   C96       1.0  0.22129  0.08210  0.84720  1.0000
  C   C97       1.0  0.00040  0.13370  0.12180  1.0000
  C   C98       1.0  0.99960  0.63370  0.37820  1.0000
  C   C99       1.0  0.99960  0.86630  0.87820  1.0000
  C   C100      1.0  0.00040  0.36630  0.62180  1.0000
  C   C101      1.0  0.99782  0.21170  0.17990  1.0000
  C   C102      1.0  0.00218  0.71170  0.32010  1.0000
  C   C103      1.0  0.00218  0.78830  0.82010  1.0000
  C   C104      1.0  0.99782  0.28830  0.67990  1.0000
  C   C105      1.0  0.03640  0.20580  0.25680  1.0000
  C   C106      1.0  0.96360  0.70580  0.24320  1.0000
  C   C107      1.0  0.96360  0.79420  0.74320  1.0000
  C   C108      1.0  0.03640  0.29420  0.75680  1.0000
  H   H49       1.0  0.07050  0.15910  0.26810  1.0000
  H   H50       1.0  0.92950  0.65910  0.23190  1.0000
  H   H51       1.0  0.92950  0.84090  0.73190  1.0000
  H   H52       1.0  0.07050  0.34090  0.76810  1.0000
  C   C109      1.0  0.02570  0.26890  0.31940  1.0000
  C   C110      1.0  0.97430  0.76890  0.18060  1.0000
  C   C111      1.0  0.97430  0.73110  0.68060  1.0000
  C   C112      1.0  0.02570  0.23110  0.81940  1.0000
  H   H53       1.0  0.05250  0.26350  0.37140  1.0000
  H   H54       1.0  0.94750  0.76350  0.12860  1.0000
  H   H55       1.0  0.94750  0.73650  0.62860  1.0000
  H   H56       1.0  0.05250  0.23650  0.87140  1.0000
  C   C113      1.0  0.97583  0.33830  0.30420  1.0000
  C   C114      1.0  0.02417  0.83830  0.19580  1.0000
  C   C115      1.0  0.02417  0.66170  0.69580  1.0000
  C   C116      1.0  0.97583  0.16170  0.80420  1.0000
  C   C117      1.0  0.94059  0.35310  0.22200  1.0000
  C   C118      1.0  0.05941  0.85310  0.27800  1.0000
  C   C119      1.0  0.05941  0.64690  0.77800  1.0000
  C   C120      1.0  0.94059  0.14690  0.72200  1.0000
  C   C121      1.0  0.95141  0.28840  0.15930  1.0000
  C   C122      1.0  0.04859  0.78840  0.34070  1.0000
  C   C123      1.0  0.04859  0.71160  0.84070  1.0000
  C   C124      1.0  0.95141  0.21160  0.65930  1.0000
  C   C125      1.0  0.91820  0.30400  0.07740  1.0000
  C   C126      1.0  0.08180  0.80400  0.42260  1.0000
  C   C127      1.0  0.08180  0.69600  0.92260  1.0000
  C   C128      1.0  0.91820  0.19600  0.57740  1.0000
  H   H57       1.0  0.92380  0.26180  0.03590  1.0000
  H   H58       1.0  0.07620  0.76180  0.46410  1.0000
  H   H59       1.0  0.07620  0.73820  0.96410  1.0000
  H   H60       1.0  0.92380  0.23820  0.53590  1.0000
  C   C129      1.0  0.87830  0.38040  0.05920  1.0000
  C   C130      1.0  0.12170  0.88040  0.44080  1.0000
  C   C131      1.0  0.12170  0.61960  0.94080  1.0000
  C   C132      1.0  0.87830  0.11960  0.55920  1.0000
  H   H61       1.0  0.85750  0.39050  0.00490  1.0000
  H   H62       1.0  0.14250  0.89050  0.49510  1.0000
  H   H63       1.0  0.14250  0.60950  0.99510  1.0000
  H   H64       1.0  0.85750  0.10950  0.50490  1.0000
  C   C133      1.0  0.86810  0.44330  0.12000  1.0000
  C   C134      1.0  0.13190  0.94330  0.38000  1.0000
  C   C135      1.0  0.13190  0.55670  0.88000  1.0000
  C   C136      1.0  0.86810  0.05670  0.62000  1.0000
  H   H65       1.0  0.84080  0.49530  0.10560  1.0000
  H   H66       1.0  0.15920  0.99530  0.39440  1.0000
  H   H67       1.0  0.15920  0.50470  0.89440  1.0000
  H   H68       1.0  0.84080  0.00470  0.60560  1.0000
  C   C137      1.0  0.89690  0.43100  0.20030  1.0000
  C   C138      1.0  0.10310  0.93100  0.29970  1.0000
  C   C139      1.0  0.10310  0.56900  0.79970  1.0000
  C   C140      1.0  0.89690  0.06900  0.70030  1.0000
  H   H69       1.0  0.88820  0.47320  0.24070  1.0000
  H   H70       1.0  0.11180  0.97320  0.25930  1.0000
  H   H71       1.0  0.11180  0.52680  0.75930  1.0000
  H   H72       1.0  0.88820  0.02680  0.74070  1.0000
  C   C141      1.0  0.95460  0.39280  0.37490  1.0000
  C   C142      1.0  0.04540  0.89280  0.12510  1.0000
  C   C143      1.0  0.04540  0.60720  0.62510  1.0000
  C   C144      1.0  0.95460  0.10720  0.87490  1.0000
