data_image0
_chemical_formula_structural       Nd8Cl4O48C12H4C4H4C16H4C4H4C4H4C4H4C16H4C4H4C16H4C4H4C4H4C4H4C16H4C4H4C16H4C4H4C4H4C4H4C4
_chemical_formula_sum              "Nd8 Cl4 O48 C144 H72"
_cell_length_a       17.9082
_cell_length_b       14.8189
_cell_length_c       16.0623
_cell_angle_alpha    90
_cell_angle_beta     95.729
_cell_angle_gamma    90

_space_group_name_H-M_alt    "P 1"
_space_group_IT_number       1

loop_
  _space_group_symop_operation_xyz
  'x, y, z'

loop_
  _atom_site_type_symbol
  _atom_site_label
  _atom_site_symmetry_multiplicity
  _atom_site_fract_x
  _atom_site_fract_y
  _atom_site_fract_z
  _atom_site_occupancy
  Nd  Nd1       1.0  0.37798  0.02492  0.99461  1.0000
  Nd  Nd2       1.0  0.62202  0.52492  0.50539  1.0000
  Nd  Nd3       1.0  0.62202  0.97508  0.00539  1.0000
  Nd  Nd4       1.0  0.37798  0.47508  0.49461  1.0000
  Nd  Nd5       1.0  0.11520  0.01262  0.99886  1.0000
  Nd  Nd6       1.0  0.88480  0.51262  0.50114  1.0000
  Nd  Nd7       1.0  0.88480  0.98738  0.00114  1.0000
  Nd  Nd8       1.0  0.11520  0.48738  0.49886  1.0000
  Cl  Cl1       1.0  0.25183  0.91353  0.02321  1.0000
  Cl  Cl2       1.0  0.74817  0.41353  0.47679  1.0000
  Cl  Cl3       1.0  0.74817  0.08647  0.97679  1.0000
  Cl  Cl4       1.0  0.25183  0.58647  0.52321  1.0000
  O   O1        1.0  0.44890  0.12933  0.92249  1.0000
  O   O2        1.0  0.55110  0.62933  0.57751  1.0000
  O   O3        1.0  0.55110  0.87067  0.07751  1.0000
  O   O4        1.0  0.44890  0.37067  0.42249  1.0000
  O   O5        1.0  0.57262  0.11102  0.93907  1.0000
  O   O6        1.0  0.42738  0.61102  0.56093  1.0000
  O   O7        1.0  0.42738  0.88898  0.06093  1.0000
  O   O8        1.0  0.57262  0.38898  0.43907  1.0000
  O   O9        1.0  0.31539  0.13322  0.07478  1.0000
  O   O10       1.0  0.68461  0.63322  0.42522  1.0000
  O   O11       1.0  0.68461  0.86678  0.92522  1.0000
  O   O12       1.0  0.31539  0.36678  0.57478  1.0000
  O   O13       1.0  0.47380  0.43190  0.60011  1.0000
  O   O14       1.0  0.52620  0.93190  0.89989  1.0000
  O   O15       1.0  0.52620  0.56810  0.39989  1.0000
  O   O16       1.0  0.47380  0.06810  0.10011  1.0000
  O   O17       1.0  0.19436  0.13749  0.02984  1.0000
  O   O18       1.0  0.80564  0.63749  0.47016  1.0000
  O   O19       1.0  0.80564  0.86251  0.97016  1.0000
  O   O20       1.0  0.19436  0.36251  0.52984  1.0000
  O   O21       1.0  0.59749  0.43247  0.62112  1.0000
  O   O22       1.0  0.40251  0.93247  0.87888  1.0000
  O   O23       1.0  0.40251  0.56753  0.37888  1.0000
  O   O24       1.0  0.59749  0.06753  0.12112  1.0000
  O   O25       1.0  0.28491  0.43100  0.38873  1.0000
  O   O26       1.0  0.71509  0.93100  0.11127  1.0000
  O   O27       1.0  0.71509  0.56900  0.61127  1.0000
  O   O28       1.0  0.28491  0.06900  0.88873  1.0000
  O   O29       1.0  0.16141  0.45046  0.36640  1.0000
  O   O30       1.0  0.83859  0.95046  0.13360  1.0000
  O   O31       1.0  0.83859  0.54954  0.63360  1.0000
  O   O32       1.0  0.16141  0.04954  0.86640  1.0000
  O   O33       1.0  0.06233  0.09641  0.11002  1.0000
  O   O34       1.0  0.93767  0.59641  0.38998  1.0000
  O   O35       1.0  0.93767  0.90359  0.88998  1.0000
  O   O36       1.0  0.06233  0.40359  0.61002  1.0000
  O   O37       1.0  0.93739  0.10420  0.08936  1.0000
  O   O38       1.0  0.06261  0.60420  0.41064  1.0000
  O   O39       1.0  0.06261  0.89580  0.91064  1.0000
  O   O40       1.0  0.93739  0.39580  0.58936  1.0000
  O   O41       1.0  0.00765  0.41510  0.43403  1.0000
  O   O42       1.0  0.99235  0.91510  0.06597  1.0000
  O   O43       1.0  0.99235  0.58490  0.56597  1.0000
  O   O44       1.0  0.00765  0.08490  0.93403  1.0000
  O   O45       1.0  0.88972  0.40830  0.38273  1.0000
  O   O46       1.0  0.11028  0.90830  0.11727  1.0000
  O   O47       1.0  0.11028  0.59170  0.61727  1.0000
  O   O48       1.0  0.88972  0.09170  0.88273  1.0000
  C   C1        1.0  0.51406  0.14890  0.90760  1.0000
  C   C2        1.0  0.48594  0.64890  0.59240  1.0000
  C   C3        1.0  0.48594  0.85110  0.09240  1.0000
  C   C4        1.0  0.51406  0.35110  0.40760  1.0000
  C   C5        1.0  0.52157  0.22170  0.84330  1.0000
  C   C6        1.0  0.47843  0.72170  0.65670  1.0000
  C   C7        1.0  0.47843  0.77830  0.15670  1.0000
  C   C8        1.0  0.52157  0.27830  0.34330  1.0000
  C   C9        1.0  0.47162  0.22090  0.77330  1.0000
  C   C10       1.0  0.52838  0.72090  0.72670  1.0000
  C   C11       1.0  0.52838  0.77910  0.22670  1.0000
  C   C12       1.0  0.47162  0.27910  0.27330  1.0000
  H   H1        1.0  0.43420  0.17720  0.76760  1.0000
  H   H2        1.0  0.56580  0.67720  0.73240  1.0000
  H   H3        1.0  0.56580  0.82280  0.23240  1.0000
  H   H4        1.0  0.43420  0.32280  0.26760  1.0000
  C   C13       1.0  0.47590  0.28530  0.71000  1.0000
  C   C14       1.0  0.52410  0.78530  0.79000  1.0000
  C   C15       1.0  0.52410  0.71470  0.29000  1.0000
  C   C16       1.0  0.47590  0.21470  0.21000  1.0000
  H   H5        1.0  0.44070  0.28380  0.66330  1.0000
  H   H6        1.0  0.55930  0.78380  0.83670  1.0000
  H   H7        1.0  0.55930  0.71620  0.33670  1.0000
  H   H8        1.0  0.44070  0.21620  0.16330  1.0000
  C   C17       1.0  0.53015  0.34970  0.71510  1.0000
  C   C18       1.0  0.46985  0.84970  0.78490  1.0000
  C   C19       1.0  0.46985  0.65030  0.28490  1.0000
  C   C20       1.0  0.53015  0.15030  0.21510  1.0000
  C   C21       1.0  0.58201  0.35560  0.78850  1.0000
  C   C22       1.0  0.41799  0.85560  0.71150  1.0000
  C   C23       1.0  0.41799  0.64440  0.21150  1.0000
  C   C24       1.0  0.58201  0.14440  0.28850  1.0000
  C   C25       1.0  0.57819  0.28970  0.85269  1.0000
  C   C26       1.0  0.42181  0.78970  0.64731  1.0000
  C   C27       1.0  0.42181  0.71030  0.14731  1.0000
  C   C28       1.0  0.57819  0.21030  0.35269  1.0000
  C   C29       1.0  0.63050  0.29590  0.92550  1.0000
  C   C30       1.0  0.36950  0.79590  0.57450  1.0000
  C   C31       1.0  0.36950  0.70410  0.07450  1.0000
  C   C32       1.0  0.63050  0.20410  0.42550  1.0000
  H   H9        1.0  0.62970  0.25280  0.96750  1.0000
  H   H10       1.0  0.37030  0.75280  0.53250  1.0000
  H   H11       1.0  0.37030  0.74720  0.03250  1.0000
  H   H12       1.0  0.62970  0.24720  0.46750  1.0000
  C   C33       1.0  0.68130  0.36400  0.93410  1.0000
  C   C34       1.0  0.31870  0.86400  0.56590  1.0000
  C   C35       1.0  0.31870  0.63600  0.06590  1.0000
  C   C36       1.0  0.68130  0.13600  0.43410  1.0000
  H   H13       1.0  0.71520  0.36680  0.98170  1.0000
  H   H14       1.0  0.28480  0.86680  0.51830  1.0000
  H   H15       1.0  0.28480  0.63320  0.01830  1.0000
  H   H16       1.0  0.71520  0.13320  0.48170  1.0000
  C   C37       1.0  0.68320  0.43030  0.87210  1.0000
  C   C38       1.0  0.31680  0.93030  0.62790  1.0000
  C   C39       1.0  0.31680  0.56970  0.12790  1.0000
  C   C40       1.0  0.68320  0.06970  0.37210  1.0000
  H   H17       1.0  0.71760  0.47730  0.87960  1.0000
  H   H18       1.0  0.28240  0.97730  0.62040  1.0000
  H   H19       1.0  0.28240  0.52270  0.12040  1.0000
  H   H20       1.0  0.71760  0.02270  0.37960  1.0000
  C   C41       1.0  0.63560  0.42620  0.80130  1.0000
  C   C42       1.0  0.36440  0.92620  0.69870  1.0000
  C   C43       1.0  0.36440  0.57380  0.19870  1.0000
  C   C44       1.0  0.63560  0.07380  0.30130  1.0000
  H   H21       1.0  0.63790  0.47030  0.76040  1.0000
  H   H22       1.0  0.36210  0.97030  0.73960  1.0000
  H   H23       1.0  0.36210  0.52970  0.23960  1.0000
  H   H24       1.0  0.63790  0.02970  0.26040  1.0000
  C   C45       1.0  0.53370  0.41000  0.64050  1.0000
  C   C46       1.0  0.46630  0.91000  0.85950  1.0000
  C   C47       1.0  0.46630  0.59000  0.35950  1.0000
  C   C48       1.0  0.53370  0.09000  0.14050  1.0000
  C   C49       1.0  0.25031  0.16500  0.07610  1.0000
  C   C50       1.0  0.74969  0.66500  0.42390  1.0000
  C   C51       1.0  0.74969  0.83500  0.92390  1.0000
  C   C52       1.0  0.25031  0.33500  0.57610  1.0000
  C   C53       1.0  0.23957  0.23630  0.13960  1.0000
  C   C54       1.0  0.76043  0.73630  0.36040  1.0000
  C   C55       1.0  0.76043  0.76370  0.86040  1.0000
  C   C56       1.0  0.23957  0.26370  0.63960  1.0000
  C   C57       1.0  0.28330  0.22970  0.21480  1.0000
  C   C58       1.0  0.71670  0.72970  0.28520  1.0000
  C   C59       1.0  0.71670  0.77030  0.78520  1.0000
  C   C60       1.0  0.28330  0.27030  0.71480  1.0000
  H   H25       1.0  0.31860  0.18370  0.22230  1.0000
  H   H26       1.0  0.68140  0.68370  0.27770  1.0000
  H   H27       1.0  0.68140  0.81630  0.77770  1.0000
  H   H28       1.0  0.31860  0.31630  0.72230  1.0000
  C   C61       1.0  0.27610  0.29020  0.27980  1.0000
  C   C62       1.0  0.72390  0.79020  0.22020  1.0000
  C   C63       1.0  0.72390  0.70980  0.72020  1.0000
  C   C64       1.0  0.27610  0.20980  0.77980  1.0000
  H   H29       1.0  0.30740  0.28430  0.32920  1.0000
  H   H30       1.0  0.69260  0.78430  0.17080  1.0000
  H   H31       1.0  0.69260  0.71570  0.67080  1.0000
  H   H32       1.0  0.30740  0.21570  0.82920  1.0000
  C   C65       1.0  0.22434  0.35760  0.27271  1.0000
  C   C66       1.0  0.77566  0.85760  0.22729  1.0000
  C   C67       1.0  0.77566  0.64240  0.72729  1.0000
  C   C68       1.0  0.22434  0.14240  0.77271  1.0000
  C   C69       1.0  0.17729  0.36860  0.19583  1.0000
  C   C70       1.0  0.82271  0.86860  0.30417  1.0000
  C   C71       1.0  0.82271  0.63140  0.80417  1.0000
  C   C72       1.0  0.17729  0.13140  0.69583  1.0000
  C   C73       1.0  0.18651  0.30750  0.12819  1.0000
  C   C74       1.0  0.81349  0.80750  0.37181  1.0000
  C   C75       1.0  0.81349  0.69250  0.87181  1.0000
  C   C76       1.0  0.18651  0.19250  0.62819  1.0000
  C   C77       1.0  0.14340  0.32360  0.05060  1.0000
  C   C78       1.0  0.85660  0.82360  0.44940  1.0000
  C   C79       1.0  0.85660  0.67640  0.94940  1.0000
  C   C80       1.0  0.14340  0.17640  0.55060  1.0000
  H   H33       1.0  0.14960  0.28610  0.00540  1.0000
  H   H34       1.0  0.85040  0.78610  0.49460  1.0000
  H   H35       1.0  0.85040  0.71390  0.99460  1.0000
  H   H36       1.0  0.14960  0.21390  0.50540  1.0000
  C   C81       1.0  0.09320  0.39300  0.04100  1.0000
  C   C82       1.0  0.90680  0.89300  0.45900  1.0000
  C   C83       1.0  0.90680  0.60700  0.95900  1.0000
  C   C84       1.0  0.09320  0.10700  0.54100  1.0000
  H   H37       1.0  0.06540  0.40220  0.98960  1.0000
  H   H38       1.0  0.93460  0.90220  0.51040  1.0000
  H   H39       1.0  0.93460  0.59780  0.01040  1.0000
  H   H40       1.0  0.06540  0.09780  0.48960  1.0000
  C   C85       1.0  0.08330  0.45050  0.10850  1.0000
  C   C86       1.0  0.91670  0.95050  0.39150  1.0000
  C   C87       1.0  0.91670  0.54950  0.89150  1.0000
  C   C88       1.0  0.08330  0.04950  0.60850  1.0000
  H   H41       1.0  0.04860  0.49730  0.10160  1.0000
  H   H42       1.0  0.95140  0.99730  0.39840  1.0000
  H   H43       1.0  0.95140  0.50270  0.89840  1.0000
  H   H44       1.0  0.04860  0.00270  0.60160  1.0000
  C   C89       1.0  0.12359  0.43850  0.18320  1.0000
  C   C90       1.0  0.87641  0.93850  0.31680  1.0000
  C   C91       1.0  0.87641  0.56150  0.81680  1.0000
  C   C92       1.0  0.12359  0.06150  0.68320  1.0000
  H   H45       1.0  0.11590  0.47700  0.22730  1.0000
  H   H46       1.0  0.88410  0.97700  0.27270  1.0000
  H   H47       1.0  0.88410  0.52300  0.77270  1.0000
  H   H48       1.0  0.11590  0.02300  0.72730  1.0000
  C   C93       1.0  0.22248  0.41830  0.34792  1.0000
  C   C94       1.0  0.77752  0.91830  0.15208  1.0000
  C   C95       1.0  0.77752  0.58170  0.65208  1.0000
  C   C96       1.0  0.22248  0.08170  0.84792  1.0000
  C   C97       1.0  0.00090  0.13110  0.12170  1.0000
  C   C98       1.0  0.99910  0.63110  0.37830  1.0000
  C   C99       1.0  0.99910  0.86890  0.87830  1.0000
  C   C100      1.0  0.00090  0.36890  0.62170  1.0000
  C   C101      1.0  0.99872  0.20880  0.18010  1.0000
  C   C102      1.0  0.00128  0.70880  0.31990  1.0000
  C   C103      1.0  0.00128  0.79120  0.81990  1.0000
  C   C104      1.0  0.99872  0.29120  0.68010  1.0000
  C   C105      1.0  0.03750  0.20250  0.25830  1.0000
  C   C106      1.0  0.96250  0.70250  0.24170  1.0000
  C   C107      1.0  0.96250  0.79750  0.74170  1.0000
  C   C108      1.0  0.03750  0.29750  0.75830  1.0000
  H   H49       1.0  0.07090  0.15510  0.27000  1.0000
  H   H50       1.0  0.92910  0.65510  0.23000  1.0000
  H   H51       1.0  0.92910  0.84490  0.73000  1.0000
  H   H52       1.0  0.07090  0.34490  0.77000  1.0000
  C   C109      1.0  0.02750  0.26640  0.32070  1.0000
  C   C110      1.0  0.97250  0.76640  0.17930  1.0000
  C   C111      1.0  0.97250  0.73360  0.67930  1.0000
  C   C112      1.0  0.02750  0.23360  0.82070  1.0000
  H   H53       1.0  0.05510  0.26120  0.37270  1.0000
  H   H54       1.0  0.94490  0.76120  0.12730  1.0000
  H   H55       1.0  0.94490  0.73880  0.62730  1.0000
  H   H56       1.0  0.05510  0.23880  0.87270  1.0000
  C   C113      1.0  0.97803  0.33600  0.30640  1.0000
  C   C114      1.0  0.02197  0.83600  0.19360  1.0000
  C   C115      1.0  0.02197  0.66400  0.69360  1.0000
  C   C116      1.0  0.97803  0.16400  0.80640  1.0000
  C   C117      1.0  0.94256  0.35090  0.22320  1.0000
  C   C118      1.0  0.05744  0.85090  0.27680  1.0000
  C   C119      1.0  0.05744  0.64910  0.77680  1.0000
  C   C120      1.0  0.94256  0.14910  0.72320  1.0000
  C   C121      1.0  0.95254  0.28600  0.16100  1.0000
  C   C122      1.0  0.04746  0.78600  0.33900  1.0000
  C   C123      1.0  0.04746  0.71400  0.83900  1.0000
  C   C124      1.0  0.95254  0.21400  0.66100  1.0000
  C   C125      1.0  0.91920  0.30240  0.07750  1.0000
  C   C126      1.0  0.08080  0.80240  0.42250  1.0000
  C   C127      1.0  0.08080  0.69760  0.92250  1.0000
  C   C128      1.0  0.91920  0.19760  0.57750  1.0000
  H   H57       1.0  0.92540  0.26080  0.03530  1.0000
  H   H58       1.0  0.07460  0.76080  0.46470  1.0000
  H   H59       1.0  0.07460  0.73920  0.96470  1.0000
  H   H60       1.0  0.92540  0.23920  0.53530  1.0000
  C   C129      1.0  0.87880  0.37840  0.06020  1.0000
  C   C130      1.0  0.12120  0.87840  0.43980  1.0000
  C   C131      1.0  0.12120  0.62160  0.93980  1.0000
  C   C132      1.0  0.87880  0.12160  0.56020  1.0000
  H   H61       1.0  0.85670  0.38830  0.00600  1.0000
  H   H62       1.0  0.14330  0.88830  0.49400  1.0000
  H   H63       1.0  0.14330  0.61170  0.99400  1.0000
  H   H64       1.0  0.85670  0.11170  0.50600  1.0000
  C   C133      1.0  0.86970  0.44200  0.12190  1.0000
  C   C134      1.0  0.13030  0.94200  0.37810  1.0000
  C   C135      1.0  0.13030  0.55800  0.87810  1.0000
  C   C136      1.0  0.86970  0.05800  0.62190  1.0000
  H   H65       1.0  0.84270  0.49440  0.10790  1.0000
  H   H66       1.0  0.15730  0.99440  0.39210  1.0000
  H   H67       1.0  0.15730  0.50560  0.89210  1.0000
  H   H68       1.0  0.84270  0.00560  0.60790  1.0000
  C   C137      1.0  0.89940  0.42930  0.20280  1.0000
  C   C138      1.0  0.10060  0.92930  0.29720  1.0000
  C   C139      1.0  0.10060  0.57070  0.79720  1.0000
  C   C140      1.0  0.89940  0.07070  0.70280  1.0000
  H   H69       1.0  0.89150  0.47160  0.24380  1.0000
  H   H70       1.0  0.10850  0.97160  0.25620  1.0000
  H   H71       1.0  0.10850  0.52840  0.75620  1.0000
  H   H72       1.0  0.89150  0.02840  0.74380  1.0000
  C   C141      1.0  0.95770  0.39080  0.37750  1.0000
  C   C142      1.0  0.04230  0.89080  0.12250  1.0000
  C   C143      1.0  0.04230  0.60920  0.62250  1.0000
  C   C144      1.0  0.95770  0.10920  0.87750  1.0000
