data_image0
_chemical_formula_structural       Sm8Cl4O48C12H4C4H4C16H4C4H4C4H4C4H4C16H4C4H4C16H4C4H4C4H4C4H4C16H4C4H4C16H4C4H4C4H4C4H4C4
_chemical_formula_sum              "Sm8 Cl4 O48 C144 H72"
_cell_length_a       17.8177
_cell_length_b       14.8107
_cell_length_c       15.9935
_cell_angle_alpha    90
_cell_angle_beta     95.176
_cell_angle_gamma    90

_space_group_name_H-M_alt    "P 1"
_space_group_IT_number       1

loop_
  _space_group_symop_operation_xyz
  'x, y, z'

loop_
  _atom_site_type_symbol
  _atom_site_label
  _atom_site_symmetry_multiplicity
  _atom_site_fract_x
  _atom_site_fract_y
  _atom_site_fract_z
  _atom_site_occupancy
  Sm  Sm1       1.0  0.37801  0.02481  0.99492  1.0000
  Sm  Sm2       1.0  0.62199  0.52481  0.50507  1.0000
  Sm  Sm3       1.0  0.62199  0.97519  0.00507  1.0000
  Sm  Sm4       1.0  0.37801  0.47519  0.49492  1.0000
  Sm  Sm5       1.0  0.11579  0.01217  0.99885  1.0000
  Sm  Sm6       1.0  0.88421  0.51217  0.50115  1.0000
  Sm  Sm7       1.0  0.88421  0.98783  0.00115  1.0000
  Sm  Sm8       1.0  0.11579  0.48783  0.49885  1.0000
  Cl  Cl1       1.0  0.25198  0.91497  0.02344  1.0000
  Cl  Cl2       1.0  0.74802  0.41497  0.47656  1.0000
  Cl  Cl3       1.0  0.74802  0.08503  0.97656  1.0000
  Cl  Cl4       1.0  0.25198  0.58503  0.52344  1.0000
  O   O1        1.0  0.44920  0.12690  0.92250  1.0000
  O   O2        1.0  0.55080  0.62690  0.57750  1.0000
  O   O3        1.0  0.55080  0.87310  0.07750  1.0000
  O   O4        1.0  0.44920  0.37310  0.42250  1.0000
  O   O5        1.0  0.57350  0.10850  0.93730  1.0000
  O   O6        1.0  0.42650  0.60850  0.56270  1.0000
  O   O7        1.0  0.42650  0.89150  0.06270  1.0000
  O   O8        1.0  0.57350  0.39150  0.43730  1.0000
  O   O9        1.0  0.31520  0.13090  0.07390  1.0000
  O   O10       1.0  0.68480  0.63090  0.42610  1.0000
  O   O11       1.0  0.68480  0.86910  0.92610  1.0000
  O   O12       1.0  0.31520  0.36910  0.57390  1.0000
  O   O13       1.0  0.47180  0.43090  0.59980  1.0000
  O   O14       1.0  0.52820  0.93090  0.90020  1.0000
  O   O15       1.0  0.52820  0.56910  0.40020  1.0000
  O   O16       1.0  0.47180  0.06910  0.09980  1.0000
  O   O17       1.0  0.19360  0.13580  0.03030  1.0000
  O   O18       1.0  0.80640  0.63580  0.46970  1.0000
  O   O19       1.0  0.80640  0.86420  0.96970  1.0000
  O   O20       1.0  0.19360  0.36420  0.53030  1.0000
  O   O21       1.0  0.59570  0.43210  0.61890  1.0000
  O   O22       1.0  0.40430  0.93210  0.88110  1.0000
  O   O23       1.0  0.40430  0.56790  0.38110  1.0000
  O   O24       1.0  0.59570  0.06790  0.11890  1.0000
  O   O25       1.0  0.28670  0.43020  0.38910  1.0000
  O   O26       1.0  0.71330  0.93020  0.11090  1.0000
  O   O27       1.0  0.71330  0.56980  0.61090  1.0000
  O   O28       1.0  0.28670  0.06980  0.88910  1.0000
  O   O29       1.0  0.16290  0.45190  0.36740  1.0000
  O   O30       1.0  0.83710  0.95190  0.13260  1.0000
  O   O31       1.0  0.83710  0.54810  0.63260  1.0000
  O   O32       1.0  0.16290  0.04810  0.86740  1.0000
  O   O33       1.0  0.06210  0.09270  0.11020  1.0000
  O   O34       1.0  0.93790  0.59270  0.38980  1.0000
  O   O35       1.0  0.93790  0.90730  0.88980  1.0000
  O   O36       1.0  0.06210  0.40730  0.61020  1.0000
  O   O37       1.0  0.93720  0.10280  0.08800  1.0000
  O   O38       1.0  0.06280  0.60280  0.41200  1.0000
  O   O39       1.0  0.06280  0.89720  0.91200  1.0000
  O   O40       1.0  0.93720  0.39720  0.58800  1.0000
  O   O41       1.0  0.01150  0.41330  0.43470  1.0000
  O   O42       1.0  0.98850  0.91330  0.06530  1.0000
  O   O43       1.0  0.98850  0.58670  0.56530  1.0000
  O   O44       1.0  0.01150  0.08670  0.93470  1.0000
  O   O45       1.0  0.89230  0.40650  0.38660  1.0000
  O   O46       1.0  0.10770  0.90650  0.11340  1.0000
  O   O47       1.0  0.10770  0.59350  0.61340  1.0000
  O   O48       1.0  0.89230  0.09350  0.88660  1.0000
  C   C1        1.0  0.51430  0.14620  0.90710  1.0000
  C   C2        1.0  0.48570  0.64620  0.59290  1.0000
  C   C3        1.0  0.48570  0.85380  0.09290  1.0000
  C   C4        1.0  0.51430  0.35380  0.40710  1.0000
  C   C5        1.0  0.52210  0.21980  0.84250  1.0000
  C   C6        1.0  0.47790  0.71980  0.65750  1.0000
  C   C7        1.0  0.47790  0.78020  0.15750  1.0000
  C   C8        1.0  0.52210  0.28020  0.34250  1.0000
  C   C9        1.0  0.47150  0.21810  0.77310  1.0000
  C   C10       1.0  0.52850  0.71810  0.72690  1.0000
  C   C11       1.0  0.52850  0.78190  0.22690  1.0000
  C   C12       1.0  0.47150  0.28190  0.27310  1.0000
  H   H1        1.0  0.43400  0.17420  0.76820  1.0000
  H   H2        1.0  0.56600  0.67420  0.73180  1.0000
  H   H3        1.0  0.56600  0.82580  0.23180  1.0000
  H   H4        1.0  0.43400  0.32580  0.26820  1.0000
  C   C13       1.0  0.47590  0.28260  0.70850  1.0000
  C   C14       1.0  0.52410  0.78260  0.79150  1.0000
  C   C15       1.0  0.52410  0.71740  0.29150  1.0000
  C   C16       1.0  0.47590  0.21740  0.20850  1.0000
  H   H5        1.0  0.44140  0.28010  0.66130  1.0000
  H   H6        1.0  0.55860  0.78010  0.83870  1.0000
  H   H7        1.0  0.55860  0.71990  0.33870  1.0000
  H   H8        1.0  0.44140  0.21990  0.16130  1.0000
  C   C17       1.0  0.52940  0.34810  0.71390  1.0000
  C   C18       1.0  0.47060  0.84810  0.78610  1.0000
  C   C19       1.0  0.47060  0.65190  0.28610  1.0000
  C   C20       1.0  0.52940  0.15190  0.21390  1.0000
  C   C21       1.0  0.58170  0.35450  0.78770  1.0000
  C   C22       1.0  0.41830  0.85450  0.71230  1.0000
  C   C23       1.0  0.41830  0.64550  0.21230  1.0000
  C   C24       1.0  0.58170  0.14550  0.28770  1.0000
  C   C25       1.0  0.57820  0.28840  0.85160  1.0000
  C   C26       1.0  0.42180  0.78840  0.64840  1.0000
  C   C27       1.0  0.42180  0.71160  0.14840  1.0000
  C   C28       1.0  0.57820  0.21160  0.35160  1.0000
  C   C29       1.0  0.63000  0.29520  0.92420  1.0000
  C   C30       1.0  0.37000  0.79520  0.57580  1.0000
  C   C31       1.0  0.37000  0.70480  0.07580  1.0000
  C   C32       1.0  0.63000  0.20480  0.42420  1.0000
  H   H9        1.0  0.62930  0.25180  0.96610  1.0000
  H   H10       1.0  0.37070  0.75180  0.53390  1.0000
  H   H11       1.0  0.37070  0.74820  0.03390  1.0000
  H   H12       1.0  0.62930  0.24820  0.46610  1.0000
  C   C33       1.0  0.68080  0.36400  0.93360  1.0000
  C   C34       1.0  0.31920  0.86400  0.56640  1.0000
  C   C35       1.0  0.31920  0.63600  0.06640  1.0000
  C   C36       1.0  0.68080  0.13600  0.43360  1.0000
  H   H13       1.0  0.71430  0.36730  0.98160  1.0000
  H   H14       1.0  0.28570  0.86730  0.51840  1.0000
  H   H15       1.0  0.28570  0.63270  0.01840  1.0000
  H   H16       1.0  0.71430  0.13270  0.48160  1.0000
  C   C37       1.0  0.68240  0.43040  0.87050  1.0000
  C   C38       1.0  0.31760  0.93040  0.62950  1.0000
  C   C39       1.0  0.31760  0.56960  0.12950  1.0000
  C   C40       1.0  0.68240  0.06960  0.37050  1.0000
  H   H17       1.0  0.71670  0.47770  0.87750  1.0000
  H   H18       1.0  0.28330  0.97770  0.62250  1.0000
  H   H19       1.0  0.28330  0.52230  0.12250  1.0000
  H   H20       1.0  0.71670  0.02230  0.37750  1.0000
  C   C41       1.0  0.63450  0.42590  0.79960  1.0000
  C   C42       1.0  0.36550  0.92590  0.70040  1.0000
  C   C43       1.0  0.36550  0.57410  0.20040  1.0000
  C   C44       1.0  0.63450  0.07410  0.29960  1.0000
  H   H21       1.0  0.63630  0.47020  0.75860  1.0000
  H   H22       1.0  0.36370  0.97020  0.74140  1.0000
  H   H23       1.0  0.36370  0.52980  0.24140  1.0000
  H   H24       1.0  0.63630  0.02980  0.25860  1.0000
  C   C45       1.0  0.53280  0.40850  0.63900  1.0000
  C   C46       1.0  0.46720  0.90850  0.86100  1.0000
  C   C47       1.0  0.46720  0.59150  0.36100  1.0000
  C   C48       1.0  0.53280  0.09150  0.13900  1.0000
  C   C49       1.0  0.25000  0.16290  0.07600  1.0000
  C   C50       1.0  0.75000  0.66290  0.42400  1.0000
  C   C51       1.0  0.75000  0.83710  0.92400  1.0000
  C   C52       1.0  0.25000  0.33710  0.57600  1.0000
  C   C53       1.0  0.23960  0.23470  0.14060  1.0000
  C   C54       1.0  0.76040  0.73470  0.35940  1.0000
  C   C55       1.0  0.76040  0.76530  0.85940  1.0000
  C   C56       1.0  0.23960  0.26530  0.64060  1.0000
  C   C57       1.0  0.28270  0.22780  0.21550  1.0000
  C   C58       1.0  0.71730  0.72780  0.28450  1.0000
  C   C59       1.0  0.71730  0.77220  0.78450  1.0000
  C   C60       1.0  0.28270  0.27220  0.71550  1.0000
  H   H25       1.0  0.31740  0.18090  0.22290  1.0000
  H   H26       1.0  0.68260  0.68090  0.27710  1.0000
  H   H27       1.0  0.68260  0.81910  0.77710  1.0000
  H   H28       1.0  0.31740  0.31910  0.72290  1.0000
  C   C61       1.0  0.27650  0.28870  0.28140  1.0000
  C   C62       1.0  0.72350  0.78870  0.21860  1.0000
  C   C63       1.0  0.72350  0.71130  0.71860  1.0000
  C   C64       1.0  0.27650  0.21130  0.78140  1.0000
  H   H29       1.0  0.30750  0.28230  0.33100  1.0000
  H   H30       1.0  0.69250  0.78230  0.16900  1.0000
  H   H31       1.0  0.69250  0.71770  0.66900  1.0000
  H   H32       1.0  0.30750  0.21770  0.83100  1.0000
  C   C65       1.0  0.22540  0.35730  0.27360  1.0000
  C   C66       1.0  0.77460  0.85730  0.22640  1.0000
  C   C67       1.0  0.77460  0.64270  0.72640  1.0000
  C   C68       1.0  0.22540  0.14270  0.77360  1.0000
  C   C69       1.0  0.17790  0.36810  0.19720  1.0000
  C   C70       1.0  0.82210  0.86810  0.30280  1.0000
  C   C71       1.0  0.82210  0.63190  0.80280  1.0000
  C   C72       1.0  0.17790  0.13190  0.69720  1.0000
  C   C73       1.0  0.18660  0.30680  0.12840  1.0000
  C   C74       1.0  0.81340  0.80680  0.37160  1.0000
  C   C75       1.0  0.81340  0.69320  0.87160  1.0000
  C   C76       1.0  0.18660  0.19320  0.62840  1.0000
  C   C77       1.0  0.14340  0.32280  0.05160  1.0000
  C   C78       1.0  0.85660  0.82280  0.44840  1.0000
  C   C79       1.0  0.85660  0.67720  0.94840  1.0000
  C   C80       1.0  0.14340  0.17720  0.55160  1.0000
  H   H33       1.0  0.14890  0.28470  0.00640  1.0000
  H   H34       1.0  0.85110  0.78470  0.49360  1.0000
  H   H35       1.0  0.85110  0.71530  0.99360  1.0000
  H   H36       1.0  0.14890  0.21530  0.50640  1.0000
  C   C81       1.0  0.09380  0.39260  0.04210  1.0000
  C   C82       1.0  0.90620  0.89260  0.45790  1.0000
  C   C83       1.0  0.90620  0.60740  0.95790  1.0000
  C   C84       1.0  0.09380  0.10740  0.54210  1.0000
  H   H37       1.0  0.06610  0.40150  0.99060  1.0000
  H   H38       1.0  0.93390  0.90150  0.50940  1.0000
  H   H39       1.0  0.93390  0.59850  0.00940  1.0000
  H   H40       1.0  0.06610  0.09850  0.49060  1.0000
  C   C85       1.0  0.08410  0.45080  0.10880  1.0000
  C   C86       1.0  0.91590  0.95080  0.39120  1.0000
  C   C87       1.0  0.91590  0.54920  0.89120  1.0000
  C   C88       1.0  0.08410  0.04920  0.60880  1.0000
  H   H41       1.0  0.05000  0.49830  0.10160  1.0000
  H   H42       1.0  0.95000  0.99830  0.39840  1.0000
  H   H43       1.0  0.95000  0.50170  0.89840  1.0000
  H   H44       1.0  0.05000  0.00170  0.60160  1.0000
  C   C89       1.0  0.12430  0.43870  0.18430  1.0000
  C   C90       1.0  0.87570  0.93870  0.31570  1.0000
  C   C91       1.0  0.87570  0.56130  0.81570  1.0000
  C   C92       1.0  0.12430  0.06130  0.68430  1.0000
  H   H45       1.0  0.11650  0.47750  0.22840  1.0000
  H   H46       1.0  0.88350  0.97750  0.27160  1.0000
  H   H47       1.0  0.88350  0.52250  0.77160  1.0000
  H   H48       1.0  0.11650  0.02250  0.72840  1.0000
  C   C93       1.0  0.22430  0.41860  0.34950  1.0000
  C   C94       1.0  0.77570  0.91860  0.15050  1.0000
  C   C95       1.0  0.77570  0.58140  0.65050  1.0000
  C   C96       1.0  0.22430  0.08140  0.84950  1.0000
  C   C97       1.0  0.00010  0.12840  0.12160  1.0000
  C   C98       1.0  0.99990  0.62840  0.37840  1.0000
  C   C99       1.0  0.99990  0.87160  0.87840  1.0000
  C   C100      1.0  0.00010  0.37160  0.62160  1.0000
  C   C101      1.0  0.99940  0.20680  0.18070  1.0000
  C   C102      1.0  0.00060  0.70680  0.31930  1.0000
  C   C103      1.0  0.00060  0.79320  0.81930  1.0000
  C   C104      1.0  0.99940  0.29320  0.68070  1.0000
  C   C105      1.0  0.03850  0.19970  0.25740  1.0000
  C   C106      1.0  0.96150  0.69970  0.24260  1.0000
  C   C107      1.0  0.96150  0.80030  0.74260  1.0000
  C   C108      1.0  0.03850  0.30030  0.75740  1.0000
  H   H49       1.0  0.07210  0.15210  0.26800  1.0000
  H   H50       1.0  0.92790  0.65210  0.23200  1.0000
  H   H51       1.0  0.92790  0.84790  0.73200  1.0000
  H   H52       1.0  0.07210  0.34790  0.76800  1.0000
  C   C109      1.0  0.02880  0.26350  0.32160  1.0000
  C   C110      1.0  0.97120  0.76350  0.17840  1.0000
  C   C111      1.0  0.97120  0.73650  0.67840  1.0000
  C   C112      1.0  0.02880  0.23650  0.82160  1.0000
  H   H53       1.0  0.05620  0.25770  0.37360  1.0000
  H   H54       1.0  0.94380  0.75770  0.12640  1.0000
  H   H55       1.0  0.94380  0.74230  0.62640  1.0000
  H   H56       1.0  0.05620  0.24230  0.87360  1.0000
  C   C113      1.0  0.98000  0.33270  0.30730  1.0000
  C   C114      1.0  0.02000  0.83270  0.19270  1.0000
  C   C115      1.0  0.02000  0.66730  0.69270  1.0000
  C   C116      1.0  0.98000  0.16730  0.80730  1.0000
  C   C117      1.0  0.94400  0.34860  0.22530  1.0000
  C   C118      1.0  0.05600  0.84860  0.27470  1.0000
  C   C119      1.0  0.05600  0.65140  0.77470  1.0000
  C   C120      1.0  0.94400  0.15140  0.72530  1.0000
  C   C121      1.0  0.95310  0.28400  0.16040  1.0000
  C   C122      1.0  0.04690  0.78400  0.33960  1.0000
  C   C123      1.0  0.04690  0.71600  0.83960  1.0000
  C   C124      1.0  0.95310  0.21600  0.66040  1.0000
  C   C125      1.0  0.91890  0.30070  0.07900  1.0000
  C   C126      1.0  0.08110  0.80070  0.42100  1.0000
  C   C127      1.0  0.08110  0.69930  0.92100  1.0000
  C   C128      1.0  0.91890  0.19930  0.57900  1.0000
  H   H57       1.0  0.92330  0.25820  0.03690  1.0000
  H   H58       1.0  0.07670  0.75820  0.46310  1.0000
  H   H59       1.0  0.07670  0.74180  0.96310  1.0000
  H   H60       1.0  0.92330  0.24180  0.53690  1.0000
  C   C129      1.0  0.87960  0.37770  0.06110  1.0000
  C   C130      1.0  0.12040  0.87770  0.43890  1.0000
  C   C131      1.0  0.12040  0.62230  0.93890  1.0000
  C   C132      1.0  0.87960  0.12230  0.56110  1.0000
  H   H61       1.0  0.85860  0.38850  0.00670  1.0000
  H   H62       1.0  0.14140  0.88850  0.49330  1.0000
  H   H63       1.0  0.14140  0.61150  0.99330  1.0000
  H   H64       1.0  0.85860  0.11150  0.50670  1.0000
  C   C133      1.0  0.87050  0.44110  0.12430  1.0000
  C   C134      1.0  0.12950  0.94110  0.37570  1.0000
  C   C135      1.0  0.12950  0.55890  0.87570  1.0000
  C   C136      1.0  0.87050  0.05890  0.62430  1.0000
  H   H65       1.0  0.84310  0.49340  0.11130  1.0000
  H   H66       1.0  0.15690  0.99340  0.38870  1.0000
  H   H67       1.0  0.15690  0.50660  0.88870  1.0000
  H   H68       1.0  0.84310  0.00660  0.61130  1.0000
  C   C137      1.0  0.90080  0.42750  0.20430  1.0000
  C   C138      1.0  0.09920  0.92750  0.29570  1.0000
  C   C139      1.0  0.09920  0.57250  0.79570  1.0000
  C   C140      1.0  0.90080  0.07250  0.70430  1.0000
  H   H69       1.0  0.89340  0.47010  0.24560  1.0000
  H   H70       1.0  0.10660  0.97010  0.25440  1.0000
  H   H71       1.0  0.10660  0.52990  0.75440  1.0000
  H   H72       1.0  0.89340  0.02990  0.74560  1.0000
  C   C141      1.0  0.96020  0.38870  0.38030  1.0000
  C   C142      1.0  0.03980  0.88870  0.11970  1.0000
  C   C143      1.0  0.03980  0.61130  0.61970  1.0000
  C   C144      1.0  0.96020  0.11130  0.88030  1.0000
