data_image0
_chemical_formula_structural       Tb8Cl4O48C12H4C4H4C16H4C4H4C4H4C4H4C16H4C4H4C16H4C4H4C4H4C4H4C16H4C4H4C16H4C4H4C4H4C4H4C4
_chemical_formula_sum              "Tb8 Cl4 O48 C144 H72"
_cell_length_a       17.6908
_cell_length_b       14.8181
_cell_length_c       15.8924
_cell_angle_alpha    90
_cell_angle_beta     94.582
_cell_angle_gamma    90

_space_group_name_H-M_alt    "P 1"
_space_group_IT_number       1

loop_
  _space_group_symop_operation_xyz
  'x, y, z'

loop_
  _atom_site_type_symbol
  _atom_site_label
  _atom_site_symmetry_multiplicity
  _atom_site_fract_x
  _atom_site_fract_y
  _atom_site_fract_z
  _atom_site_occupancy
  Tb  Tb1       1.0  0.37834  0.02471  0.99556  1.0000
  Tb  Tb2       1.0  0.62166  0.52471  0.50444  1.0000
  Tb  Tb3       1.0  0.62166  0.97529  0.00444  1.0000
  Tb  Tb4       1.0  0.37834  0.47529  0.49556  1.0000
  Tb  Tb5       1.0  0.11711  0.01178  0.99874  1.0000
  Tb  Tb6       1.0  0.88289  0.51178  0.50126  1.0000
  Tb  Tb7       1.0  0.88289  0.98822  0.00126  1.0000
  Tb  Tb8       1.0  0.11711  0.48822  0.49874  1.0000
  Cl  Cl1       1.0  0.25211  0.91719  0.02495  1.0000
  Cl  Cl2       1.0  0.74789  0.41719  0.47505  1.0000
  Cl  Cl3       1.0  0.74789  0.08281  0.97505  1.0000
  Cl  Cl4       1.0  0.25211  0.58281  0.52495  1.0000
  O   O1        1.0  0.45000  0.12290  0.92230  1.0000
  O   O2        1.0  0.55000  0.62290  0.57770  1.0000
  O   O3        1.0  0.55000  0.87710  0.07770  1.0000
  O   O4        1.0  0.45000  0.37710  0.42230  1.0000
  O   O5        1.0  0.57530  0.10530  0.93480  1.0000
  O   O6        1.0  0.42470  0.60530  0.56520  1.0000
  O   O7        1.0  0.42470  0.89470  0.06520  1.0000
  O   O8        1.0  0.57530  0.39470  0.43480  1.0000
  O   O9        1.0  0.31530  0.12890  0.07360  1.0000
  O   O10       1.0  0.68470  0.62890  0.42640  1.0000
  O   O11       1.0  0.68470  0.87110  0.92640  1.0000
  O   O12       1.0  0.31530  0.37110  0.57360  1.0000
  O   O13       1.0  0.47010  0.42870  0.59740  1.0000
  O   O14       1.0  0.52990  0.92870  0.90260  1.0000
  O   O15       1.0  0.52990  0.57130  0.40260  1.0000
  O   O16       1.0  0.47010  0.07130  0.09740  1.0000
  O   O17       1.0  0.19270  0.13370  0.03150  1.0000
  O   O18       1.0  0.80730  0.63370  0.46850  1.0000
  O   O19       1.0  0.80730  0.86630  0.96850  1.0000
  O   O20       1.0  0.19270  0.36630  0.53150  1.0000
  O   O21       1.0  0.59510  0.43130  0.61540  1.0000
  O   O22       1.0  0.40490  0.93130  0.88460  1.0000
  O   O23       1.0  0.40490  0.56870  0.38460  1.0000
  O   O24       1.0  0.59510  0.06870  0.11540  1.0000
  O   O25       1.0  0.29041  0.42980  0.39020  1.0000
  O   O26       1.0  0.70959  0.92980  0.10980  1.0000
  O   O27       1.0  0.70959  0.57020  0.60980  1.0000
  O   O28       1.0  0.29041  0.07020  0.89020  1.0000
  O   O29       1.0  0.16653  0.45470  0.36966  1.0000
  O   O30       1.0  0.83347  0.95470  0.13034  1.0000
  O   O31       1.0  0.83347  0.54530  0.63034  1.0000
  O   O32       1.0  0.16653  0.04530  0.86966  1.0000
  O   O33       1.0  0.06161  0.08660  0.11040  1.0000
  O   O34       1.0  0.93839  0.58660  0.38960  1.0000
  O   O35       1.0  0.93839  0.91340  0.88960  1.0000
  O   O36       1.0  0.06161  0.41340  0.61040  1.0000
  O   O37       1.0  0.93639  0.10030  0.08710  1.0000
  O   O38       1.0  0.06361  0.60030  0.41290  1.0000
  O   O39       1.0  0.06361  0.89970  0.91290  1.0000
  O   O40       1.0  0.93639  0.39970  0.58710  1.0000
  O   O41       1.0  0.01870  0.40980  0.43530  1.0000
  O   O42       1.0  0.98130  0.90980  0.06470  1.0000
  O   O43       1.0  0.98130  0.59020  0.56470  1.0000
  O   O44       1.0  0.01870  0.09020  0.93530  1.0000
  O   O45       1.0  0.89750  0.40300  0.39330  1.0000
  O   O46       1.0  0.10250  0.90300  0.10670  1.0000
  O   O47       1.0  0.10250  0.59700  0.60670  1.0000
  O   O48       1.0  0.89750  0.09700  0.89330  1.0000
  C   C1        1.0  0.51530  0.14250  0.90510  1.0000
  C   C2        1.0  0.48470  0.64250  0.59490  1.0000
  C   C3        1.0  0.48470  0.85750  0.09490  1.0000
  C   C4        1.0  0.51530  0.35750  0.40510  1.0000
  C   C5        1.0  0.52250  0.21650  0.84080  1.0000
  C   C6        1.0  0.47750  0.71650  0.65920  1.0000
  C   C7        1.0  0.47750  0.78350  0.15920  1.0000
  C   C8        1.0  0.52250  0.28350  0.34080  1.0000
  C   C9        1.0  0.47190  0.21440  0.77130  1.0000
  C   C10       1.0  0.52810  0.71440  0.72870  1.0000
  C   C11       1.0  0.52810  0.78560  0.22870  1.0000
  C   C12       1.0  0.47190  0.28560  0.27130  1.0000
  H   H1        1.0  0.43470  0.16990  0.76670  1.0000
  H   H2        1.0  0.56530  0.66990  0.73330  1.0000
  H   H3        1.0  0.56530  0.83010  0.23330  1.0000
  H   H4        1.0  0.43470  0.33010  0.26670  1.0000
  C   C13       1.0  0.47520  0.27860  0.70650  1.0000
  C   C14       1.0  0.52480  0.77860  0.79350  1.0000
  C   C15       1.0  0.52480  0.72140  0.29350  1.0000
  C   C16       1.0  0.47520  0.22140  0.20650  1.0000
  H   H5        1.0  0.44050  0.27570  0.65950  1.0000
  H   H6        1.0  0.55950  0.77570  0.84050  1.0000
  H   H7        1.0  0.55950  0.72430  0.34050  1.0000
  H   H8        1.0  0.44050  0.22430  0.15950  1.0000
  C   C17       1.0  0.52900  0.34540  0.71150  1.0000
  C   C18       1.0  0.47100  0.84540  0.78850  1.0000
  C   C19       1.0  0.47100  0.65460  0.28850  1.0000
  C   C20       1.0  0.52900  0.15460  0.21150  1.0000
  C   C21       1.0  0.58050  0.35340  0.78530  1.0000
  C   C22       1.0  0.41950  0.85340  0.71470  1.0000
  C   C23       1.0  0.41950  0.64660  0.21470  1.0000
  C   C24       1.0  0.58050  0.14660  0.28530  1.0000
  C   C25       1.0  0.57790  0.28660  0.84960  1.0000
  C   C26       1.0  0.42210  0.78660  0.65040  1.0000
  C   C27       1.0  0.42210  0.71340  0.15040  1.0000
  C   C28       1.0  0.57790  0.21340  0.34960  1.0000
  C   C29       1.0  0.62950  0.29380  0.92220  1.0000
  C   C30       1.0  0.37050  0.79380  0.57780  1.0000
  C   C31       1.0  0.37050  0.70620  0.07780  1.0000
  C   C32       1.0  0.62950  0.20620  0.42220  1.0000
  H   H9        1.0  0.62980  0.25000  0.96410  1.0000
  H   H10       1.0  0.37020  0.75000  0.53590  1.0000
  H   H11       1.0  0.37020  0.75000  0.03590  1.0000
  H   H12       1.0  0.62980  0.25000  0.46410  1.0000
  C   C33       1.0  0.67860  0.36470  0.93100  1.0000
  C   C34       1.0  0.32140  0.86470  0.56900  1.0000
  C   C35       1.0  0.32140  0.63530  0.06900  1.0000
  C   C36       1.0  0.67860  0.13530  0.43100  1.0000
  H   H13       1.0  0.71170  0.36880  0.97930  1.0000
  H   H14       1.0  0.28830  0.86880  0.52070  1.0000
  H   H15       1.0  0.28830  0.63120  0.02070  1.0000
  H   H16       1.0  0.71170  0.13120  0.47930  1.0000
  C   C37       1.0  0.68010  0.43090  0.86920  1.0000
  C   C38       1.0  0.31990  0.93090  0.63080  1.0000
  C   C39       1.0  0.31990  0.56910  0.13080  1.0000
  C   C40       1.0  0.68010  0.06910  0.36920  1.0000
  H   H17       1.0  0.71370  0.47900  0.87700  1.0000
  H   H18       1.0  0.28630  0.97900  0.62300  1.0000
  H   H19       1.0  0.28630  0.52100  0.12300  1.0000
  H   H20       1.0  0.71370  0.02100  0.37700  1.0000
  C   C41       1.0  0.63270  0.42590  0.79710  1.0000
  C   C42       1.0  0.36730  0.92590  0.70290  1.0000
  C   C43       1.0  0.36730  0.57410  0.20290  1.0000
  C   C44       1.0  0.63270  0.07410  0.29710  1.0000
  H   H21       1.0  0.63460  0.47000  0.75570  1.0000
  H   H22       1.0  0.36540  0.97000  0.74430  1.0000
  H   H23       1.0  0.36540  0.53000  0.24430  1.0000
  H   H24       1.0  0.63460  0.03000  0.25570  1.0000
  C   C45       1.0  0.53140  0.40720  0.63670  1.0000
  C   C46       1.0  0.46860  0.90720  0.86330  1.0000
  C   C47       1.0  0.46860  0.59280  0.36330  1.0000
  C   C48       1.0  0.53140  0.09280  0.13670  1.0000
  C   C49       1.0  0.24970  0.16110  0.07710  1.0000
  C   C50       1.0  0.75030  0.66110  0.42290  1.0000
  C   C51       1.0  0.75030  0.83890  0.92290  1.0000
  C   C52       1.0  0.24970  0.33890  0.57710  1.0000
  C   C53       1.0  0.24000  0.23290  0.14160  1.0000
  C   C54       1.0  0.76000  0.73290  0.35840  1.0000
  C   C55       1.0  0.76000  0.76710  0.85840  1.0000
  C   C56       1.0  0.24000  0.26710  0.64160  1.0000
  C   C57       1.0  0.28320  0.22550  0.21640  1.0000
  C   C58       1.0  0.71680  0.72550  0.28360  1.0000
  C   C59       1.0  0.71680  0.77450  0.78360  1.0000
  C   C60       1.0  0.28320  0.27450  0.71640  1.0000
  H   H25       1.0  0.31780  0.17820  0.22360  1.0000
  H   H26       1.0  0.68220  0.67820  0.27640  1.0000
  H   H27       1.0  0.68220  0.82180  0.77640  1.0000
  H   H28       1.0  0.31780  0.32180  0.72360  1.0000
  C   C61       1.0  0.27730  0.28620  0.28230  1.0000
  C   C62       1.0  0.72270  0.78620  0.21770  1.0000
  C   C63       1.0  0.72270  0.71380  0.71770  1.0000
  C   C64       1.0  0.27730  0.21380  0.78230  1.0000
  H   H29       1.0  0.30800  0.27880  0.33210  1.0000
  H   H30       1.0  0.69200  0.77880  0.16790  1.0000
  H   H31       1.0  0.69200  0.72120  0.66790  1.0000
  H   H32       1.0  0.30800  0.22120  0.83210  1.0000
  C   C65       1.0  0.22670  0.35740  0.27520  1.0000
  C   C66       1.0  0.77330  0.85740  0.22480  1.0000
  C   C67       1.0  0.77330  0.64260  0.72480  1.0000
  C   C68       1.0  0.22670  0.14260  0.77520  1.0000
  C   C69       1.0  0.17940  0.36800  0.19810  1.0000
  C   C70       1.0  0.82060  0.86800  0.30190  1.0000
  C   C71       1.0  0.82060  0.63200  0.80190  1.0000
  C   C72       1.0  0.17940  0.13200  0.69810  1.0000
  C   C73       1.0  0.18750  0.30660  0.13020  1.0000
  C   C74       1.0  0.81250  0.80660  0.36980  1.0000
  C   C75       1.0  0.81250  0.69340  0.86980  1.0000
  C   C76       1.0  0.18750  0.19340  0.63020  1.0000
  C   C77       1.0  0.14370  0.32170  0.05280  1.0000
  C   C78       1.0  0.85630  0.82170  0.44720  1.0000
  C   C79       1.0  0.85630  0.67830  0.94720  1.0000
  C   C80       1.0  0.14370  0.17830  0.55280  1.0000
  H   H33       1.0  0.14830  0.28240  0.00790  1.0000
  H   H34       1.0  0.85170  0.78240  0.49210  1.0000
  H   H35       1.0  0.85170  0.71760  0.99210  1.0000
  H   H36       1.0  0.14830  0.21760  0.50790  1.0000
  C   C81       1.0  0.09470  0.39300  0.04320  1.0000
  C   C82       1.0  0.90530  0.89300  0.45680  1.0000
  C   C83       1.0  0.90530  0.60700  0.95680  1.0000
  C   C84       1.0  0.09470  0.10700  0.54320  1.0000
  H   H37       1.0  0.06710  0.40250  0.99170  1.0000
  H   H38       1.0  0.93290  0.90250  0.50830  1.0000
  H   H39       1.0  0.93290  0.59750  0.00830  1.0000
  H   H40       1.0  0.06710  0.09750  0.49170  1.0000
  C   C85       1.0  0.08610  0.45160  0.11050  1.0000
  C   C86       1.0  0.91390  0.95160  0.38950  1.0000
  C   C87       1.0  0.91390  0.54840  0.88950  1.0000
  C   C88       1.0  0.08610  0.04840  0.61050  1.0000
  H   H41       1.0  0.05220  0.49950  0.10360  1.0000
  H   H42       1.0  0.94780  0.99950  0.39640  1.0000
  H   H43       1.0  0.94780  0.50050  0.89640  1.0000
  H   H44       1.0  0.05220  0.00050  0.60360  1.0000
  C   C89       1.0  0.12620  0.43960  0.18540  1.0000
  C   C90       1.0  0.87380  0.93960  0.31460  1.0000
  C   C91       1.0  0.87380  0.56040  0.81460  1.0000
  C   C92       1.0  0.12620  0.06040  0.68540  1.0000
  H   H45       1.0  0.11900  0.47900  0.22970  1.0000
  H   H46       1.0  0.88100  0.97900  0.27030  1.0000
  H   H47       1.0  0.88100  0.52100  0.77030  1.0000
  H   H48       1.0  0.11900  0.02100  0.72970  1.0000
  C   C93       1.0  0.22770  0.41950  0.35080  1.0000
  C   C94       1.0  0.77230  0.91950  0.14920  1.0000
  C   C95       1.0  0.77230  0.58050  0.64920  1.0000
  C   C96       1.0  0.22770  0.08050  0.85080  1.0000
  C   C97       1.0  0.00000  0.12460  0.12070  1.0000
  C   C98       1.0  0.00000  0.62460  0.37930  1.0000
  C   C99       1.0  0.00000  0.87540  0.87930  1.0000
  C   C100      1.0  0.00000  0.37540  0.62070  1.0000
  C   C101      1.0  0.99920  0.20280  0.18070  1.0000
  C   C102      1.0  0.00080  0.70280  0.31930  1.0000
  C   C103      1.0  0.00080  0.79720  0.81930  1.0000
  C   C104      1.0  0.99920  0.29720  0.68070  1.0000
  C   C105      1.0  0.03970  0.19490  0.25770  1.0000
  C   C106      1.0  0.96030  0.69490  0.24230  1.0000
  C   C107      1.0  0.96030  0.80510  0.74230  1.0000
  C   C108      1.0  0.03970  0.30510  0.75770  1.0000
  H   H49       1.0  0.07300  0.14680  0.26730  1.0000
  H   H50       1.0  0.92700  0.64680  0.23270  1.0000
  H   H51       1.0  0.92700  0.85320  0.73270  1.0000
  H   H52       1.0  0.07300  0.35320  0.76730  1.0000
  C   C109      1.0  0.03160  0.25810  0.32230  1.0000
  C   C110      1.0  0.96840  0.75810  0.17770  1.0000
  C   C111      1.0  0.96840  0.74190  0.67770  1.0000
  C   C112      1.0  0.03160  0.24190  0.82230  1.0000
  H   H53       1.0  0.05990  0.25170  0.37380  1.0000
  H   H54       1.0  0.94010  0.75170  0.12620  1.0000
  H   H55       1.0  0.94010  0.74830  0.62620  1.0000
  H   H56       1.0  0.05990  0.24830  0.87380  1.0000
  C   C113      1.0  0.98240  0.32930  0.30980  1.0000
  C   C114      1.0  0.01760  0.82930  0.19020  1.0000
  C   C115      1.0  0.01760  0.67070  0.69020  1.0000
  C   C116      1.0  0.98240  0.17070  0.80980  1.0000
  C   C117      1.0  0.94530  0.34560  0.22790  1.0000
  C   C118      1.0  0.05470  0.84560  0.27210  1.0000
  C   C119      1.0  0.05470  0.65440  0.77210  1.0000
  C   C120      1.0  0.94530  0.15440  0.72790  1.0000
  C   C121      1.0  0.95380  0.28100  0.16280  1.0000
  C   C122      1.0  0.04620  0.78100  0.33720  1.0000
  C   C123      1.0  0.04620  0.71900  0.83720  1.0000
  C   C124      1.0  0.95380  0.21900  0.66280  1.0000
  C   C125      1.0  0.91890  0.29880  0.08050  1.0000
  C   C126      1.0  0.08110  0.79880  0.41950  1.0000
  C   C127      1.0  0.08110  0.70120  0.91950  1.0000
  C   C128      1.0  0.91890  0.20120  0.58050  1.0000
  H   H57       1.0  0.92290  0.25690  0.03750  1.0000
  H   H58       1.0  0.07710  0.75690  0.46250  1.0000
  H   H59       1.0  0.07710  0.74310  0.96250  1.0000
  H   H60       1.0  0.92290  0.24310  0.53750  1.0000
  C   C129      1.0  0.87960  0.37710  0.06470  1.0000
  C   C130      1.0  0.12040  0.87710  0.43530  1.0000
  C   C131      1.0  0.12040  0.62290  0.93530  1.0000
  C   C132      1.0  0.87960  0.12290  0.56470  1.0000
  H   H61       1.0  0.85760  0.38840  0.01060  1.0000
  H   H62       1.0  0.14240  0.88840  0.48940  1.0000
  H   H63       1.0  0.14240  0.61160  0.98940  1.0000
  H   H64       1.0  0.85760  0.11160  0.51060  1.0000
  C   C133      1.0  0.87200  0.44050  0.12870  1.0000
  C   C134      1.0  0.12800  0.94050  0.37130  1.0000
  C   C135      1.0  0.12800  0.55950  0.87130  1.0000
  C   C136      1.0  0.87200  0.05950  0.62870  1.0000
  H   H65       1.0  0.84540  0.49380  0.11650  1.0000
  H   H66       1.0  0.15460  0.99380  0.38350  1.0000
  H   H67       1.0  0.15460  0.50620  0.88350  1.0000
  H   H68       1.0  0.84540  0.00620  0.61650  1.0000
  C   C137      1.0  0.90290  0.42510  0.20830  1.0000
  C   C138      1.0  0.09710  0.92510  0.29170  1.0000
  C   C139      1.0  0.09710  0.57490  0.79170  1.0000
  C   C140      1.0  0.90290  0.07490  0.70830  1.0000
  H   H69       1.0  0.89610  0.46710  0.25050  1.0000
  H   H70       1.0  0.10390  0.96710  0.24950  1.0000
  H   H71       1.0  0.10390  0.53290  0.74950  1.0000
  H   H72       1.0  0.89610  0.03290  0.75050  1.0000
  C   C141      1.0  0.96530  0.38540  0.38420  1.0000
  C   C142      1.0  0.03470  0.88540  0.11580  1.0000
  C   C143      1.0  0.03470  0.61460  0.61580  1.0000
  C   C144      1.0  0.96530  0.11460  0.88420  1.0000
