data_image0
_chemical_formula_structural       Gd8Cl4O48C12H4C4H4C16H4C4H4C4H4C4H4C16H4C4H4C16H4C4H4C4H4C4H4C16H4C4H4C16H4C4H4C4H4C4H4C4
_chemical_formula_sum              "Gd8 Cl4 O48 C144 H72"
_cell_length_a       17.7374
_cell_length_b       14.7992
_cell_length_c       15.9201
_cell_angle_alpha    90
_cell_angle_beta     94.7447
_cell_angle_gamma    90

_space_group_name_H-M_alt    "P 1"
_space_group_IT_number       1

loop_
  _space_group_symop_operation_xyz
  'x, y, z'

loop_
  _atom_site_type_symbol
  _atom_site_label
  _atom_site_symmetry_multiplicity
  _atom_site_fract_x
  _atom_site_fract_y
  _atom_site_fract_z
  _atom_site_occupancy
  Gd  Gd1       1.0  0.37832  0.02472  0.99536  1.0000
  Gd  Gd2       1.0  0.62168  0.52472  0.50464  1.0000
  Gd  Gd3       1.0  0.62168  0.97528  0.00464  1.0000
  Gd  Gd4       1.0  0.37832  0.47528  0.49536  1.0000
  Gd  Gd5       1.0  0.11646  0.01193  0.99882  1.0000
  Gd  Gd6       1.0  0.88354  0.51193  0.50118  1.0000
  Gd  Gd7       1.0  0.88354  0.98807  0.00118  1.0000
  Gd  Gd8       1.0  0.11646  0.48807  0.49882  1.0000
  Cl  Cl1       1.0  0.25214  0.91641  0.02419  1.0000
  Cl  Cl2       1.0  0.74786  0.41641  0.47581  1.0000
  Cl  Cl3       1.0  0.74786  0.08359  0.97581  1.0000
  Cl  Cl4       1.0  0.25214  0.58359  0.52419  1.0000
  O   O1        1.0  0.44968  0.12430  0.92263  1.0000
  O   O2        1.0  0.55032  0.62430  0.57737  1.0000
  O   O3        1.0  0.55032  0.87570  0.07737  1.0000
  O   O4        1.0  0.44968  0.37570  0.42263  1.0000
  O   O5        1.0  0.57452  0.10660  0.93571  1.0000
  O   O6        1.0  0.42548  0.60660  0.56429  1.0000
  O   O7        1.0  0.42548  0.89340  0.06429  1.0000
  O   O8        1.0  0.57452  0.39340  0.43571  1.0000
  O   O9        1.0  0.31538  0.12970  0.07397  1.0000
  O   O10       1.0  0.68462  0.62970  0.42603  1.0000
  O   O11       1.0  0.68462  0.87030  0.92603  1.0000
  O   O12       1.0  0.31538  0.37030  0.57397  1.0000
  O   O13       1.0  0.47129  0.42920  0.59826  1.0000
  O   O14       1.0  0.52871  0.92920  0.90174  1.0000
  O   O15       1.0  0.52871  0.57080  0.40174  1.0000
  O   O16       1.0  0.47129  0.07080  0.09826  1.0000
  O   O17       1.0  0.19317  0.13442  0.03118  1.0000
  O   O18       1.0  0.80683  0.63442  0.46882  1.0000
  O   O19       1.0  0.80683  0.86558  0.96882  1.0000
  O   O20       1.0  0.19317  0.36558  0.53118  1.0000
  O   O21       1.0  0.59588  0.43140  0.61669  1.0000
  O   O22       1.0  0.40412  0.93140  0.88331  1.0000
  O   O23       1.0  0.40412  0.56860  0.38331  1.0000
  O   O24       1.0  0.59588  0.06860  0.11669  1.0000
  O   O25       1.0  0.28888  0.42990  0.39017  1.0000
  O   O26       1.0  0.71112  0.92990  0.10983  1.0000
  O   O27       1.0  0.71112  0.57010  0.60983  1.0000
  O   O28       1.0  0.28888  0.07010  0.89017  1.0000
  O   O29       1.0  0.16506  0.45361  0.36867  1.0000
  O   O30       1.0  0.83494  0.95361  0.13133  1.0000
  O   O31       1.0  0.83494  0.54639  0.63133  1.0000
  O   O32       1.0  0.16506  0.04639  0.86867  1.0000
  O   O33       1.0  0.06179  0.08915  0.11054  1.0000
  O   O34       1.0  0.93821  0.58915  0.38946  1.0000
  O   O35       1.0  0.93821  0.91085  0.88946  1.0000
  O   O36       1.0  0.06179  0.41085  0.61054  1.0000
  O   O37       1.0  0.93629  0.10142  0.08769  1.0000
  O   O38       1.0  0.06371  0.60142  0.41231  1.0000
  O   O39       1.0  0.06371  0.89858  0.91231  1.0000
  O   O40       1.0  0.93629  0.39858  0.58769  1.0000
  O   O41       1.0  0.01549  0.41140  0.43510  1.0000
  O   O42       1.0  0.98451  0.91140  0.06490  1.0000
  O   O43       1.0  0.98451  0.58860  0.56490  1.0000
  O   O44       1.0  0.01549  0.08860  0.93510  1.0000
  O   O45       1.0  0.89519  0.40390  0.39108  1.0000
  O   O46       1.0  0.10481  0.90390  0.10892  1.0000
  O   O47       1.0  0.10481  0.59610  0.60892  1.0000
  O   O48       1.0  0.89519  0.09610  0.89108  1.0000
  C   C1        1.0  0.51480  0.14400  0.90580  1.0000
  C   C2        1.0  0.48520  0.64400  0.59420  1.0000
  C   C3        1.0  0.48520  0.85600  0.09420  1.0000
  C   C4        1.0  0.51480  0.35600  0.40580  1.0000
  C   C5        1.0  0.52216  0.21760  0.84150  1.0000
  C   C6        1.0  0.47784  0.71760  0.65850  1.0000
  C   C7        1.0  0.47784  0.78240  0.15850  1.0000
  C   C8        1.0  0.52216  0.28240  0.34150  1.0000
  C   C9        1.0  0.47130  0.21590  0.77100  1.0000
  C   C10       1.0  0.52870  0.71590  0.72900  1.0000
  C   C11       1.0  0.52870  0.78410  0.22900  1.0000
  C   C12       1.0  0.47130  0.28410  0.27100  1.0000
  H   H1        1.0  0.43380  0.17180  0.76600  1.0000
  H   H2        1.0  0.56620  0.67180  0.73400  1.0000
  H   H3        1.0  0.56620  0.82820  0.23400  1.0000
  H   H4        1.0  0.43380  0.32820  0.26600  1.0000
  C   C13       1.0  0.47570  0.28010  0.70680  1.0000
  C   C14       1.0  0.52430  0.78010  0.79320  1.0000
  C   C15       1.0  0.52430  0.71990  0.29320  1.0000
  C   C16       1.0  0.47570  0.21990  0.20680  1.0000
  H   H5        1.0  0.44140  0.27730  0.65940  1.0000
  H   H6        1.0  0.55860  0.77730  0.84060  1.0000
  H   H7        1.0  0.55860  0.72270  0.34060  1.0000
  H   H8        1.0  0.44140  0.22270  0.15940  1.0000
  C   C17       1.0  0.52903  0.34650  0.71230  1.0000
  C   C18       1.0  0.47097  0.84650  0.78770  1.0000
  C   C19       1.0  0.47097  0.65350  0.28770  1.0000
  C   C20       1.0  0.52903  0.15350  0.21230  1.0000
  C   C21       1.0  0.58104  0.35340  0.78570  1.0000
  C   C22       1.0  0.41896  0.85340  0.71430  1.0000
  C   C23       1.0  0.41896  0.64660  0.21430  1.0000
  C   C24       1.0  0.58104  0.14660  0.28570  1.0000
  C   C25       1.0  0.57807  0.28700  0.85050  1.0000
  C   C26       1.0  0.42193  0.78700  0.64950  1.0000
  C   C27       1.0  0.42193  0.71300  0.14950  1.0000
  C   C28       1.0  0.57807  0.21300  0.35050  1.0000
  C   C29       1.0  0.62990  0.29410  0.92340  1.0000
  C   C30       1.0  0.37010  0.79410  0.57660  1.0000
  C   C31       1.0  0.37010  0.70590  0.07660  1.0000
  C   C32       1.0  0.62990  0.20590  0.42340  1.0000
  H   H9        1.0  0.63010  0.25030  0.96530  1.0000
  H   H10       1.0  0.36990  0.75030  0.53470  1.0000
  H   H11       1.0  0.36990  0.74970  0.03470  1.0000
  H   H12       1.0  0.63010  0.24970  0.46530  1.0000
  C   C33       1.0  0.67920  0.36480  0.93210  1.0000
  C   C34       1.0  0.32080  0.86480  0.56790  1.0000
  C   C35       1.0  0.32080  0.63520  0.06790  1.0000
  C   C36       1.0  0.67920  0.13520  0.43210  1.0000
  H   H13       1.0  0.71220  0.36910  0.98040  1.0000
  H   H14       1.0  0.28780  0.86910  0.51960  1.0000
  H   H15       1.0  0.28780  0.63090  0.01960  1.0000
  H   H16       1.0  0.71220  0.13090  0.48040  1.0000
  C   C37       1.0  0.68120  0.43040  0.87010  1.0000
  C   C38       1.0  0.31880  0.93040  0.62990  1.0000
  C   C39       1.0  0.31880  0.56960  0.12990  1.0000
  C   C40       1.0  0.68120  0.06960  0.37010  1.0000
  H   H17       1.0  0.71520  0.47810  0.87760  1.0000
  H   H18       1.0  0.28480  0.97810  0.62240  1.0000
  H   H19       1.0  0.28480  0.52190  0.12240  1.0000
  H   H20       1.0  0.71520  0.02190  0.37760  1.0000
  C   C41       1.0  0.63370  0.42580  0.79810  1.0000
  C   C42       1.0  0.36630  0.92580  0.70190  1.0000
  C   C43       1.0  0.36630  0.57420  0.20190  1.0000
  C   C44       1.0  0.63370  0.07420  0.29810  1.0000
  H   H21       1.0  0.63580  0.47010  0.75700  1.0000
  H   H22       1.0  0.36420  0.97010  0.74300  1.0000
  H   H23       1.0  0.36420  0.52990  0.24300  1.0000
  H   H24       1.0  0.63580  0.02990  0.25700  1.0000
  C   C45       1.0  0.53220  0.40750  0.63700  1.0000
  C   C46       1.0  0.46780  0.90750  0.86300  1.0000
  C   C47       1.0  0.46780  0.59250  0.36300  1.0000
  C   C48       1.0  0.53220  0.09250  0.13700  1.0000
  C   C49       1.0  0.24990  0.16180  0.07690  1.0000
  C   C50       1.0  0.75010  0.66180  0.42310  1.0000
  C   C51       1.0  0.75010  0.83820  0.92310  1.0000
  C   C52       1.0  0.24990  0.33820  0.57690  1.0000
  C   C53       1.0  0.23958  0.23360  0.14100  1.0000
  C   C54       1.0  0.76042  0.73360  0.35900  1.0000
  C   C55       1.0  0.76042  0.76640  0.85900  1.0000
  C   C56       1.0  0.23958  0.26640  0.64100  1.0000
  C   C57       1.0  0.28300  0.22610  0.21640  1.0000
  C   C58       1.0  0.71700  0.72610  0.28360  1.0000
  C   C59       1.0  0.71700  0.77390  0.78360  1.0000
  C   C60       1.0  0.28300  0.27390  0.71640  1.0000
  H   H25       1.0  0.31750  0.17880  0.22380  1.0000
  H   H26       1.0  0.68250  0.67880  0.27620  1.0000
  H   H27       1.0  0.68250  0.82120  0.77620  1.0000
  H   H28       1.0  0.31750  0.32120  0.72380  1.0000
  C   C61       1.0  0.27670  0.28700  0.28150  1.0000
  C   C62       1.0  0.72330  0.78700  0.21850  1.0000
  C   C63       1.0  0.72330  0.71300  0.71850  1.0000
  C   C64       1.0  0.27670  0.21300  0.78150  1.0000
  H   H29       1.0  0.30770  0.28020  0.33120  1.0000
  H   H30       1.0  0.69230  0.78020  0.16880  1.0000
  H   H31       1.0  0.69230  0.71980  0.66880  1.0000
  H   H32       1.0  0.30770  0.21980  0.83120  1.0000
  C   C65       1.0  0.22597  0.35690  0.27470  1.0000
  C   C66       1.0  0.77403  0.85690  0.22530  1.0000
  C   C67       1.0  0.77403  0.64310  0.72530  1.0000
  C   C68       1.0  0.22597  0.14310  0.77470  1.0000
  C   C69       1.0  0.17894  0.36790  0.19710  1.0000
  C   C70       1.0  0.82106  0.86790  0.30290  1.0000
  C   C71       1.0  0.82106  0.63210  0.80290  1.0000
  C   C72       1.0  0.17894  0.13210  0.69710  1.0000
  C   C73       1.0  0.18690  0.30640  0.12970  1.0000
  C   C74       1.0  0.81310  0.80640  0.37030  1.0000
  C   C75       1.0  0.81310  0.69360  0.87030  1.0000
  C   C76       1.0  0.18690  0.19360  0.62970  1.0000
  C   C77       1.0  0.14340  0.32200  0.05160  1.0000
  C   C78       1.0  0.85660  0.82200  0.44840  1.0000
  C   C79       1.0  0.85660  0.67800  0.94840  1.0000
  C   C80       1.0  0.14340  0.17800  0.55160  1.0000
  H   H33       1.0  0.14880  0.28360  0.00620  1.0000
  H   H34       1.0  0.85120  0.78360  0.49380  1.0000
  H   H35       1.0  0.85120  0.71640  0.99380  1.0000
  H   H36       1.0  0.14880  0.21640  0.50620  1.0000
  C   C81       1.0  0.09430  0.39220  0.04280  1.0000
  C   C82       1.0  0.90570  0.89220  0.45720  1.0000
  C   C83       1.0  0.90570  0.60780  0.95720  1.0000
  C   C84       1.0  0.09430  0.10780  0.54280  1.0000
  H   H37       1.0  0.06620  0.40120  0.99150  1.0000
  H   H38       1.0  0.93380  0.90120  0.50850  1.0000
  H   H39       1.0  0.93380  0.59880  0.00850  1.0000
  H   H40       1.0  0.06620  0.09880  0.49150  1.0000
  C   C85       1.0  0.08530  0.45090  0.10940  1.0000
  C   C86       1.0  0.91470  0.95090  0.39060  1.0000
  C   C87       1.0  0.91470  0.54910  0.89060  1.0000
  C   C88       1.0  0.08530  0.04910  0.60940  1.0000
  H   H41       1.0  0.05130  0.49860  0.10220  1.0000
  H   H42       1.0  0.94870  0.99860  0.39780  1.0000
  H   H43       1.0  0.94870  0.50140  0.89780  1.0000
  H   H44       1.0  0.05130  0.00140  0.60220  1.0000
  C   C89       1.0  0.12580  0.43920  0.18510  1.0000
  C   C90       1.0  0.87420  0.93920  0.31490  1.0000
  C   C91       1.0  0.87420  0.56080  0.81490  1.0000
  C   C92       1.0  0.12580  0.06080  0.68510  1.0000
  H   H45       1.0  0.11850  0.47840  0.22940  1.0000
  H   H46       1.0  0.88150  0.97840  0.27060  1.0000
  H   H47       1.0  0.88150  0.52160  0.77060  1.0000
  H   H48       1.0  0.11850  0.02160  0.72940  1.0000
  C   C93       1.0  0.22604  0.41890  0.35010  1.0000
  C   C94       1.0  0.77396  0.91890  0.14990  1.0000
  C   C95       1.0  0.77396  0.58110  0.64990  1.0000
  C   C96       1.0  0.22604  0.08110  0.85010  1.0000
  C   C97       1.0  0.00030  0.12630  0.12110  1.0000
  C   C98       1.0  0.99970  0.62630  0.37890  1.0000
  C   C99       1.0  0.99970  0.87370  0.87890  1.0000
  C   C100      1.0  0.00030  0.37370  0.62110  1.0000
  C   C101      1.0  0.99910  0.20440  0.18090  1.0000
  C   C102      1.0  0.00090  0.70440  0.31910  1.0000
  C   C103      1.0  0.00090  0.79560  0.81910  1.0000
  C   C104      1.0  0.99910  0.29560  0.68090  1.0000
  C   C105      1.0  0.03930  0.19700  0.25740  1.0000
  C   C106      1.0  0.96070  0.69700  0.24260  1.0000
  C   C107      1.0  0.96070  0.80300  0.74260  1.0000
  C   C108      1.0  0.03930  0.30300  0.75740  1.0000
  H   H49       1.0  0.07300  0.14920  0.26730  1.0000
  H   H50       1.0  0.92700  0.64920  0.23270  1.0000
  H   H51       1.0  0.92700  0.85080  0.73270  1.0000
  H   H52       1.0  0.07300  0.35080  0.76730  1.0000
  C   C109      1.0  0.03080  0.26030  0.32150  1.0000
  C   C110      1.0  0.96920  0.76030  0.17850  1.0000
  C   C111      1.0  0.96920  0.73970  0.67850  1.0000
  C   C112      1.0  0.03080  0.23970  0.82150  1.0000
  H   H53       1.0  0.05890  0.25410  0.37310  1.0000
  H   H54       1.0  0.94110  0.75410  0.12690  1.0000
  H   H55       1.0  0.94110  0.74590  0.62690  1.0000
  H   H56       1.0  0.05890  0.24590  0.87310  1.0000
  C   C113      1.0  0.98150  0.33110  0.30880  1.0000
  C   C114      1.0  0.01850  0.83110  0.19120  1.0000
  C   C115      1.0  0.01850  0.66890  0.69120  1.0000
  C   C116      1.0  0.98150  0.16890  0.80880  1.0000
  C   C117      1.0  0.94470  0.34670  0.22680  1.0000
  C   C118      1.0  0.05530  0.84670  0.27320  1.0000
  C   C119      1.0  0.05530  0.65330  0.77320  1.0000
  C   C120      1.0  0.94470  0.15330  0.72680  1.0000
  C   C121      1.0  0.95370  0.28210  0.16230  1.0000
  C   C122      1.0  0.04630  0.78210  0.33770  1.0000
  C   C123      1.0  0.04630  0.71790  0.83770  1.0000
  C   C124      1.0  0.95370  0.21790  0.66230  1.0000
  C   C125      1.0  0.91900  0.29940  0.07990  1.0000
  C   C126      1.0  0.08100  0.79940  0.42010  1.0000
  C   C127      1.0  0.08100  0.70060  0.92010  1.0000
  C   C128      1.0  0.91900  0.20060  0.57990  1.0000
  H   H57       1.0  0.92350  0.25760  0.03710  1.0000
  H   H58       1.0  0.07650  0.75760  0.46290  1.0000
  H   H59       1.0  0.07650  0.74240  0.96290  1.0000
  H   H60       1.0  0.92350  0.24240  0.53710  1.0000
  C   C129      1.0  0.87930  0.37730  0.06390  1.0000
  C   C130      1.0  0.12070  0.87730  0.43610  1.0000
  C   C131      1.0  0.12070  0.62270  0.93610  1.0000
  C   C132      1.0  0.87930  0.12270  0.56390  1.0000
  H   H61       1.0  0.85730  0.38820  0.00980  1.0000
  H   H62       1.0  0.14270  0.88820  0.49020  1.0000
  H   H63       1.0  0.14270  0.61180  0.99020  1.0000
  H   H64       1.0  0.85730  0.11180  0.50980  1.0000
  C   C133      1.0  0.87120  0.44060  0.12670  1.0000
  C   C134      1.0  0.12880  0.94060  0.37330  1.0000
  C   C135      1.0  0.12880  0.55940  0.87330  1.0000
  C   C136      1.0  0.87120  0.05940  0.62670  1.0000
  H   H65       1.0  0.84460  0.49360  0.11390  1.0000
  H   H66       1.0  0.15540  0.99360  0.38610  1.0000
  H   H67       1.0  0.15540  0.50640  0.88610  1.0000
  H   H68       1.0  0.84460  0.00640  0.61390  1.0000
  C   C137      1.0  0.90180  0.42620  0.20720  1.0000
  C   C138      1.0  0.09820  0.92620  0.29280  1.0000
  C   C139      1.0  0.09820  0.57380  0.79280  1.0000
  C   C140      1.0  0.90180  0.07380  0.70720  1.0000
  H   H69       1.0  0.89460  0.46840  0.24910  1.0000
  H   H70       1.0  0.10540  0.96840  0.25090  1.0000
  H   H71       1.0  0.10540  0.53160  0.75090  1.0000
  H   H72       1.0  0.89460  0.03160  0.74910  1.0000
  C   C141      1.0  0.96340  0.38660  0.38250  1.0000
  C   C142      1.0  0.03660  0.88660  0.11750  1.0000
  C   C143      1.0  0.03660  0.61340  0.61750  1.0000
  C   C144      1.0  0.96340  0.11340  0.88250  1.0000
