data_image0
_chemical_formula_structural       Ho8Cl4O48C12H4C4H4C16H4C4H4C4H4C4H4C16H4C4H4C16H4C4H4C4H4C4H4C16H4C4H4C16H4C4H4C4H4C4H4C4
_chemical_formula_sum              "Ho8 Cl4 O48 C144 H72"
_cell_length_a       17.6148
_cell_length_b       14.7818
_cell_length_c       15.8066
_cell_angle_alpha    90
_cell_angle_beta     94.043
_cell_angle_gamma    90

_space_group_name_H-M_alt    "P 1"
_space_group_IT_number       1

loop_
  _space_group_symop_operation_xyz
  'x, y, z'

loop_
  _atom_site_type_symbol
  _atom_site_label
  _atom_site_symmetry_multiplicity
  _atom_site_fract_x
  _atom_site_fract_y
  _atom_site_fract_z
  _atom_site_occupancy
  Ho  Ho1       1.0  0.37856  0.02463  0.99589  1.0000
  Ho  Ho2       1.0  0.62144  0.52463  0.50411  1.0000
  Ho  Ho3       1.0  0.62144  0.97537  0.00411  1.0000
  Ho  Ho4       1.0  0.37856  0.47537  0.49589  1.0000
  Ho  Ho5       1.0  0.11771  0.01158  0.99859  1.0000
  Ho  Ho6       1.0  0.88229  0.51158  0.50141  1.0000
  Ho  Ho7       1.0  0.88229  0.98842  0.00141  1.0000
  Ho  Ho8       1.0  0.11771  0.48842  0.49859  1.0000
  Cl  Cl1       1.0  0.25239  0.91859  0.02619  1.0000
  Cl  Cl2       1.0  0.74761  0.41859  0.47381  1.0000
  Cl  Cl3       1.0  0.74761  0.08141  0.97381  1.0000
  Cl  Cl4       1.0  0.25239  0.58141  0.52619  1.0000
  O   O1        1.0  0.45070  0.12080  0.92290  1.0000
  O   O2        1.0  0.54930  0.62080  0.57710  1.0000
  O   O3        1.0  0.54930  0.87920  0.07710  1.0000
  O   O4        1.0  0.45070  0.37920  0.42290  1.0000
  O   O5        1.0  0.57650  0.10380  0.93400  1.0000
  O   O6        1.0  0.42350  0.60380  0.56600  1.0000
  O   O7        1.0  0.42350  0.89620  0.06600  1.0000
  O   O8        1.0  0.57650  0.39620  0.43400  1.0000
  O   O9        1.0  0.31520  0.12780  0.07310  1.0000
  O   O10       1.0  0.68480  0.62780  0.42690  1.0000
  O   O11       1.0  0.68480  0.87220  0.92690  1.0000
  O   O12       1.0  0.31520  0.37220  0.57310  1.0000
  O   O13       1.0  0.46830  0.42730  0.59680  1.0000
  O   O14       1.0  0.53170  0.92730  0.90320  1.0000
  O   O15       1.0  0.53170  0.57270  0.40320  1.0000
  O   O16       1.0  0.46830  0.07270  0.09680  1.0000
  O   O17       1.0  0.19210  0.13250  0.03200  1.0000
  O   O18       1.0  0.80790  0.63250  0.46800  1.0000
  O   O19       1.0  0.80790  0.86750  0.96800  1.0000
  O   O20       1.0  0.19210  0.36750  0.53200  1.0000
  O   O21       1.0  0.59440  0.43070  0.61250  1.0000
  O   O22       1.0  0.40560  0.93070  0.88750  1.0000
  O   O23       1.0  0.40560  0.56930  0.38750  1.0000
  O   O24       1.0  0.59440  0.06930  0.11250  1.0000
  O   O25       1.0  0.29240  0.42920  0.39060  1.0000
  O   O26       1.0  0.70760  0.92920  0.10940  1.0000
  O   O27       1.0  0.70760  0.57080  0.60940  1.0000
  O   O28       1.0  0.29240  0.07080  0.89060  1.0000
  O   O29       1.0  0.16830  0.45690  0.37080  1.0000
  O   O30       1.0  0.83170  0.95690  0.12920  1.0000
  O   O31       1.0  0.83170  0.54310  0.62920  1.0000
  O   O32       1.0  0.16830  0.04310  0.87080  1.0000
  O   O33       1.0  0.06160  0.08370  0.11050  1.0000
  O   O34       1.0  0.93840  0.58370  0.38950  1.0000
  O   O35       1.0  0.93840  0.91630  0.88950  1.0000
  O   O36       1.0  0.06160  0.41630  0.61050  1.0000
  O   O37       1.0  0.93590  0.09910  0.08700  1.0000
  O   O38       1.0  0.06410  0.59910  0.41300  1.0000
  O   O39       1.0  0.06410  0.90090  0.91300  1.0000
  O   O40       1.0  0.93590  0.40090  0.58700  1.0000
  O   O41       1.0  0.02190  0.40770  0.43550  1.0000
  O   O42       1.0  0.97810  0.90770  0.06450  1.0000
  O   O43       1.0  0.97810  0.59230  0.56450  1.0000
  O   O44       1.0  0.02190  0.09230  0.93550  1.0000
  O   O45       1.0  0.89990  0.40130  0.39660  1.0000
  O   O46       1.0  0.10010  0.90130  0.10340  1.0000
  O   O47       1.0  0.10010  0.59870  0.60340  1.0000
  O   O48       1.0  0.89990  0.09870  0.89660  1.0000
  C   C1        1.0  0.51590  0.14060  0.90490  1.0000
  C   C2        1.0  0.48410  0.64060  0.59510  1.0000
  C   C3        1.0  0.48410  0.85940  0.09510  1.0000
  C   C4        1.0  0.51590  0.35940  0.40490  1.0000
  C   C5        1.0  0.52240  0.21450  0.84060  1.0000
  C   C6        1.0  0.47760  0.71450  0.65940  1.0000
  C   C7        1.0  0.47760  0.78550  0.15940  1.0000
  C   C8        1.0  0.52240  0.28550  0.34060  1.0000
  C   C9        1.0  0.47210  0.21240  0.77010  1.0000
  C   C10       1.0  0.52790  0.71240  0.72990  1.0000
  C   C11       1.0  0.52790  0.78760  0.22990  1.0000
  C   C12       1.0  0.47210  0.28760  0.27010  1.0000
  H   H1        1.0  0.43520  0.16730  0.76530  1.0000
  H   H2        1.0  0.56480  0.66730  0.73470  1.0000
  H   H3        1.0  0.56480  0.83270  0.23470  1.0000
  H   H4        1.0  0.43520  0.33270  0.26530  1.0000
  C   C13       1.0  0.47540  0.27740  0.70490  1.0000
  C   C14       1.0  0.52460  0.77740  0.79510  1.0000
  C   C15       1.0  0.52460  0.72260  0.29510  1.0000
  C   C16       1.0  0.47540  0.22260  0.20490  1.0000
  H   H5        1.0  0.44090  0.27430  0.65760  1.0000
  H   H6        1.0  0.55910  0.77430  0.84240  1.0000
  H   H7        1.0  0.55910  0.72570  0.34240  1.0000
  H   H8        1.0  0.44090  0.22570  0.15760  1.0000
  C   C17       1.0  0.52870  0.34490  0.71030  1.0000
  C   C18       1.0  0.47130  0.84490  0.78970  1.0000
  C   C19       1.0  0.47130  0.65510  0.28970  1.0000
  C   C20       1.0  0.52870  0.15510  0.21030  1.0000
  C   C21       1.0  0.58030  0.35230  0.78390  1.0000
  C   C22       1.0  0.41970  0.85230  0.71610  1.0000
  C   C23       1.0  0.41970  0.64770  0.21610  1.0000
  C   C24       1.0  0.58030  0.14770  0.28390  1.0000
  C   C25       1.0  0.57840  0.28540  0.84870  1.0000
  C   C26       1.0  0.42160  0.78540  0.65130  1.0000
  C   C27       1.0  0.42160  0.71460  0.15130  1.0000
  C   C28       1.0  0.57840  0.21460  0.34870  1.0000
  C   C29       1.0  0.62950  0.29310  0.92190  1.0000
  C   C30       1.0  0.37050  0.79310  0.57810  1.0000
  C   C31       1.0  0.37050  0.70690  0.07810  1.0000
  C   C32       1.0  0.62950  0.20690  0.42190  1.0000
  H   H9        1.0  0.63000  0.24890  0.96380  1.0000
  H   H10       1.0  0.37000  0.74890  0.53620  1.0000
  H   H11       1.0  0.37000  0.75110  0.03620  1.0000
  H   H12       1.0  0.63000  0.25110  0.46380  1.0000
  C   C33       1.0  0.67800  0.36540  0.93100  1.0000
  C   C34       1.0  0.32200  0.86540  0.56900  1.0000
  C   C35       1.0  0.32200  0.63460  0.06900  1.0000
  C   C36       1.0  0.67800  0.13460  0.43100  1.0000
  H   H13       1.0  0.71050  0.37050  0.97980  1.0000
  H   H14       1.0  0.28950  0.87050  0.52020  1.0000
  H   H15       1.0  0.28950  0.62950  0.02020  1.0000
  H   H16       1.0  0.71050  0.12950  0.47980  1.0000
  C   C37       1.0  0.67920  0.43080  0.86870  1.0000
  C   C38       1.0  0.32080  0.93080  0.63130  1.0000
  C   C39       1.0  0.32080  0.56920  0.13130  1.0000
  C   C40       1.0  0.67920  0.06920  0.36870  1.0000
  H   H17       1.0  0.71280  0.47910  0.87610  1.0000
  H   H18       1.0  0.28720  0.97910  0.62390  1.0000
  H   H19       1.0  0.28720  0.52090  0.12390  1.0000
  H   H20       1.0  0.71280  0.02090  0.37610  1.0000
  C   C41       1.0  0.63150  0.42580  0.79580  1.0000
  C   C42       1.0  0.36850  0.92580  0.70420  1.0000
  C   C43       1.0  0.36850  0.57420  0.20420  1.0000
  C   C44       1.0  0.63150  0.07420  0.29580  1.0000
  H   H21       1.0  0.63290  0.47060  0.75460  1.0000
  H   H22       1.0  0.36710  0.97060  0.74540  1.0000
  H   H23       1.0  0.36710  0.52940  0.24540  1.0000
  H   H24       1.0  0.63290  0.02940  0.25460  1.0000
  C   C45       1.0  0.53050  0.40680  0.63500  1.0000
  C   C46       1.0  0.46950  0.90680  0.86500  1.0000
  C   C47       1.0  0.46950  0.59320  0.36500  1.0000
  C   C48       1.0  0.53050  0.09320  0.13500  1.0000
  C   C49       1.0  0.24890  0.15950  0.07710  1.0000
  C   C50       1.0  0.75110  0.65950  0.42290  1.0000
  C   C51       1.0  0.75110  0.84050  0.92290  1.0000
  C   C52       1.0  0.24890  0.34050  0.57710  1.0000
  C   C53       1.0  0.24020  0.23230  0.14140  1.0000
  C   C54       1.0  0.75980  0.73230  0.35860  1.0000
  C   C55       1.0  0.75980  0.76770  0.85860  1.0000
  C   C56       1.0  0.24020  0.26770  0.64140  1.0000
  C   C57       1.0  0.28300  0.22350  0.21680  1.0000
  C   C58       1.0  0.71700  0.72350  0.28320  1.0000
  C   C59       1.0  0.71700  0.77650  0.78320  1.0000
  C   C60       1.0  0.28300  0.27650  0.71680  1.0000
  H   H25       1.0  0.31610  0.17480  0.22430  1.0000
  H   H26       1.0  0.68390  0.67480  0.27570  1.0000
  H   H27       1.0  0.68390  0.82520  0.77570  1.0000
  H   H28       1.0  0.31610  0.32520  0.72430  1.0000
  C   C61       1.0  0.27820  0.28550  0.28240  1.0000
  C   C62       1.0  0.72180  0.78550  0.21760  1.0000
  C   C63       1.0  0.72180  0.71450  0.71760  1.0000
  C   C64       1.0  0.27820  0.21450  0.78240  1.0000
  H   H29       1.0  0.30960  0.27860  0.33180  1.0000
  H   H30       1.0  0.69040  0.77860  0.16820  1.0000
  H   H31       1.0  0.69040  0.72140  0.66820  1.0000
  H   H32       1.0  0.30960  0.22140  0.83180  1.0000
  C   C65       1.0  0.22760  0.35750  0.27570  1.0000
  C   C66       1.0  0.77240  0.85750  0.22430  1.0000
  C   C67       1.0  0.77240  0.64250  0.72430  1.0000
  C   C68       1.0  0.22760  0.14250  0.77570  1.0000
  C   C69       1.0  0.18060  0.36800  0.19860  1.0000
  C   C70       1.0  0.81940  0.86800  0.30140  1.0000
  C   C71       1.0  0.81940  0.63200  0.80140  1.0000
  C   C72       1.0  0.18060  0.13200  0.69860  1.0000
  C   C73       1.0  0.18770  0.30590  0.13090  1.0000
  C   C74       1.0  0.81230  0.80590  0.36910  1.0000
  C   C75       1.0  0.81230  0.69410  0.86910  1.0000
  C   C76       1.0  0.18770  0.19410  0.63090  1.0000
  C   C77       1.0  0.14410  0.32150  0.05280  1.0000
  C   C78       1.0  0.85590  0.82150  0.44720  1.0000
  C   C79       1.0  0.85590  0.67850  0.94720  1.0000
  C   C80       1.0  0.14410  0.17850  0.55280  1.0000
  H   H33       1.0  0.14890  0.28230  0.00740  1.0000
  H   H34       1.0  0.85110  0.78230  0.49260  1.0000
  H   H35       1.0  0.85110  0.71770  0.99260  1.0000
  H   H36       1.0  0.14890  0.21770  0.50740  1.0000
  C   C81       1.0  0.09560  0.39270  0.04380  1.0000
  C   C82       1.0  0.90440  0.89270  0.45620  1.0000
  C   C83       1.0  0.90440  0.60730  0.95620  1.0000
  C   C84       1.0  0.09560  0.10730  0.54380  1.0000
  H   H37       1.0  0.06750  0.40190  0.99250  1.0000
  H   H38       1.0  0.93250  0.90190  0.50750  1.0000
  H   H39       1.0  0.93250  0.59810  0.00750  1.0000
  H   H40       1.0  0.06750  0.09810  0.49250  1.0000
  C   C85       1.0  0.08800  0.45180  0.11080  1.0000
  C   C86       1.0  0.91200  0.95180  0.38920  1.0000
  C   C87       1.0  0.91200  0.54820  0.88920  1.0000
  C   C88       1.0  0.08800  0.04820  0.61080  1.0000
  H   H41       1.0  0.05490  0.50060  0.10370  1.0000
  H   H42       1.0  0.94510  0.00060  0.39630  1.0000
  H   H43       1.0  0.94510  0.49940  0.89630  1.0000
  H   H44       1.0  0.05490  0.99940  0.60370  1.0000
  C   C89       1.0  0.12730  0.44000  0.18570  1.0000
  C   C90       1.0  0.87270  0.94000  0.31430  1.0000
  C   C91       1.0  0.87270  0.56000  0.81430  1.0000
  C   C92       1.0  0.12730  0.06000  0.68570  1.0000
  H   H45       1.0  0.11970  0.47960  0.23000  1.0000
  H   H46       1.0  0.88030  0.97960  0.27000  1.0000
  H   H47       1.0  0.88030  0.52040  0.77000  1.0000
  H   H48       1.0  0.11970  0.02040  0.73000  1.0000
  C   C93       1.0  0.22850  0.41960  0.35210  1.0000
  C   C94       1.0  0.77150  0.91960  0.14790  1.0000
  C   C95       1.0  0.77150  0.58040  0.64790  1.0000
  C   C96       1.0  0.22850  0.08040  0.85210  1.0000
  C   C97       1.0  0.99950  0.12240  0.12010  1.0000
  C   C98       1.0  0.00050  0.62240  0.37990  1.0000
  C   C99       1.0  0.00050  0.87760  0.87990  1.0000
  C   C100      1.0  0.99950  0.37760  0.62010  1.0000
  C   C101      1.0  0.99960  0.20070  0.18030  1.0000
  C   C102      1.0  0.00040  0.70070  0.31970  1.0000
  C   C103      1.0  0.00040  0.79930  0.81970  1.0000
  C   C104      1.0  0.99960  0.29930  0.68030  1.0000
  C   C105      1.0  0.04030  0.19170  0.25790  1.0000
  C   C106      1.0  0.95970  0.69170  0.24210  1.0000
  C   C107      1.0  0.95970  0.80830  0.74210  1.0000
  C   C108      1.0  0.04030  0.30830  0.75790  1.0000
  H   H49       1.0  0.07270  0.14250  0.26750  1.0000
  H   H50       1.0  0.92730  0.64250  0.23250  1.0000
  H   H51       1.0  0.92730  0.85750  0.73250  1.0000
  H   H52       1.0  0.07270  0.35750  0.76750  1.0000
  C   C109      1.0  0.03330  0.25580  0.32200  1.0000
  C   C110      1.0  0.96670  0.75580  0.17800  1.0000
  C   C111      1.0  0.96670  0.74420  0.67800  1.0000
  C   C112      1.0  0.03330  0.24420  0.82200  1.0000
  H   H53       1.0  0.06230  0.24960  0.37320  1.0000
  H   H54       1.0  0.93770  0.74960  0.12680  1.0000
  H   H55       1.0  0.93770  0.75040  0.62680  1.0000
  H   H56       1.0  0.06230  0.25040  0.87320  1.0000
  C   C113      1.0  0.98430  0.32780  0.31040  1.0000
  C   C114      1.0  0.01570  0.82780  0.18960  1.0000
  C   C115      1.0  0.01570  0.67220  0.68960  1.0000
  C   C116      1.0  0.98430  0.17220  0.81040  1.0000
  C   C117      1.0  0.94660  0.34370  0.22910  1.0000
  C   C118      1.0  0.05340  0.84370  0.27090  1.0000
  C   C119      1.0  0.05340  0.65630  0.77090  1.0000
  C   C120      1.0  0.94660  0.15630  0.72910  1.0000
  C   C121      1.0  0.95450  0.27940  0.16360  1.0000
  C   C122      1.0  0.04550  0.77940  0.33640  1.0000
  C   C123      1.0  0.04550  0.72060  0.83640  1.0000
  C   C124      1.0  0.95450  0.22060  0.66360  1.0000
  C   C125      1.0  0.91910  0.29710  0.08150  1.0000
  C   C126      1.0  0.08090  0.79710  0.41850  1.0000
  C   C127      1.0  0.08090  0.70290  0.91850  1.0000
  C   C128      1.0  0.91910  0.20290  0.58150  1.0000
  H   H57       1.0  0.92280  0.25530  0.03800  1.0000
  H   H58       1.0  0.07720  0.75530  0.46200  1.0000
  H   H59       1.0  0.07720  0.74470  0.96200  1.0000
  H   H60       1.0  0.92280  0.24470  0.53800  1.0000
  C   C129      1.0  0.87950  0.37590  0.06710  1.0000
  C   C130      1.0  0.12050  0.87590  0.43290  1.0000
  C   C131      1.0  0.12050  0.62410  0.93290  1.0000
  C   C132      1.0  0.87950  0.12410  0.56710  1.0000
  H   H61       1.0  0.85710  0.38730  0.01320  1.0000
  H   H62       1.0  0.14290  0.88730  0.48680  1.0000
  H   H63       1.0  0.14290  0.61270  0.98680  1.0000
  H   H64       1.0  0.85710  0.11270  0.51320  1.0000
  C   C133      1.0  0.87190  0.43930  0.13090  1.0000
  C   C134      1.0  0.12810  0.93930  0.36910  1.0000
  C   C135      1.0  0.12810  0.56070  0.86910  1.0000
  C   C136      1.0  0.87190  0.06070  0.63090  1.0000
  H   H65       1.0  0.84490  0.49240  0.11920  1.0000
  H   H66       1.0  0.15510  0.99240  0.38080  1.0000
  H   H67       1.0  0.15510  0.50760  0.88080  1.0000
  H   H68       1.0  0.84490  0.00760  0.61920  1.0000
  C   C137      1.0  0.90420  0.42340  0.21070  1.0000
  C   C138      1.0  0.09580  0.92340  0.28930  1.0000
  C   C139      1.0  0.09580  0.57660  0.78930  1.0000
  C   C140      1.0  0.90420  0.07660  0.71070  1.0000
  H   H69       1.0  0.89810  0.46550  0.25340  1.0000
  H   H70       1.0  0.10190  0.96550  0.24660  1.0000
  H   H71       1.0  0.10190  0.53450  0.74660  1.0000
  H   H72       1.0  0.89810  0.03450  0.75340  1.0000
  C   C141      1.0  0.96860  0.38330  0.38550  1.0000
  C   C142      1.0  0.03140  0.88330  0.11450  1.0000
  C   C143      1.0  0.03140  0.61670  0.61450  1.0000
  C   C144      1.0  0.96860  0.11670  0.88550  1.0000
