data_image0
_chemical_formula_structural       Er8Cl4O48C12H4C4H4C16H4C4H4C4H4C4H4C16H4C4H4C16H4C4H4C4H4C4H4C16H4C4H4C16H4C4H4C4H4C4H4C4
_chemical_formula_sum              "Er8 Cl4 O48 C144 H72"
_cell_length_a       17.6322
_cell_length_b       14.7719
_cell_length_c       15.7947
_cell_angle_alpha    90
_cell_angle_beta     94.131
_cell_angle_gamma    90

_space_group_name_H-M_alt    "P 1"
_space_group_IT_number       1

loop_
  _space_group_symop_operation_xyz
  'x, y, z'

loop_
  _atom_site_type_symbol
  _atom_site_label
  _atom_site_symmetry_multiplicity
  _atom_site_fract_x
  _atom_site_fract_y
  _atom_site_fract_z
  _atom_site_occupancy
  Er  Er1       1.0  0.37863  0.02456  0.99612  1.0000
  Er  Er2       1.0  0.62137  0.52456  0.50388  1.0000
  Er  Er3       1.0  0.62137  0.97544  0.00388  1.0000
  Er  Er4       1.0  0.37863  0.47544  0.49612  1.0000
  Er  Er5       1.0  0.11802  0.01160  0.99857  1.0000
  Er  Er6       1.0  0.88197  0.51160  0.50143  1.0000
  Er  Er7       1.0  0.88197  0.98840  0.00142  1.0000
  Er  Er8       1.0  0.11802  0.48840  0.49857  1.0000
  Cl  Cl1       1.0  0.25229  0.91921  0.02652  1.0000
  Cl  Cl2       1.0  0.74771  0.41921  0.47348  1.0000
  Cl  Cl3       1.0  0.74771  0.08079  0.97348  1.0000
  Cl  Cl4       1.0  0.25229  0.58079  0.52652  1.0000
  O   O1        1.0  0.45074  0.11940  0.92300  1.0000
  O   O2        1.0  0.54926  0.61940  0.57700  1.0000
  O   O3        1.0  0.54926  0.88060  0.07700  1.0000
  O   O4        1.0  0.45074  0.38060  0.42300  1.0000
  O   O5        1.0  0.57653  0.10290  0.93266  1.0000
  O   O6        1.0  0.42347  0.60290  0.56734  1.0000
  O   O7        1.0  0.42347  0.89710  0.06734  1.0000
  O   O8        1.0  0.57653  0.39710  0.43266  1.0000
  O   O9        1.0  0.31528  0.12710  0.07309  1.0000
  O   O10       1.0  0.68472  0.62710  0.42691  1.0000
  O   O11       1.0  0.68472  0.87290  0.92691  1.0000
  O   O12       1.0  0.31528  0.37290  0.57309  1.0000
  O   O13       1.0  0.46857  0.42760  0.59691  1.0000
  O   O14       1.0  0.53143  0.92760  0.90309  1.0000
  O   O15       1.0  0.53143  0.57240  0.40309  1.0000
  O   O16       1.0  0.46857  0.07240  0.09691  1.0000
  O   O17       1.0  0.19216  0.13220  0.03231  1.0000
  O   O18       1.0  0.80784  0.63220  0.46769  1.0000
  O   O19       1.0  0.80784  0.86780  0.96769  1.0000
  O   O20       1.0  0.19216  0.36780  0.53231  1.0000
  O   O21       1.0  0.59420  0.43020  0.61193  1.0000
  O   O22       1.0  0.40580  0.93020  0.88807  1.0000
  O   O23       1.0  0.40580  0.56980  0.38807  1.0000
  O   O24       1.0  0.59420  0.06980  0.11193  1.0000
  O   O25       1.0  0.29287  0.42950  0.39110  1.0000
  O   O26       1.0  0.70713  0.92950  0.10890  1.0000
  O   O27       1.0  0.70713  0.57050  0.60890  1.0000
  O   O28       1.0  0.29287  0.07050  0.89110  1.0000
  O   O29       1.0  0.16894  0.45797  0.37083  1.0000
  O   O30       1.0  0.83106  0.95797  0.12917  1.0000
  O   O31       1.0  0.83106  0.54203  0.62917  1.0000
  O   O32       1.0  0.16894  0.04203  0.87083  1.0000
  O   O33       1.0  0.06152  0.08290  0.11017  1.0000
  O   O34       1.0  0.93848  0.58290  0.38983  1.0000
  O   O35       1.0  0.93848  0.91710  0.88983  1.0000
  O   O36       1.0  0.06152  0.41710  0.61017  1.0000
  O   O37       1.0  0.93573  0.09812  0.08619  1.0000
  O   O38       1.0  0.06427  0.59812  0.41381  1.0000
  O   O39       1.0  0.06427  0.90188  0.91381  1.0000
  O   O40       1.0  0.93573  0.40188  0.58619  1.0000
  O   O41       1.0  0.02362  0.40730  0.43571  1.0000
  O   O42       1.0  0.97638  0.90730  0.06429  1.0000
  O   O43       1.0  0.97638  0.59270  0.56429  1.0000
  O   O44       1.0  0.02362  0.09270  0.93571  1.0000
  O   O45       1.0  0.90114  0.40170  0.39822  1.0000
  O   O46       1.0  0.09886  0.90170  0.10178  1.0000
  O   O47       1.0  0.09886  0.59830  0.60178  1.0000
  O   O48       1.0  0.90114  0.09830  0.89822  1.0000
  C   C1        1.0  0.51680  0.13950  0.90420  1.0000
  C   C2        1.0  0.48320  0.63950  0.59580  1.0000
  C   C3        1.0  0.48320  0.86050  0.09580  1.0000
  C   C4        1.0  0.51680  0.36050  0.40420  1.0000
  C   C5        1.0  0.52310  0.21360  0.83950  1.0000
  C   C6        1.0  0.47690  0.71360  0.66050  1.0000
  C   C7        1.0  0.47690  0.78640  0.16050  1.0000
  C   C8        1.0  0.52310  0.28640  0.33950  1.0000
  C   C9        1.0  0.47210  0.21150  0.76900  1.0000
  C   C10       1.0  0.52790  0.71150  0.73100  1.0000
  C   C11       1.0  0.52790  0.78850  0.23100  1.0000
  C   C12       1.0  0.47210  0.28850  0.26900  1.0000
  H   H1        1.0  0.43550  0.16620  0.76410  1.0000
  H   H2        1.0  0.56450  0.66620  0.73590  1.0000
  H   H3        1.0  0.56450  0.83380  0.23590  1.0000
  H   H4        1.0  0.43550  0.33380  0.26410  1.0000
  C   C13       1.0  0.47470  0.27640  0.70480  1.0000
  C   C14       1.0  0.52530  0.77640  0.79520  1.0000
  C   C15       1.0  0.52530  0.72360  0.29520  1.0000
  C   C16       1.0  0.47470  0.22360  0.20480  1.0000
  H   H5        1.0  0.43940  0.27370  0.65810  1.0000
  H   H6        1.0  0.56060  0.77370  0.84190  1.0000
  H   H7        1.0  0.56060  0.72630  0.34190  1.0000
  H   H8        1.0  0.43940  0.22630  0.15810  1.0000
  C   C17       1.0  0.52820  0.34400  0.70930  1.0000
  C   C18       1.0  0.47180  0.84400  0.79070  1.0000
  C   C19       1.0  0.47180  0.65600  0.29070  1.0000
  C   C20       1.0  0.52820  0.15600  0.20930  1.0000
  C   C21       1.0  0.58010  0.35240  0.78310  1.0000
  C   C22       1.0  0.41990  0.85240  0.71690  1.0000
  C   C23       1.0  0.41990  0.64760  0.21690  1.0000
  C   C24       1.0  0.58010  0.14760  0.28310  1.0000
  C   C25       1.0  0.57770  0.28530  0.84830  1.0000
  C   C26       1.0  0.42230  0.78530  0.65170  1.0000
  C   C27       1.0  0.42230  0.71470  0.15170  1.0000
  C   C28       1.0  0.57770  0.21470  0.34830  1.0000
  C   C29       1.0  0.62880  0.29280  0.92120  1.0000
  C   C30       1.0  0.37120  0.79280  0.57880  1.0000
  C   C31       1.0  0.37120  0.70720  0.07880  1.0000
  C   C32       1.0  0.62880  0.20720  0.42120  1.0000
  H   H9        1.0  0.62950  0.24850  0.96310  1.0000
  H   H10       1.0  0.37050  0.74850  0.53690  1.0000
  H   H11       1.0  0.37050  0.75150  0.03690  1.0000
  H   H12       1.0  0.62950  0.25150  0.46310  1.0000
  C   C33       1.0  0.67720  0.36520  0.93020  1.0000
  C   C34       1.0  0.32280  0.86520  0.56980  1.0000
  C   C35       1.0  0.32280  0.63480  0.06980  1.0000
  C   C36       1.0  0.67720  0.13480  0.43020  1.0000
  H   H13       1.0  0.71020  0.36970  0.97870  1.0000
  H   H14       1.0  0.28980  0.86970  0.52130  1.0000
  H   H15       1.0  0.28980  0.63030  0.02130  1.0000
  H   H16       1.0  0.71020  0.13030  0.47870  1.0000
  C   C37       1.0  0.67790  0.43270  0.86750  1.0000
  C   C38       1.0  0.32210  0.93270  0.63250  1.0000
  C   C39       1.0  0.32210  0.56730  0.13250  1.0000
  C   C40       1.0  0.67790  0.06730  0.36750  1.0000
  H   H17       1.0  0.71020  0.48220  0.87520  1.0000
  H   H18       1.0  0.28980  0.98220  0.62480  1.0000
  H   H19       1.0  0.28980  0.51780  0.12480  1.0000
  H   H20       1.0  0.71020  0.01780  0.37520  1.0000
  C   C41       1.0  0.63090  0.42540  0.79510  1.0000
  C   C42       1.0  0.36910  0.92540  0.70490  1.0000
  C   C43       1.0  0.36910  0.57460  0.20490  1.0000
  C   C44       1.0  0.63090  0.07460  0.29510  1.0000
  H   H21       1.0  0.63260  0.46940  0.75310  1.0000
  H   H22       1.0  0.36740  0.96940  0.74690  1.0000
  H   H23       1.0  0.36740  0.53060  0.24690  1.0000
  H   H24       1.0  0.63260  0.03060  0.25310  1.0000
  C   C45       1.0  0.53060  0.40590  0.63440  1.0000
  C   C46       1.0  0.46940  0.90590  0.86560  1.0000
  C   C47       1.0  0.46940  0.59410  0.36560  1.0000
  C   C48       1.0  0.53060  0.09410  0.13440  1.0000
  C   C49       1.0  0.24900  0.15950  0.07730  1.0000
  C   C50       1.0  0.75100  0.65950  0.42270  1.0000
  C   C51       1.0  0.75100  0.84050  0.92270  1.0000
  C   C52       1.0  0.24900  0.34050  0.57730  1.0000
  C   C53       1.0  0.23960  0.23120  0.14230  1.0000
  C   C54       1.0  0.76040  0.73120  0.35770  1.0000
  C   C55       1.0  0.76040  0.76880  0.85770  1.0000
  C   C56       1.0  0.23960  0.26880  0.64230  1.0000
  C   C57       1.0  0.28310  0.22300  0.21760  1.0000
  C   C58       1.0  0.71690  0.72300  0.28240  1.0000
  C   C59       1.0  0.71690  0.77700  0.78240  1.0000
  C   C60       1.0  0.28310  0.27700  0.71760  1.0000
  H   H25       1.0  0.31680  0.17470  0.22510  1.0000
  H   H26       1.0  0.68320  0.67470  0.27490  1.0000
  H   H27       1.0  0.68320  0.82530  0.77490  1.0000
  H   H28       1.0  0.31680  0.32530  0.72510  1.0000
  C   C61       1.0  0.27780  0.28540  0.28290  1.0000
  C   C62       1.0  0.72220  0.78540  0.21710  1.0000
  C   C63       1.0  0.72220  0.71460  0.71710  1.0000
  C   C64       1.0  0.27780  0.21460  0.78290  1.0000
  H   H29       1.0  0.30890  0.27850  0.33260  1.0000
  H   H30       1.0  0.69110  0.77850  0.16740  1.0000
  H   H31       1.0  0.69110  0.72150  0.66740  1.0000
  H   H32       1.0  0.30890  0.22150  0.83260  1.0000
  C   C65       1.0  0.22780  0.35730  0.27590  1.0000
  C   C66       1.0  0.77220  0.85730  0.22410  1.0000
  C   C67       1.0  0.77220  0.64270  0.72410  1.0000
  C   C68       1.0  0.22780  0.14270  0.77590  1.0000
  C   C69       1.0  0.18060  0.36770  0.19890  1.0000
  C   C70       1.0  0.81940  0.86770  0.30110  1.0000
  C   C71       1.0  0.81940  0.63230  0.80110  1.0000
  C   C72       1.0  0.18060  0.13230  0.69890  1.0000
  C   C73       1.0  0.18770  0.30570  0.13120  1.0000
  C   C74       1.0  0.81230  0.80570  0.36880  1.0000
  C   C75       1.0  0.81230  0.69430  0.86880  1.0000
  C   C76       1.0  0.18770  0.19430  0.63120  1.0000
  C   C77       1.0  0.14440  0.32130  0.05300  1.0000
  C   C78       1.0  0.85560  0.82130  0.44700  1.0000
  C   C79       1.0  0.85560  0.67870  0.94700  1.0000
  C   C80       1.0  0.14440  0.17870  0.55300  1.0000
  H   H33       1.0  0.14940  0.28220  0.00760  1.0000
  H   H34       1.0  0.85060  0.78220  0.49240  1.0000
  H   H35       1.0  0.85060  0.71780  0.99240  1.0000
  H   H36       1.0  0.14940  0.21780  0.50760  1.0000
  C   C81       1.0  0.09560  0.39320  0.04400  1.0000
  C   C82       1.0  0.90440  0.89320  0.45600  1.0000
  C   C83       1.0  0.90440  0.60680  0.95600  1.0000
  C   C84       1.0  0.09560  0.10680  0.54400  1.0000
  H   H37       1.0  0.06730  0.40230  0.99270  1.0000
  H   H38       1.0  0.93270  0.90230  0.50730  1.0000
  H   H39       1.0  0.93270  0.59770  0.00730  1.0000
  H   H40       1.0  0.06730  0.09770  0.49270  1.0000
  C   C85       1.0  0.08780  0.45270  0.11120  1.0000
  C   C86       1.0  0.91220  0.95270  0.38880  1.0000
  C   C87       1.0  0.91220  0.54730  0.88880  1.0000
  C   C88       1.0  0.08780  0.04730  0.61120  1.0000
  H   H41       1.0  0.05440  0.50140  0.10440  1.0000
  H   H42       1.0  0.94560  0.00140  0.39560  1.0000
  H   H43       1.0  0.94560  0.49860  0.89560  1.0000
  H   H44       1.0  0.05440  0.99860  0.60440  1.0000
  C   C89       1.0  0.12850  0.44050  0.18660  1.0000
  C   C90       1.0  0.87150  0.94050  0.31340  1.0000
  C   C91       1.0  0.87150  0.55950  0.81340  1.0000
  C   C92       1.0  0.12850  0.05950  0.68660  1.0000
  H   H45       1.0  0.12220  0.48060  0.23090  1.0000
  H   H46       1.0  0.87780  0.98060  0.26910  1.0000
  H   H47       1.0  0.87780  0.51940  0.76910  1.0000
  H   H48       1.0  0.12220  0.01940  0.73090  1.0000
  C   C93       1.0  0.22930  0.42050  0.35170  1.0000
  C   C94       1.0  0.77070  0.92050  0.14830  1.0000
  C   C95       1.0  0.77070  0.57950  0.64830  1.0000
  C   C96       1.0  0.22930  0.07950  0.85170  1.0000
  C   C97       1.0  0.99940  0.12150  0.12000  1.0000
  C   C98       1.0  0.00060  0.62150  0.38000  1.0000
  C   C99       1.0  0.00060  0.87850  0.88000  1.0000
  C   C100      1.0  0.99940  0.37850  0.62000  1.0000
  C   C101      1.0  0.99900  0.19950  0.18110  1.0000
  C   C102      1.0  0.00100  0.69950  0.31890  1.0000
  C   C103      1.0  0.00100  0.80050  0.81890  1.0000
  C   C104      1.0  0.99900  0.30050  0.68110  1.0000
  C   C105      1.0  0.04070  0.19060  0.25800  1.0000
  C   C106      1.0  0.95930  0.69060  0.24200  1.0000
  C   C107      1.0  0.95930  0.80940  0.74200  1.0000
  C   C108      1.0  0.04070  0.30940  0.75800  1.0000
  H   H49       1.0  0.07340  0.14160  0.26710  1.0000
  H   H50       1.0  0.92660  0.64160  0.23290  1.0000
  H   H51       1.0  0.92660  0.85840  0.73290  1.0000
  H   H52       1.0  0.07340  0.35840  0.76710  1.0000
  C   C109      1.0  0.03400  0.25480  0.32230  1.0000
  C   C110      1.0  0.96600  0.75480  0.17770  1.0000
  C   C111      1.0  0.96600  0.74520  0.67770  1.0000
  C   C112      1.0  0.03400  0.24520  0.82230  1.0000
  H   H53       1.0  0.06350  0.24870  0.37320  1.0000
  H   H54       1.0  0.93650  0.74870  0.12680  1.0000
  H   H55       1.0  0.93650  0.75130  0.62680  1.0000
  H   H56       1.0  0.06350  0.25130  0.87320  1.0000
  C   C113      1.0  0.98450  0.32680  0.31140  1.0000
  C   C114      1.0  0.01550  0.82680  0.18860  1.0000
  C   C115      1.0  0.01550  0.67320  0.68860  1.0000
  C   C116      1.0  0.98450  0.17320  0.81140  1.0000
  C   C117      1.0  0.94670  0.34330  0.23010  1.0000
  C   C118      1.0  0.05330  0.84330  0.26990  1.0000
  C   C119      1.0  0.05330  0.65670  0.76990  1.0000
  C   C120      1.0  0.94670  0.15670  0.73010  1.0000
  C   C121      1.0  0.95450  0.27820  0.16470  1.0000
  C   C122      1.0  0.04550  0.77820  0.33530  1.0000
  C   C123      1.0  0.04550  0.72180  0.83530  1.0000
  C   C124      1.0  0.95450  0.22180  0.66470  1.0000
  C   C125      1.0  0.91900  0.29650  0.08230  1.0000
  C   C126      1.0  0.08100  0.79650  0.41770  1.0000
  C   C127      1.0  0.08100  0.70350  0.91770  1.0000
  C   C128      1.0  0.91900  0.20350  0.58230  1.0000
  H   H57       1.0  0.92200  0.25440  0.03890  1.0000
  H   H58       1.0  0.07800  0.75440  0.46110  1.0000
  H   H59       1.0  0.07800  0.74560  0.96110  1.0000
  H   H60       1.0  0.92200  0.24560  0.53890  1.0000
  C   C129      1.0  0.88090  0.37570  0.06730  1.0000
  C   C130      1.0  0.11910  0.87570  0.43270  1.0000
  C   C131      1.0  0.11910  0.62430  0.93270  1.0000
  C   C132      1.0  0.88090  0.12430  0.56730  1.0000
  H   H61       1.0  0.85990  0.38800  0.01280  1.0000
  H   H62       1.0  0.14010  0.88800  0.48720  1.0000
  H   H63       1.0  0.14010  0.61200  0.98720  1.0000
  H   H64       1.0  0.85990  0.11200  0.51280  1.0000
  C   C133      1.0  0.87240  0.43900  0.13180  1.0000
  C   C134      1.0  0.12760  0.93900  0.36820  1.0000
  C   C135      1.0  0.12760  0.56100  0.86820  1.0000
  C   C136      1.0  0.87240  0.06100  0.63180  1.0000
  H   H65       1.0  0.84490  0.49190  0.12040  1.0000
  H   H66       1.0  0.15510  0.99190  0.37960  1.0000
  H   H67       1.0  0.15510  0.50810  0.87960  1.0000
  H   H68       1.0  0.84490  0.00810  0.62040  1.0000
  C   C137      1.0  0.90460  0.42310  0.21150  1.0000
  C   C138      1.0  0.09540  0.92310  0.28850  1.0000
  C   C139      1.0  0.09540  0.57690  0.78850  1.0000
  C   C140      1.0  0.90460  0.07690  0.71150  1.0000
  H   H69       1.0  0.89870  0.46530  0.25420  1.0000
  H   H70       1.0  0.10130  0.96530  0.24580  1.0000
  H   H71       1.0  0.10130  0.53470  0.74580  1.0000
  H   H72       1.0  0.89870  0.03470  0.75420  1.0000
  C   C141      1.0  0.96910  0.38280  0.38660  1.0000
  C   C142      1.0  0.03090  0.88280  0.11340  1.0000
  C   C143      1.0  0.03090  0.61720  0.61340  1.0000
  C   C144      1.0  0.96910  0.11720  0.88660  1.0000
