data_image0
_chemical_formula_structural       Ru24Fe8S48O104H16O8H16C24H8C8H8C8H8C8H8C32H8C8H8C8H8C8H8C32H8C8H8C8H8C8H8C32H8C8H8C8H8C8H8C32H8C8H8C8H8C8H8C24H8C8H8C8H8C8H8C16O8C8H16C8H16O8H8
_chemical_formula_sum              "Ru24 Fe8 S48 O128 H264 C352"
_cell_length_a       21.1373
_cell_length_b       26.3031
_cell_length_c       24.5471
_cell_angle_alpha    90
_cell_angle_beta     90
_cell_angle_gamma    90

_space_group_name_H-M_alt    "P 1"
_space_group_IT_number       1

loop_
  _space_group_symop_operation_xyz
  'x, y, z'

loop_
  _atom_site_type_symbol
  _atom_site_label
  _atom_site_symmetry_multiplicity
  _atom_site_fract_x
  _atom_site_fract_y
  _atom_site_fract_z
  _atom_site_occupancy
  Ru  Ru1       1.0  0.25632  0.47368  0.14300  1.0000
  Ru  Ru2       1.0  0.24368  0.02632  0.64299  1.0000
  Ru  Ru3       1.0  0.74368  0.47368  0.35701  1.0000
  Ru  Ru4       1.0  0.75632  0.02632  0.85701  1.0000
  Ru  Ru5       1.0  0.74368  0.52632  0.85701  1.0000
  Ru  Ru6       1.0  0.75632  0.97368  0.35701  1.0000
  Ru  Ru7       1.0  0.25632  0.52632  0.64299  1.0000
  Ru  Ru8       1.0  0.24368  0.97368  0.14300  1.0000
  Ru  Ru9       1.0  0.25408  0.57680  0.12921  1.0000
  Ru  Ru10      1.0  0.24592  0.92320  0.62921  1.0000
  Ru  Ru11      1.0  0.74592  0.57680  0.37079  1.0000
  Ru  Ru12      1.0  0.75408  0.92320  0.87079  1.0000
  Ru  Ru13      1.0  0.74592  0.42320  0.87079  1.0000
  Ru  Ru14      1.0  0.75408  0.07680  0.37079  1.0000
  Ru  Ru15      1.0  0.25408  0.42320  0.62921  1.0000
  Ru  Ru16      1.0  0.24592  0.07680  0.12921  1.0000
  Ru  Ru17      1.0  0.25018  0.68070  0.11312  1.0000
  Ru  Ru18      1.0  0.24982  0.81930  0.61312  1.0000
  Ru  Ru19      1.0  0.74982  0.68070  0.38688  1.0000
  Ru  Ru20      1.0  0.75018  0.81930  0.88688  1.0000
  Ru  Ru21      1.0  0.74982  0.31930  0.88688  1.0000
  Ru  Ru22      1.0  0.75018  0.18070  0.38688  1.0000
  Ru  Ru23      1.0  0.25018  0.31930  0.61312  1.0000
  Ru  Ru24      1.0  0.24982  0.18070  0.11312  1.0000
  Fe  Fe1       1.0  0.17213  0.32809  0.12179  1.0000
  Fe  Fe2       1.0  0.32787  0.17191  0.62179  1.0000
  Fe  Fe3       1.0  0.82787  0.32809  0.37821  1.0000
  Fe  Fe4       1.0  0.67213  0.17191  0.87821  1.0000
  Fe  Fe5       1.0  0.82787  0.67191  0.87821  1.0000
  Fe  Fe6       1.0  0.67213  0.82809  0.37821  1.0000
  Fe  Fe7       1.0  0.17213  0.67191  0.62179  1.0000
  Fe  Fe8       1.0  0.32787  0.82809  0.12179  1.0000
  S   S1        1.0  0.33361  0.52642  0.17466  1.0000
  S   S2        1.0  0.16639  0.97358  0.67466  1.0000
  S   S3        1.0  0.66639  0.52642  0.32534  1.0000
  S   S4        1.0  0.83361  0.97358  0.82534  1.0000
  S   S5        1.0  0.66639  0.47358  0.82534  1.0000
  S   S6        1.0  0.83361  0.02642  0.32534  1.0000
  S   S7        1.0  0.33361  0.47358  0.67466  1.0000
  S   S8        1.0  0.16639  0.02642  0.17466  1.0000
  S   S9        1.0  0.25057  0.51266  0.06103  1.0000
  S   S10       1.0  0.24943  0.98734  0.56103  1.0000
  S   S11       1.0  0.74943  0.51266  0.43897  1.0000
  S   S12       1.0  0.75057  0.98734  0.93897  1.0000
  S   S13       1.0  0.74943  0.48734  0.93897  1.0000
  S   S14       1.0  0.75057  0.01266  0.43897  1.0000
  S   S15       1.0  0.25057  0.48734  0.56103  1.0000
  S   S16       1.0  0.24943  0.01266  0.06103  1.0000
  S   S17       1.0  0.17880  0.52489  0.17774  1.0000
  S   S18       1.0  0.32120  0.97511  0.67774  1.0000
  S   S19       1.0  0.82120  0.52489  0.32226  1.0000
  S   S20       1.0  0.67880  0.97511  0.82226  1.0000
  S   S21       1.0  0.82120  0.47511  0.82226  1.0000
  S   S22       1.0  0.67880  0.02489  0.32226  1.0000
  S   S23       1.0  0.17880  0.47511  0.67774  1.0000
  S   S24       1.0  0.32120  0.02489  0.17774  1.0000
  S   S25       1.0  0.17432  0.62614  0.08462  1.0000
  S   S26       1.0  0.32568  0.87386  0.58462  1.0000
  S   S27       1.0  0.82568  0.62614  0.41538  1.0000
  S   S28       1.0  0.67432  0.87386  0.91538  1.0000
  S   S29       1.0  0.82568  0.37386  0.91538  1.0000
  S   S30       1.0  0.67432  0.12614  0.41538  1.0000
  S   S31       1.0  0.17432  0.37386  0.58462  1.0000
  S   S32       1.0  0.32568  0.12614  0.08462  1.0000
  S   S33       1.0  0.32792  0.62854  0.08084  1.0000
  S   S34       1.0  0.17208  0.87146  0.58084  1.0000
  S   S35       1.0  0.67208  0.62854  0.41916  1.0000
  S   S36       1.0  0.82792  0.87146  0.91916  1.0000
  S   S37       1.0  0.67208  0.37146  0.91916  1.0000
  S   S38       1.0  0.82792  0.12854  0.41916  1.0000
  S   S39       1.0  0.32792  0.37146  0.58084  1.0000
  S   S40       1.0  0.17208  0.12854  0.08084  1.0000
  S   S41       1.0  0.25734  0.64250  0.19636  1.0000
  S   S42       1.0  0.24266  0.85750  0.69636  1.0000
  S   S43       1.0  0.74266  0.64250  0.30364  1.0000
  S   S44       1.0  0.75734  0.85750  0.80364  1.0000
  S   S45       1.0  0.74266  0.35750  0.80364  1.0000
  S   S46       1.0  0.75734  0.14250  0.30364  1.0000
  S   S47       1.0  0.25734  0.35750  0.69636  1.0000
  S   S48       1.0  0.24266  0.14250  0.19636  1.0000
  O   O1        1.0  0.25977  0.42984  0.21450  1.0000
  O   O2        1.0  0.24023  0.07016  0.71450  1.0000
  O   O3        1.0  0.74023  0.42984  0.28550  1.0000
  O   O4        1.0  0.75977  0.07016  0.78550  1.0000
  O   O5        1.0  0.74023  0.57016  0.78550  1.0000
  O   O6        1.0  0.75977  0.92984  0.28550  1.0000
  O   O7        1.0  0.25977  0.57016  0.71450  1.0000
  O   O8        1.0  0.24023  0.92984  0.21450  1.0000
  O   O9        1.0  0.28650  0.40496  0.29707  1.0000
  O   O10       1.0  0.21350  0.09504  0.79707  1.0000
  O   O11       1.0  0.71350  0.40496  0.20293  1.0000
  O   O12       1.0  0.78650  0.09504  0.70293  1.0000
  O   O13       1.0  0.71350  0.59504  0.70293  1.0000
  O   O14       1.0  0.78650  0.90496  0.20293  1.0000
  O   O15       1.0  0.28650  0.59504  0.79707  1.0000
  O   O16       1.0  0.21350  0.90496  0.29707  1.0000
  O   O17       1.0  0.32402  0.42276  0.11328  1.0000
  O   O18       1.0  0.17598  0.07724  0.61328  1.0000
  O   O19       1.0  0.67598  0.42276  0.38672  1.0000
  O   O20       1.0  0.82402  0.07724  0.88672  1.0000
  O   O21       1.0  0.67598  0.57724  0.88672  1.0000
  O   O22       1.0  0.82402  0.92276  0.38672  1.0000
  O   O23       1.0  0.32402  0.57724  0.61328  1.0000
  O   O24       1.0  0.17598  0.92276  0.11328  1.0000
  O   O25       1.0  0.42037  0.40382  0.08663  1.0000
  O   O26       1.0  0.07963  0.09618  0.58663  1.0000
  O   O27       1.0  0.57963  0.40382  0.41337  1.0000
  O   O28       1.0  0.92037  0.09618  0.91337  1.0000
  O   O29       1.0  0.57963  0.59618  0.91337  1.0000
  O   O30       1.0  0.92037  0.90382  0.41337  1.0000
  O   O31       1.0  0.42037  0.59618  0.58663  1.0000
  O   O32       1.0  0.07963  0.90382  0.08663  1.0000
  O   O33       1.0  0.19012  0.42009  0.11692  1.0000
  O   O34       1.0  0.30988  0.07991  0.61692  1.0000
  O   O35       1.0  0.80988  0.42009  0.38308  1.0000
  O   O36       1.0  0.69012  0.07991  0.88308  1.0000
  O   O37       1.0  0.80988  0.57991  0.88308  1.0000
  O   O38       1.0  0.69012  0.92009  0.38308  1.0000
  O   O39       1.0  0.19012  0.57991  0.61692  1.0000
  O   O40       1.0  0.30988  0.92009  0.11692  1.0000
  O   O41       1.0  0.09966  0.38307  0.10409  1.0000
  O   O42       1.0  0.40034  0.11693  0.60409  1.0000
  O   O43       1.0  0.90034  0.38307  0.39591  1.0000
  O   O44       1.0  0.59966  0.11693  0.89591  1.0000
  O   O45       1.0  0.90034  0.61693  0.89591  1.0000
  O   O46       1.0  0.59966  0.88307  0.39591  1.0000
  O   O47       1.0  0.09966  0.61693  0.60409  1.0000
  O   O48       1.0  0.40034  0.88307  0.10409  1.0000
  O   O49       1.0  0.24703  0.72020  0.03904  1.0000
  O   O50       1.0  0.25297  0.77980  0.53904  1.0000
  O   O51       1.0  0.75297  0.72020  0.46096  1.0000
  O   O52       1.0  0.74703  0.77980  0.96096  1.0000
  O   O53       1.0  0.75297  0.27980  0.96096  1.0000
  O   O54       1.0  0.74703  0.22020  0.46096  1.0000
  O   O55       1.0  0.24703  0.27980  0.53904  1.0000
  O   O56       1.0  0.25297  0.22020  0.03904  1.0000
  O   O57       1.0  0.24875  0.73569  0.95187  1.0000
  O   O58       1.0  0.25125  0.76431  0.45187  1.0000
  O   O59       1.0  0.75125  0.73569  0.54813  1.0000
  O   O60       1.0  0.74875  0.76431  0.04813  1.0000
  O   O61       1.0  0.75125  0.26431  0.04813  1.0000
  O   O62       1.0  0.74875  0.23569  0.54813  1.0000
  O   O63       1.0  0.24875  0.26431  0.45187  1.0000
  O   O64       1.0  0.25125  0.23569  0.95187  1.0000
  O   O65       1.0  0.31518  0.73745  0.13443  1.0000
  O   O66       1.0  0.18482  0.76255  0.63443  1.0000
  O   O67       1.0  0.68482  0.73745  0.36557  1.0000
  O   O68       1.0  0.81518  0.76255  0.86557  1.0000
  O   O69       1.0  0.68482  0.26255  0.86557  1.0000
  O   O70       1.0  0.81518  0.23745  0.36557  1.0000
  O   O71       1.0  0.31518  0.26255  0.63443  1.0000
  O   O72       1.0  0.18482  0.23745  0.13443  1.0000
  O   O73       1.0  0.40496  0.77742  0.14057  1.0000
  O   O74       1.0  0.09504  0.72258  0.64057  1.0000
  O   O75       1.0  0.59504  0.77742  0.35943  1.0000
  O   O76       1.0  0.90496  0.72258  0.85943  1.0000
  O   O77       1.0  0.59504  0.22258  0.85943  1.0000
  O   O78       1.0  0.90496  0.27742  0.35943  1.0000
  O   O79       1.0  0.40496  0.22258  0.64057  1.0000
  O   O80       1.0  0.09504  0.27742  0.14057  1.0000
  O   O81       1.0  0.18406  0.73340  0.14237  1.0000
  O   O82       1.0  0.31594  0.76660  0.64237  1.0000
  O   O83       1.0  0.81594  0.73340  0.35763  1.0000
  O   O84       1.0  0.68406  0.76660  0.85763  1.0000
  O   O85       1.0  0.81594  0.26660  0.85763  1.0000
  O   O86       1.0  0.68406  0.23340  0.35763  1.0000
  O   O87       1.0  0.18406  0.26660  0.64237  1.0000
  O   O88       1.0  0.31594  0.23340  0.14237  1.0000
  O   O89       1.0  0.12773  0.77658  0.20159  1.0000
  O   O90       1.0  0.37227  0.72342  0.70159  1.0000
  O   O91       1.0  0.87227  0.77658  0.29841  1.0000
  O   O92       1.0  0.62773  0.72342  0.79841  1.0000
  O   O93       1.0  0.87227  0.22342  0.79841  1.0000
  O   O94       1.0  0.62773  0.27658  0.29841  1.0000
  O   O95       1.0  0.12773  0.22342  0.70159  1.0000
  O   O96       1.0  0.37227  0.27658  0.20159  1.0000
  O   O97       1.0  0.17694  0.35008  0.20560  1.0000
  O   O98       1.0  0.32306  0.14992  0.70560  1.0000
  O   O99       1.0  0.82306  0.35008  0.29440  1.0000
  O   O100      1.0  0.67694  0.14992  0.79440  1.0000
  O   O101      1.0  0.82306  0.64992  0.79440  1.0000
  O   O102      1.0  0.67694  0.85008  0.29440  1.0000
  O   O103      1.0  0.17694  0.64992  0.70560  1.0000
  O   O104      1.0  0.32306  0.85008  0.20560  1.0000
  H   H1        1.0  0.20160  0.37500  0.20890  1.0000
  H   H2        1.0  0.29840  0.12500  0.70890  1.0000
  H   H3        1.0  0.79840  0.37500  0.29110  1.0000
  H   H4        1.0  0.70160  0.12500  0.79110  1.0000
  H   H5        1.0  0.79840  0.62500  0.79110  1.0000
  H   H6        1.0  0.70160  0.87500  0.29110  1.0000
  H   H7        1.0  0.20160  0.62500  0.70890  1.0000
  H   H8        1.0  0.29840  0.87500  0.20890  1.0000
  H   H9        1.0  0.19060  0.32500  0.22400  1.0000
  H   H10       1.0  0.30940  0.17500  0.72400  1.0000
  H   H11       1.0  0.80940  0.32500  0.27600  1.0000
  H   H12       1.0  0.69060  0.17500  0.77600  1.0000
  H   H13       1.0  0.80940  0.67500  0.77600  1.0000
  H   H14       1.0  0.69060  0.82500  0.27600  1.0000
  H   H15       1.0  0.19060  0.67500  0.72400  1.0000
  H   H16       1.0  0.30940  0.82500  0.22400  1.0000
  O   O105      1.0  0.26967  0.32821  0.11623  1.0000
  O   O106      1.0  0.23033  0.17179  0.61623  1.0000
  O   O107      1.0  0.73033  0.32821  0.38377  1.0000
  O   O108      1.0  0.76967  0.17179  0.88377  1.0000
  O   O109      1.0  0.73033  0.67179  0.88377  1.0000
  O   O110      1.0  0.76967  0.82821  0.38377  1.0000
  O   O111      1.0  0.26967  0.67179  0.61623  1.0000
  O   O112      1.0  0.23033  0.82821  0.11623  1.0000
  H   H17       1.0  0.28430  0.30310  0.13320  1.0000
  H   H18       1.0  0.21570  0.19690  0.63320  1.0000
  H   H19       1.0  0.71570  0.30310  0.36680  1.0000
  H   H20       1.0  0.78430  0.19690  0.86680  1.0000
  H   H21       1.0  0.71570  0.69690  0.86680  1.0000
  H   H22       1.0  0.78430  0.80310  0.36680  1.0000
  H   H23       1.0  0.28430  0.69690  0.63320  1.0000
  H   H24       1.0  0.21570  0.80310  0.13320  1.0000
  H   H25       1.0  0.28630  0.35560  0.12550  1.0000
  H   H26       1.0  0.21370  0.14440  0.62550  1.0000
  H   H27       1.0  0.71370  0.35560  0.37450  1.0000
  H   H28       1.0  0.78630  0.14440  0.87450  1.0000
  H   H29       1.0  0.71370  0.64440  0.87450  1.0000
  H   H30       1.0  0.78630  0.85560  0.37450  1.0000
  H   H31       1.0  0.28630  0.64440  0.62550  1.0000
  H   H32       1.0  0.21370  0.85560  0.12550  1.0000
  C   C1        1.0  0.32430  0.53020  0.24670  1.0000
  C   C2        1.0  0.17570  0.96980  0.74670  1.0000
  C   C3        1.0  0.67570  0.53020  0.25330  1.0000
  C   C4        1.0  0.82430  0.96980  0.75330  1.0000
  C   C5        1.0  0.67570  0.46980  0.75330  1.0000
  C   C6        1.0  0.82430  0.03020  0.25330  1.0000
  C   C7        1.0  0.32430  0.46980  0.74670  1.0000
  C   C8        1.0  0.17570  0.03020  0.24670  1.0000
  C   C9        1.0  0.29860  0.49210  0.27980  1.0000
  C   C10       1.0  0.20140  0.00790  0.77980  1.0000
  C   C11       1.0  0.70140  0.49210  0.22020  1.0000
  C   C12       1.0  0.79860  0.00790  0.72020  1.0000
  C   C13       1.0  0.70140  0.50790  0.72020  1.0000
  C   C14       1.0  0.79860  0.99210  0.22020  1.0000
  C   C15       1.0  0.29860  0.50790  0.77980  1.0000
  C   C16       1.0  0.20140  0.99210  0.27980  1.0000
  C   C17       1.0  0.29300  0.50140  0.33610  1.0000
  C   C18       1.0  0.20700  0.99860  0.83610  1.0000
  C   C19       1.0  0.70700  0.50140  0.16390  1.0000
  C   C20       1.0  0.79300  0.99860  0.66390  1.0000
  C   C21       1.0  0.70700  0.49860  0.66390  1.0000
  C   C22       1.0  0.79300  0.00140  0.16390  1.0000
  C   C23       1.0  0.29300  0.49860  0.83610  1.0000
  C   C24       1.0  0.20700  0.00140  0.33610  1.0000
  H   H33       1.0  0.27520  0.47590  0.35880  1.0000
  H   H34       1.0  0.22480  0.02410  0.85880  1.0000
  H   H35       1.0  0.72480  0.47590  0.14120  1.0000
  H   H36       1.0  0.77520  0.02410  0.64120  1.0000
  H   H37       1.0  0.72480  0.52410  0.64120  1.0000
  H   H38       1.0  0.77520  0.97590  0.14120  1.0000
  H   H39       1.0  0.27520  0.52410  0.85880  1.0000
  H   H40       1.0  0.22480  0.97590  0.35880  1.0000
  C   C25       1.0  0.31250  0.54640  0.35920  1.0000
  C   C26       1.0  0.18750  0.95360  0.85920  1.0000
  C   C27       1.0  0.68750  0.54640  0.14080  1.0000
  C   C28       1.0  0.81250  0.95360  0.64080  1.0000
  C   C29       1.0  0.68750  0.45360  0.64080  1.0000
  C   C30       1.0  0.81250  0.04640  0.14080  1.0000
  C   C31       1.0  0.31250  0.45360  0.85920  1.0000
  C   C32       1.0  0.18750  0.04640  0.35920  1.0000
  H   H41       1.0  0.30620  0.55260  0.39690  1.0000
  H   H42       1.0  0.19380  0.94740  0.89690  1.0000
  H   H43       1.0  0.69380  0.55260  0.10310  1.0000
  H   H44       1.0  0.80620  0.94740  0.60310  1.0000
  H   H45       1.0  0.69380  0.44740  0.60310  1.0000
  H   H46       1.0  0.80620  0.05260  0.10310  1.0000
  H   H47       1.0  0.30620  0.44740  0.89690  1.0000
  H   H48       1.0  0.19380  0.05260  0.39690  1.0000
  C   C33       1.0  0.34160  0.58300  0.32660  1.0000
  C   C34       1.0  0.15840  0.91700  0.82660  1.0000
  C   C35       1.0  0.65840  0.58300  0.17340  1.0000
  C   C36       1.0  0.84160  0.91700  0.67340  1.0000
  C   C37       1.0  0.65840  0.41700  0.67340  1.0000
  C   C38       1.0  0.84160  0.08300  0.17340  1.0000
  C   C39       1.0  0.34160  0.41700  0.82660  1.0000
  C   C40       1.0  0.15840  0.08300  0.32660  1.0000
  H   H49       1.0  0.35700  0.61360  0.34240  1.0000
  H   H50       1.0  0.14300  0.88640  0.84240  1.0000
  H   H51       1.0  0.64300  0.61360  0.15760  1.0000
  H   H52       1.0  0.85700  0.88640  0.65760  1.0000
  H   H53       1.0  0.64300  0.38640  0.65760  1.0000
  H   H54       1.0  0.85700  0.11360  0.15760  1.0000
  H   H55       1.0  0.35700  0.38640  0.84240  1.0000
  H   H56       1.0  0.14300  0.11360  0.34240  1.0000
  C   C41       1.0  0.34820  0.57450  0.27100  1.0000
  C   C42       1.0  0.15180  0.92550  0.77100  1.0000
  C   C43       1.0  0.65180  0.57450  0.22900  1.0000
  C   C44       1.0  0.84820  0.92550  0.72900  1.0000
  C   C45       1.0  0.65180  0.42550  0.72900  1.0000
  C   C46       1.0  0.84820  0.07450  0.22900  1.0000
  C   C47       1.0  0.34820  0.42550  0.77100  1.0000
  C   C48       1.0  0.15180  0.07450  0.27100  1.0000
  H   H57       1.0  0.36930  0.59900  0.24920  1.0000
  H   H58       1.0  0.13070  0.90100  0.74920  1.0000
  H   H59       1.0  0.63070  0.59900  0.25080  1.0000
  H   H60       1.0  0.86930  0.90100  0.75080  1.0000
  H   H61       1.0  0.63070  0.40100  0.75080  1.0000
  H   H62       1.0  0.86930  0.09900  0.25080  1.0000
  H   H63       1.0  0.36930  0.40100  0.74920  1.0000
  H   H64       1.0  0.13070  0.09900  0.24920  1.0000
  C   C49       1.0  0.28070  0.43911  0.26200  1.0000
  C   C50       1.0  0.21930  0.06089  0.76200  1.0000
  C   C51       1.0  0.71930  0.43911  0.23800  1.0000
  C   C52       1.0  0.78070  0.06089  0.73800  1.0000
  C   C53       1.0  0.71930  0.56089  0.73800  1.0000
  C   C54       1.0  0.78070  0.93911  0.23800  1.0000
  C   C55       1.0  0.28070  0.56089  0.76200  1.0000
  C   C56       1.0  0.21930  0.93911  0.26200  1.0000
  C   C57       1.0  0.32350  0.50583  0.02620  1.0000
  C   C58       1.0  0.17650  0.99417  0.52620  1.0000
  C   C59       1.0  0.67650  0.50583  0.47380  1.0000
  C   C60       1.0  0.82350  0.99417  0.97380  1.0000
  C   C61       1.0  0.67650  0.49417  0.97380  1.0000
  C   C62       1.0  0.82350  0.00583  0.47380  1.0000
  C   C63       1.0  0.32350  0.49417  0.52620  1.0000
  C   C64       1.0  0.17650  0.00583  0.02620  1.0000
  C   C65       1.0  0.37140  0.47000  0.03770  1.0000
  C   C66       1.0  0.12860  0.03000  0.53770  1.0000
  C   C67       1.0  0.62860  0.47000  0.46230  1.0000
  C   C68       1.0  0.87140  0.03000  0.96230  1.0000
  C   C69       1.0  0.62860  0.53000  0.96230  1.0000
  C   C70       1.0  0.87140  0.97000  0.46230  1.0000
  C   C71       1.0  0.37140  0.53000  0.53770  1.0000
  C   C72       1.0  0.12860  0.97000  0.03770  1.0000
  C   C73       1.0  0.42400  0.46910  0.00250  1.0000
  C   C74       1.0  0.07600  0.03090  0.50250  1.0000
  C   C75       1.0  0.57600  0.46910  0.49750  1.0000
  C   C76       1.0  0.92400  0.03090  0.99750  1.0000
  C   C77       1.0  0.57600  0.53090  0.99750  1.0000
  C   C78       1.0  0.92400  0.96910  0.49750  1.0000
  C   C79       1.0  0.42400  0.53090  0.50250  1.0000
  C   C80       1.0  0.07600  0.96910  0.00250  1.0000
  H   H65       1.0  0.45680  0.44520  0.00920  1.0000
  H   H66       1.0  0.04320  0.05480  0.50920  1.0000
  H   H67       1.0  0.54320  0.44520  0.49080  1.0000
  H   H68       1.0  0.95680  0.05480  0.99080  1.0000
  H   H69       1.0  0.54320  0.55480  0.99080  1.0000
  H   H70       1.0  0.95680  0.94520  0.49080  1.0000
  H   H71       1.0  0.45680  0.55480  0.50920  1.0000
  H   H72       1.0  0.04320  0.94520  0.00920  1.0000
  C   C81       1.0  0.42940  0.50150  0.95890  1.0000
  C   C82       1.0  0.07060  0.99850  0.45890  1.0000
  C   C83       1.0  0.57060  0.50150  0.54110  1.0000
  C   C84       1.0  0.92940  0.99850  0.04110  1.0000
  C   C85       1.0  0.57060  0.49850  0.04110  1.0000
  C   C86       1.0  0.92940  0.00150  0.54110  1.0000
  C   C87       1.0  0.42940  0.49850  0.45890  1.0000
  C   C88       1.0  0.07060  0.00150  0.95890  1.0000
  H   H73       1.0  0.46550  0.49970  0.93600  1.0000
  H   H74       1.0  0.03450  0.00030  0.43600  1.0000
  H   H75       1.0  0.53450  0.49970  0.56400  1.0000
  H   H76       1.0  0.96550  0.00030  0.06400  1.0000
  H   H77       1.0  0.53450  0.50030  0.06400  1.0000
  H   H78       1.0  0.96550  0.99970  0.56400  1.0000
  H   H79       1.0  0.46550  0.50030  0.43600  1.0000
  H   H80       1.0  0.03450  0.99970  0.93600  1.0000
  C   C89       1.0  0.38240  0.53660  0.94840  1.0000
  C   C90       1.0  0.11760  0.96340  0.44840  1.0000
  C   C91       1.0  0.61760  0.53660  0.55160  1.0000
  C   C92       1.0  0.88240  0.96340  0.05160  1.0000
  C   C93       1.0  0.61760  0.46340  0.05160  1.0000
  C   C94       1.0  0.88240  0.03660  0.55160  1.0000
  C   C95       1.0  0.38240  0.46340  0.44840  1.0000
  C   C96       1.0  0.11760  0.03660  0.94840  1.0000
  H   H81       1.0  0.38630  0.55940  0.91850  1.0000
  H   H82       1.0  0.11370  0.94060  0.41850  1.0000
  H   H83       1.0  0.61370  0.55940  0.58150  1.0000
  H   H84       1.0  0.88630  0.94060  0.08150  1.0000
  H   H85       1.0  0.61370  0.44060  0.08150  1.0000
  H   H86       1.0  0.88630  0.05940  0.58150  1.0000
  H   H87       1.0  0.38630  0.44060  0.41850  1.0000
  H   H88       1.0  0.11370  0.05940  0.91850  1.0000
  C   C97       1.0  0.32960  0.53852  0.98170  1.0000
  C   C98       1.0  0.17040  0.96148  0.48170  1.0000
  C   C99       1.0  0.67040  0.53852  0.51830  1.0000
  C   C100      1.0  0.82960  0.96148  0.01830  1.0000
  C   C101      1.0  0.67040  0.46148  0.01830  1.0000
  C   C102      1.0  0.82960  0.03852  0.51830  1.0000
  C   C103      1.0  0.32960  0.46148  0.48170  1.0000
  C   C104      1.0  0.17040  0.03852  0.98170  1.0000
  H   H89       1.0  0.29710  0.56240  0.97410  1.0000
  H   H90       1.0  0.20290  0.93760  0.47410  1.0000
  H   H91       1.0  0.70290  0.56240  0.52590  1.0000
  H   H92       1.0  0.79710  0.93760  0.02590  1.0000
  H   H93       1.0  0.70290  0.43760  0.02590  1.0000
  H   H94       1.0  0.79710  0.06240  0.52590  1.0000
  H   H95       1.0  0.29710  0.43760  0.47410  1.0000
  H   H96       1.0  0.20290  0.06240  0.97410  1.0000
  C   C105      1.0  0.37220  0.43005  0.08250  1.0000
  C   C106      1.0  0.12780  0.06995  0.58250  1.0000
  C   C107      1.0  0.62780  0.43005  0.41750  1.0000
  C   C108      1.0  0.87220  0.06995  0.91750  1.0000
  C   C109      1.0  0.62780  0.56995  0.91750  1.0000
  C   C110      1.0  0.87220  0.93005  0.41750  1.0000
  C   C111      1.0  0.37220  0.56995  0.58250  1.0000
  C   C112      1.0  0.12780  0.93005  0.08250  1.0000
  C   C113      1.0  0.10990  0.51677  0.13700  1.0000
  C   C114      1.0  0.39010  0.98323  0.63700  1.0000
  C   C115      1.0  0.89010  0.51677  0.36300  1.0000
  C   C116      1.0  0.60990  0.98323  0.86300  1.0000
  C   C117      1.0  0.89010  0.48323  0.86300  1.0000
  C   C118      1.0  0.60990  0.01677  0.36300  1.0000
  C   C119      1.0  0.10990  0.48323  0.63700  1.0000
  C   C120      1.0  0.39010  0.01677  0.13700  1.0000
  C   C121      1.0  0.09510  0.47272  0.10680  1.0000
  C   C122      1.0  0.40490  0.02728  0.60680  1.0000
  C   C123      1.0  0.90490  0.47272  0.39320  1.0000
  C   C124      1.0  0.59510  0.02728  0.89320  1.0000
  C   C125      1.0  0.90490  0.52728  0.89320  1.0000
  C   C126      1.0  0.59510  0.97272  0.39320  1.0000
  C   C127      1.0  0.09510  0.52728  0.60680  1.0000
  C   C128      1.0  0.40490  0.97272  0.10680  1.0000
  C   C129      1.0  0.03970  0.47273  0.07520  1.0000
  C   C130      1.0  0.46030  0.02727  0.57520  1.0000
  C   C131      1.0  0.96030  0.47273  0.42480  1.0000
  C   C132      1.0  0.53970  0.02727  0.92480  1.0000
  C   C133      1.0  0.96030  0.52727  0.92480  1.0000
  C   C134      1.0  0.53970  0.97273  0.42480  1.0000
  C   C135      1.0  0.03970  0.52727  0.57520  1.0000
  C   C136      1.0  0.46030  0.97273  0.07520  1.0000
  H   H97       1.0  0.02910  0.44320  0.05480  1.0000
  H   H98       1.0  0.47090  0.05680  0.55480  1.0000
  H   H99       1.0  0.97090  0.44320  0.44520  1.0000
  H   H100      1.0  0.52910  0.05680  0.94520  1.0000
  H   H101      1.0  0.97090  0.55680  0.94520  1.0000
  H   H102      1.0  0.52910  0.94320  0.44520  1.0000
  H   H103      1.0  0.02910  0.55680  0.55480  1.0000
  H   H104      1.0  0.47090  0.94320  0.05480  1.0000
  C   C137      1.0  0.00040  0.51460  0.07310  1.0000
  C   C138      1.0  0.49960  0.98540  0.57310  1.0000
  C   C139      1.0  0.99960  0.51460  0.42690  1.0000
  C   C140      1.0  0.50040  0.98540  0.92690  1.0000
  C   C141      1.0  0.99960  0.48540  0.92690  1.0000
  C   C142      1.0  0.50040  0.01460  0.42690  1.0000
  C   C143      1.0  0.00040  0.48540  0.57310  1.0000
  C   C144      1.0  0.49960  0.01460  0.07310  1.0000
  H   H105      1.0  0.96460  0.51460  0.04970  1.0000
  H   H106      1.0  0.53540  0.98540  0.54970  1.0000
  H   H107      1.0  0.03540  0.51460  0.45030  1.0000
  H   H108      1.0  0.46460  0.98540  0.95030  1.0000
  H   H109      1.0  0.03540  0.48540  0.95030  1.0000
  H   H110      1.0  0.46460  0.01460  0.45030  1.0000
  H   H111      1.0  0.96460  0.48540  0.54970  1.0000
  H   H112      1.0  0.53540  0.01460  0.04970  1.0000
  C   C145      1.0  0.01350  0.55686  0.10540  1.0000
  C   C146      1.0  0.48650  0.94314  0.60540  1.0000
  C   C147      1.0  0.98650  0.55686  0.39460  1.0000
  C   C148      1.0  0.51350  0.94314  0.89460  1.0000
  C   C149      1.0  0.98650  0.44314  0.89460  1.0000
  C   C150      1.0  0.51350  0.05686  0.39460  1.0000
  C   C151      1.0  0.01350  0.44314  0.60540  1.0000
  C   C152      1.0  0.48650  0.05686  0.10540  1.0000
  H   H113      1.0  0.98560  0.58510  0.10550  1.0000
  H   H114      1.0  0.51440  0.91490  0.60550  1.0000
  H   H115      1.0  0.01440  0.58510  0.39450  1.0000
  H   H116      1.0  0.48560  0.91490  0.89450  1.0000
  H   H117      1.0  0.01440  0.41490  0.89450  1.0000
  H   H118      1.0  0.48560  0.08510  0.39450  1.0000
  H   H119      1.0  0.98560  0.41490  0.60550  1.0000
  H   H120      1.0  0.51440  0.08510  0.10550  1.0000
  C   C153      1.0  0.06720  0.55753  0.13740  1.0000
  C   C154      1.0  0.43280  0.94247  0.63740  1.0000
  C   C155      1.0  0.93280  0.55753  0.36260  1.0000
  C   C156      1.0  0.56720  0.94247  0.86260  1.0000
  C   C157      1.0  0.93280  0.44247  0.86260  1.0000
  C   C158      1.0  0.56720  0.05753  0.36260  1.0000
  C   C159      1.0  0.06720  0.44247  0.63740  1.0000
  C   C160      1.0  0.43280  0.05753  0.13740  1.0000
  H   H121      1.0  0.07540  0.58610  0.15990  1.0000
  H   H122      1.0  0.42460  0.91390  0.65990  1.0000
  H   H123      1.0  0.92460  0.58610  0.34010  1.0000
  H   H124      1.0  0.57540  0.91390  0.84010  1.0000
  H   H125      1.0  0.92460  0.41390  0.84010  1.0000
  H   H126      1.0  0.57540  0.08610  0.34010  1.0000
  H   H127      1.0  0.07540  0.41390  0.65990  1.0000
  H   H128      1.0  0.42460  0.08610  0.15990  1.0000
  C   C161      1.0  0.13050  0.42343  0.10936  1.0000
  C   C162      1.0  0.36950  0.07657  0.60936  1.0000
  C   C163      1.0  0.86950  0.42343  0.39064  1.0000
  C   C164      1.0  0.63050  0.07657  0.89064  1.0000
  C   C165      1.0  0.86950  0.57657  0.89064  1.0000
  C   C166      1.0  0.63050  0.92343  0.39064  1.0000
  C   C167      1.0  0.13050  0.57657  0.60936  1.0000
  C   C168      1.0  0.36950  0.92343  0.10936  1.0000
  C   C169      1.0  0.17940  0.62042  0.01250  1.0000
  C   C170      1.0  0.32060  0.87958  0.51250  1.0000
  C   C171      1.0  0.82060  0.62042  0.48750  1.0000
  C   C172      1.0  0.67940  0.87958  0.98750  1.0000
  C   C173      1.0  0.82060  0.37958  0.98750  1.0000
  C   C174      1.0  0.67940  0.12042  0.48750  1.0000
  C   C175      1.0  0.17940  0.37958  0.51250  1.0000
  C   C176      1.0  0.32060  0.12042  0.01250  1.0000
  C   C177      1.0  0.20840  0.65480  0.97630  1.0000
  C   C178      1.0  0.29160  0.84520  0.47630  1.0000
  C   C179      1.0  0.79160  0.65480  0.52370  1.0000
  C   C180      1.0  0.70840  0.84520  0.02370  1.0000
  C   C181      1.0  0.79160  0.34520  0.02370  1.0000
  C   C182      1.0  0.70840  0.15480  0.52370  1.0000
  C   C183      1.0  0.20840  0.34520  0.47630  1.0000
  C   C184      1.0  0.29160  0.15480  0.97630  1.0000
  C   C185      1.0  0.20810  0.64280  0.92050  1.0000
  C   C186      1.0  0.29190  0.85720  0.42050  1.0000
  C   C187      1.0  0.79190  0.64280  0.57950  1.0000
  C   C188      1.0  0.70810  0.85720  0.07950  1.0000
  C   C189      1.0  0.79190  0.35720  0.07950  1.0000
  C   C190      1.0  0.70810  0.14280  0.57950  1.0000
  C   C191      1.0  0.20810  0.35720  0.42050  1.0000
  C   C192      1.0  0.29190  0.14280  0.92050  1.0000
  H   H129      1.0  0.22800  0.66540  0.89570  1.0000
  H   H130      1.0  0.27200  0.83460  0.39570  1.0000
  H   H131      1.0  0.77200  0.66540  0.60430  1.0000
  H   H132      1.0  0.72800  0.83460  0.10430  1.0000
  H   H133      1.0  0.77200  0.33460  0.10430  1.0000
  H   H134      1.0  0.72800  0.16540  0.60430  1.0000
  H   H135      1.0  0.22800  0.33460  0.39570  1.0000
  H   H136      1.0  0.27200  0.16540  0.89570  1.0000
  C   C193      1.0  0.18020  0.59960  0.90080  1.0000
  C   C194      1.0  0.31980  0.90040  0.40080  1.0000
  C   C195      1.0  0.81980  0.59960  0.59920  1.0000
  C   C196      1.0  0.68020  0.90040  0.09920  1.0000
  C   C197      1.0  0.81980  0.40040  0.09920  1.0000
  C   C198      1.0  0.68020  0.09960  0.59920  1.0000
  C   C199      1.0  0.18020  0.40040  0.40080  1.0000
  C   C200      1.0  0.31980  0.09960  0.90080  1.0000
  H   H137      1.0  0.18200  0.59210  0.86290  1.0000
  H   H138      1.0  0.31800  0.90790  0.36290  1.0000
  H   H139      1.0  0.81800  0.59210  0.63710  1.0000
  H   H140      1.0  0.68200  0.90790  0.13710  1.0000
  H   H141      1.0  0.81800  0.40790  0.13710  1.0000
  H   H142      1.0  0.68200  0.09210  0.63710  1.0000
  H   H143      1.0  0.18200  0.40790  0.36290  1.0000
  H   H144      1.0  0.31800  0.09210  0.86290  1.0000
  C   C201      1.0  0.14940  0.56690  0.93600  1.0000
  C   C202      1.0  0.35060  0.93310  0.43600  1.0000
  C   C203      1.0  0.85060  0.56690  0.56400  1.0000
  C   C204      1.0  0.64940  0.93310  0.06400  1.0000
  C   C205      1.0  0.85060  0.43310  0.06400  1.0000
  C   C206      1.0  0.64940  0.06690  0.56400  1.0000
  C   C207      1.0  0.14940  0.43310  0.43600  1.0000
  C   C208      1.0  0.35060  0.06690  0.93600  1.0000
  H   H145      1.0  0.12910  0.53730  0.92240  1.0000
  H   H146      1.0  0.37090  0.96270  0.42240  1.0000
  H   H147      1.0  0.87090  0.53730  0.57760  1.0000
  H   H148      1.0  0.62910  0.96270  0.07760  1.0000
  H   H149      1.0  0.87090  0.46270  0.07760  1.0000
  H   H150      1.0  0.62910  0.03730  0.57760  1.0000
  H   H151      1.0  0.12910  0.46270  0.42240  1.0000
  H   H152      1.0  0.37090  0.03730  0.92240  1.0000
  C   C209      1.0  0.14820  0.57772  0.99130  1.0000
  C   C210      1.0  0.35180  0.92228  0.49130  1.0000
  C   C211      1.0  0.85180  0.57772  0.50870  1.0000
  C   C212      1.0  0.64820  0.92228  0.00870  1.0000
  C   C213      1.0  0.85180  0.42228  0.00870  1.0000
  C   C214      1.0  0.64820  0.07772  0.50870  1.0000
  C   C215      1.0  0.14820  0.42228  0.49130  1.0000
  C   C216      1.0  0.35180  0.07772  0.99130  1.0000
  H   H153      1.0  0.12590  0.55580  0.01530  1.0000
  H   H154      1.0  0.37410  0.94420  0.51530  1.0000
  H   H155      1.0  0.87410  0.55580  0.48470  1.0000
  H   H156      1.0  0.62590  0.94420  0.98470  1.0000
  H   H157      1.0  0.87410  0.44420  0.98470  1.0000
  H   H158      1.0  0.62590  0.05580  0.48470  1.0000
  H   H159      1.0  0.12590  0.44420  0.51530  1.0000
  H   H160      1.0  0.37410  0.05580  0.01530  1.0000
  C   C217      1.0  0.23700  0.70610  0.99040  1.0000
  C   C218      1.0  0.26300  0.79390  0.49040  1.0000
  C   C219      1.0  0.76300  0.70610  0.50960  1.0000
  C   C220      1.0  0.73700  0.79390  0.00960  1.0000
  C   C221      1.0  0.76300  0.29390  0.00960  1.0000
  C   C222      1.0  0.73700  0.20610  0.50960  1.0000
  C   C223      1.0  0.23700  0.29390  0.49040  1.0000
  C   C224      1.0  0.26300  0.20610  0.99040  1.0000
  C   C225      1.0  0.39700  0.64087  0.12050  1.0000
  C   C226      1.0  0.10300  0.85913  0.62050  1.0000
  C   C227      1.0  0.60300  0.64087  0.37950  1.0000
  C   C228      1.0  0.89700  0.85913  0.87950  1.0000
  C   C229      1.0  0.60300  0.35913  0.87950  1.0000
  C   C230      1.0  0.89700  0.14087  0.37950  1.0000
  C   C231      1.0  0.39700  0.35913  0.62050  1.0000
  C   C232      1.0  0.10300  0.14087  0.12050  1.0000
  C   C233      1.0  0.41240  0.68793  0.14440  1.0000
  C   C234      1.0  0.08760  0.81207  0.64440  1.0000
  C   C235      1.0  0.58760  0.68793  0.35560  1.0000
  C   C236      1.0  0.91240  0.81207  0.85560  1.0000
  C   C237      1.0  0.58760  0.31207  0.85560  1.0000
  C   C238      1.0  0.91240  0.18793  0.35560  1.0000
  C   C239      1.0  0.41240  0.31207  0.64440  1.0000
  C   C240      1.0  0.08760  0.18793  0.14440  1.0000
  C   C241      1.0  0.47030  0.69230  0.17180  1.0000
  C   C242      1.0  0.02970  0.80770  0.67180  1.0000
  C   C243      1.0  0.52970  0.69230  0.32820  1.0000
  C   C244      1.0  0.97030  0.80770  0.82820  1.0000
  C   C245      1.0  0.52970  0.30770  0.82820  1.0000
  C   C246      1.0  0.97030  0.19230  0.32820  1.0000
  C   C247      1.0  0.47030  0.30770  0.67180  1.0000
  C   C248      1.0  0.02970  0.19230  0.17180  1.0000
  H   H161      1.0  0.48100  0.72370  0.18850  1.0000
  H   H162      1.0  0.01900  0.77630  0.68850  1.0000
  H   H163      1.0  0.51900  0.72370  0.31150  1.0000
  H   H164      1.0  0.98100  0.77630  0.81150  1.0000
  H   H165      1.0  0.51900  0.27630  0.81150  1.0000
  H   H166      1.0  0.98100  0.22370  0.31150  1.0000
  H   H167      1.0  0.48100  0.27630  0.68850  1.0000
  H   H168      1.0  0.01900  0.22370  0.18850  1.0000
  C   C249      1.0  0.51190  0.65250  0.17490  1.0000
  C   C250      1.0  0.98810  0.84750  0.67490  1.0000
  C   C251      1.0  0.48810  0.65250  0.32510  1.0000
  C   C252      1.0  0.01190  0.84750  0.82510  1.0000
  C   C253      1.0  0.48810  0.34750  0.82510  1.0000
  C   C254      1.0  0.01190  0.15250  0.32510  1.0000
  C   C255      1.0  0.51190  0.34750  0.67490  1.0000
  C   C256      1.0  0.98810  0.15250  0.17490  1.0000
  H   H169      1.0  0.55040  0.65620  0.19450  1.0000
  H   H170      1.0  0.94960  0.84380  0.69450  1.0000
  H   H171      1.0  0.44960  0.65620  0.30550  1.0000
  H   H172      1.0  0.05040  0.84380  0.80550  1.0000
  H   H173      1.0  0.44960  0.34380  0.80550  1.0000
  H   H174      1.0  0.05040  0.15620  0.30550  1.0000
  H   H175      1.0  0.55040  0.34380  0.69450  1.0000
  H   H176      1.0  0.94960  0.15620  0.19450  1.0000
  C   C257      1.0  0.49780  0.60690  0.14950  1.0000
  C   C258      1.0  0.00220  0.89310  0.64950  1.0000
  C   C259      1.0  0.50220  0.60690  0.35050  1.0000
  C   C260      1.0  0.99780  0.89310  0.85050  1.0000
  C   C261      1.0  0.50220  0.39310  0.85050  1.0000
  C   C262      1.0  0.99780  0.10690  0.35050  1.0000
  C   C263      1.0  0.49780  0.39310  0.64950  1.0000
  C   C264      1.0  0.00220  0.10690  0.14950  1.0000
  H   H177      1.0  0.52710  0.57960  0.15060  1.0000
  H   H178      1.0  0.97290  0.92040  0.65060  1.0000
  H   H179      1.0  0.47290  0.57960  0.34940  1.0000
  H   H180      1.0  0.02710  0.92040  0.84940  1.0000
  H   H181      1.0  0.47290  0.42040  0.84940  1.0000
  H   H182      1.0  0.02710  0.07960  0.34940  1.0000
  H   H183      1.0  0.52710  0.42040  0.65060  1.0000
  H   H184      1.0  0.97290  0.07960  0.15060  1.0000
  C   C265      1.0  0.44100  0.60147  0.12270  1.0000
  C   C266      1.0  0.05900  0.89853  0.62270  1.0000
  C   C267      1.0  0.55900  0.60147  0.37730  1.0000
  C   C268      1.0  0.94100  0.89853  0.87730  1.0000
  C   C269      1.0  0.55900  0.39853  0.87730  1.0000
  C   C270      1.0  0.94100  0.10147  0.37730  1.0000
  C   C271      1.0  0.44100  0.39853  0.62270  1.0000
  C   C272      1.0  0.05900  0.10147  0.12270  1.0000
  H   H185      1.0  0.43150  0.57010  0.10520  1.0000
  H   H186      1.0  0.06850  0.92990  0.60520  1.0000
  H   H187      1.0  0.56850  0.57010  0.39480  1.0000
  H   H188      1.0  0.93150  0.92990  0.89480  1.0000
  H   H189      1.0  0.56850  0.42990  0.89480  1.0000
  H   H190      1.0  0.93150  0.07010  0.39480  1.0000
  H   H191      1.0  0.43150  0.42990  0.60520  1.0000
  H   H192      1.0  0.06850  0.07010  0.10520  1.0000
  C   C273      1.0  0.37540  0.73607  0.13930  1.0000
  C   C274      1.0  0.12460  0.76393  0.63930  1.0000
  C   C275      1.0  0.62460  0.73607  0.36070  1.0000
  C   C276      1.0  0.87540  0.76393  0.86070  1.0000
  C   C277      1.0  0.62460  0.26393  0.86070  1.0000
  C   C278      1.0  0.87540  0.23607  0.36070  1.0000
  C   C279      1.0  0.37540  0.26393  0.63930  1.0000
  C   C280      1.0  0.12460  0.23607  0.13930  1.0000
  C   C281      1.0  0.18400  0.64928  0.23026  1.0000
  C   C282      1.0  0.31600  0.85072  0.73026  1.0000
  C   C283      1.0  0.81600  0.64928  0.26974  1.0000
  C   C284      1.0  0.68400  0.85072  0.76974  1.0000
  C   C285      1.0  0.81600  0.35072  0.76974  1.0000
  C   C286      1.0  0.68400  0.14928  0.26974  1.0000
  C   C287      1.0  0.18400  0.35072  0.73026  1.0000
  C   C288      1.0  0.31600  0.14928  0.23026  1.0000
  C   C289      1.0  0.17100  0.61250  0.26990  1.0000
  C   C290      1.0  0.32900  0.88750  0.76990  1.0000
  C   C291      1.0  0.82900  0.61250  0.23010  1.0000
  C   C292      1.0  0.67100  0.88750  0.73010  1.0000
  C   C293      1.0  0.82900  0.38750  0.73010  1.0000
  C   C294      1.0  0.67100  0.11250  0.23010  1.0000
  C   C295      1.0  0.17100  0.38750  0.76990  1.0000
  C   C296      1.0  0.32900  0.11250  0.26990  1.0000
  H   H193      1.0  0.20080  0.58610  0.27650  1.0000
  H   H194      1.0  0.29920  0.91390  0.77650  1.0000
  H   H195      1.0  0.79920  0.58610  0.22350  1.0000
  H   H196      1.0  0.70080  0.91390  0.72350  1.0000
  H   H197      1.0  0.79920  0.41390  0.72350  1.0000
  H   H198      1.0  0.70080  0.08610  0.22350  1.0000
  H   H199      1.0  0.20080  0.41390  0.77650  1.0000
  H   H200      1.0  0.29920  0.08610  0.27650  1.0000
  C   C297      1.0  0.11540  0.61420  0.29950  1.0000
  C   C298      1.0  0.38460  0.88580  0.79950  1.0000
  C   C299      1.0  0.88460  0.61420  0.20050  1.0000
  C   C300      1.0  0.61540  0.88580  0.70050  1.0000
  C   C301      1.0  0.88460  0.38580  0.70050  1.0000
  C   C302      1.0  0.61540  0.11420  0.20050  1.0000
  C   C303      1.0  0.11540  0.38580  0.79950  1.0000
  C   C304      1.0  0.38460  0.11420  0.29950  1.0000
  H   H201      1.0  0.10650  0.58840  0.32550  1.0000
  H   H202      1.0  0.39350  0.91160  0.82550  1.0000
  H   H203      1.0  0.89350  0.58840  0.17450  1.0000
  H   H204      1.0  0.60650  0.91160  0.67450  1.0000
  H   H205      1.0  0.89350  0.41160  0.67450  1.0000
  H   H206      1.0  0.60650  0.08840  0.17450  1.0000
  H   H207      1.0  0.10650  0.41160  0.82550  1.0000
  H   H208      1.0  0.39350  0.08840  0.32550  1.0000
  C   C305      1.0  0.07280  0.65300  0.29140  1.0000
  C   C306      1.0  0.42720  0.84700  0.79140  1.0000
  C   C307      1.0  0.92720  0.65300  0.20860  1.0000
  C   C308      1.0  0.57280  0.84700  0.70860  1.0000
  C   C309      1.0  0.92720  0.34700  0.70860  1.0000
  C   C310      1.0  0.57280  0.15300  0.20860  1.0000
  C   C311      1.0  0.07280  0.34700  0.79140  1.0000
  C   C312      1.0  0.42720  0.15300  0.29140  1.0000
  H   H209      1.0  0.03430  0.65380  0.31120  1.0000
  H   H210      1.0  0.46570  0.84620  0.81120  1.0000
  H   H211      1.0  0.96570  0.65380  0.18880  1.0000
  H   H212      1.0  0.53430  0.84620  0.68880  1.0000
  H   H213      1.0  0.96570  0.34620  0.68880  1.0000
  H   H214      1.0  0.53430  0.15380  0.18880  1.0000
  H   H215      1.0  0.03430  0.34620  0.81120  1.0000
  H   H216      1.0  0.46570  0.15380  0.31120  1.0000
  C   C313      1.0  0.08660  0.69100  0.25420  1.0000
  C   C314      1.0  0.41340  0.80900  0.75420  1.0000
  C   C315      1.0  0.91340  0.69100  0.24580  1.0000
  C   C316      1.0  0.58660  0.80900  0.74580  1.0000
  C   C317      1.0  0.91340  0.30900  0.74580  1.0000
  C   C318      1.0  0.58660  0.19100  0.24580  1.0000
  C   C319      1.0  0.08660  0.30900  0.75420  1.0000
  C   C320      1.0  0.41340  0.19100  0.25420  1.0000
  H   H217      1.0  0.05780  0.71840  0.24980  1.0000
  H   H218      1.0  0.44220  0.78160  0.74980  1.0000
  H   H219      1.0  0.94220  0.71840  0.25020  1.0000
  H   H220      1.0  0.55780  0.78160  0.75020  1.0000
  H   H221      1.0  0.94220  0.28160  0.75020  1.0000
  H   H222      1.0  0.55780  0.21840  0.25020  1.0000
  H   H223      1.0  0.05780  0.28160  0.74980  1.0000
  H   H224      1.0  0.44220  0.21840  0.24980  1.0000
  C   C321      1.0  0.14200  0.68986  0.22280  1.0000
  C   C322      1.0  0.35800  0.81014  0.72280  1.0000
  C   C323      1.0  0.85800  0.68986  0.27720  1.0000
  C   C324      1.0  0.64200  0.81014  0.77720  1.0000
  C   C325      1.0  0.85800  0.31014  0.77720  1.0000
  C   C326      1.0  0.64200  0.18986  0.27720  1.0000
  C   C327      1.0  0.14200  0.31014  0.72280  1.0000
  C   C328      1.0  0.35800  0.18986  0.22280  1.0000
  C   C329      1.0  0.15210  0.73600  0.18720  1.0000
  C   C330      1.0  0.34790  0.76400  0.68720  1.0000
  C   C331      1.0  0.84790  0.73600  0.31280  1.0000
  C   C332      1.0  0.65210  0.76400  0.81280  1.0000
  C   C333      1.0  0.84790  0.26400  0.81280  1.0000
  C   C334      1.0  0.65210  0.23600  0.31280  1.0000
  C   C335      1.0  0.15210  0.26400  0.68720  1.0000
  C   C336      1.0  0.34790  0.23600  0.18720  1.0000
  O   O113      1.0  0.17200  0.30490  0.03680  1.0000
  O   O114      1.0  0.32800  0.19510  0.53680  1.0000
  O   O115      1.0  0.82800  0.30490  0.46320  1.0000
  O   O116      1.0  0.67200  0.19510  0.96320  1.0000
  O   O117      1.0  0.82800  0.69510  0.96320  1.0000
  O   O118      1.0  0.67200  0.80490  0.46320  1.0000
  O   O119      1.0  0.17200  0.69510  0.53680  1.0000
  O   O120      1.0  0.32800  0.80490  0.03680  1.0000
  C   C337      1.0  0.19900  0.34330  0.99760  1.0000
  C   C338      1.0  0.30100  0.15670  0.49760  1.0000
  C   C339      1.0  0.80100  0.34330  0.50240  1.0000
  C   C340      1.0  0.69900  0.15670  0.00240  1.0000
  C   C341      1.0  0.80100  0.65670  0.00240  1.0000
  C   C342      1.0  0.69900  0.84330  0.50240  1.0000
  C   C343      1.0  0.19900  0.65670  0.49760  1.0000
  C   C344      1.0  0.30100  0.84330  0.99760  1.0000
  H   H225      1.0  0.23090  0.36380  0.01740  1.0000
  H   H226      1.0  0.26910  0.13620  0.51740  1.0000
  H   H227      1.0  0.76910  0.36380  0.48260  1.0000
  H   H228      1.0  0.73090  0.13620  0.98260  1.0000
  H   H229      1.0  0.76910  0.63620  0.98260  1.0000
  H   H230      1.0  0.73090  0.86380  0.48260  1.0000
  H   H231      1.0  0.23090  0.63620  0.51740  1.0000
  H   H232      1.0  0.26910  0.86380  0.01740  1.0000
  H   H233      1.0  0.22150  0.32460  0.96850  1.0000
  H   H234      1.0  0.27850  0.17540  0.46850  1.0000
  H   H235      1.0  0.77850  0.32460  0.53150  1.0000
  H   H236      1.0  0.72150  0.17540  0.03150  1.0000
  H   H237      1.0  0.77850  0.67540  0.03150  1.0000
  H   H238      1.0  0.72150  0.82460  0.53150  1.0000
  H   H239      1.0  0.22150  0.67540  0.46850  1.0000
  H   H240      1.0  0.27850  0.82460  0.96850  1.0000
  C   C345      1.0  0.15080  0.38110  0.96980  1.0000
  C   C346      1.0  0.34920  0.11890  0.46980  1.0000
  C   C347      1.0  0.84920  0.38110  0.53020  1.0000
  C   C348      1.0  0.65080  0.11890  0.03020  1.0000
  C   C349      1.0  0.84920  0.61890  0.03020  1.0000
  C   C350      1.0  0.65080  0.88110  0.53020  1.0000
  C   C351      1.0  0.15080  0.61890  0.46980  1.0000
  C   C352      1.0  0.34920  0.88110  0.96980  1.0000
  H   H241      1.0  0.12620  0.40000  0.99740  1.0000
  H   H242      1.0  0.37380  0.10000  0.49740  1.0000
  H   H243      1.0  0.87380  0.40000  0.50260  1.0000
  H   H244      1.0  0.62620  0.10000  0.00260  1.0000
  H   H245      1.0  0.87380  0.60000  0.00260  1.0000
  H   H246      1.0  0.62620  0.90000  0.50260  1.0000
  H   H247      1.0  0.12620  0.60000  0.49740  1.0000
  H   H248      1.0  0.37380  0.90000  0.99740  1.0000
  H   H249      1.0  0.17310  0.40570  0.94600  1.0000
  H   H250      1.0  0.32690  0.09430  0.44600  1.0000
  H   H251      1.0  0.82690  0.40570  0.55400  1.0000
  H   H252      1.0  0.67310  0.09430  0.05400  1.0000
  H   H253      1.0  0.82690  0.59430  0.05400  1.0000
  H   H254      1.0  0.67310  0.90570  0.55400  1.0000
  H   H255      1.0  0.17310  0.59430  0.44600  1.0000
  H   H256      1.0  0.32690  0.90570  0.94600  1.0000
  O   O121      1.0  0.11010  0.34760  0.93800  1.0000
  O   O122      1.0  0.38990  0.15240  0.43800  1.0000
  O   O123      1.0  0.88990  0.34760  0.56200  1.0000
  O   O124      1.0  0.61010  0.15240  0.06200  1.0000
  O   O125      1.0  0.88990  0.65240  0.06200  1.0000
  O   O126      1.0  0.61010  0.84760  0.56200  1.0000
  O   O127      1.0  0.11010  0.65240  0.43800  1.0000
  O   O128      1.0  0.38990  0.84760  0.93800  1.0000
  H   H257      1.0  0.13040  0.32160  0.92880  1.0000
  H   H258      1.0  0.36960  0.17840  0.42880  1.0000
  H   H259      1.0  0.86960  0.32160  0.57120  1.0000
  H   H260      1.0  0.63040  0.17840  0.07120  1.0000
  H   H261      1.0  0.86960  0.67840  0.07120  1.0000
  H   H262      1.0  0.63040  0.82160  0.57120  1.0000
  H   H263      1.0  0.13040  0.67840  0.42880  1.0000
  H   H264      1.0  0.36960  0.82160  0.92880  1.0000
