data_image0
_chemical_formula_structural       Cu4C4H4C8H8O24
_chemical_formula_sum              "Cu4 C12 H12 O24"
_cell_length_a       13.681
_cell_length_b       8.7192
_cell_length_c       8.8542
_cell_angle_alpha    90
_cell_angle_beta     123.837
_cell_angle_gamma    90

_space_group_name_H-M_alt    "P 1"
_space_group_IT_number       1

loop_
  _space_group_symop_operation_xyz
  'x, y, z'

loop_
  _atom_site_type_symbol
  _atom_site_label
  _atom_site_symmetry_multiplicity
  _atom_site_fract_x
  _atom_site_fract_y
  _atom_site_fract_z
  _atom_site_occupancy
  Cu  Cu1       1.0  0.75000  0.25000  0.50000  1.0000
  Cu  Cu2       1.0  0.25000  0.25000  0.00000  1.0000
  Cu  Cu3       1.0  0.25000  0.75000  0.50000  1.0000
  Cu  Cu4       1.0  0.75000  0.75000  0.00000  1.0000
  C   C1        1.0  0.00000  0.21340  0.75000  1.0000
  C   C2        1.0  0.50000  0.71340  0.75000  1.0000
  C   C3        1.0  0.00000  0.78660  0.25000  1.0000
  C   C4        1.0  0.50000  0.28660  0.25000  1.0000
  H   H1        1.0  0.00000  0.32000  0.75000  1.0000
  H   H2        1.0  0.50000  0.82000  0.75000  1.0000
  H   H3        1.0  0.00000  0.68000  0.25000  1.0000
  H   H4        1.0  0.50000  0.18000  0.25000  1.0000
  C   C5        1.0  0.72160  0.03750  0.72520  1.0000
  C   C6        1.0  0.27840  0.03750  0.77480  1.0000
  C   C7        1.0  0.22160  0.53750  0.72520  1.0000
  C   C8        1.0  0.77840  0.53750  0.77480  1.0000
  C   C9        1.0  0.27840  0.96250  0.27480  1.0000
  C   C10       1.0  0.72160  0.96250  0.22520  1.0000
  C   C11       1.0  0.77840  0.46250  0.27480  1.0000
  C   C12       1.0  0.22160  0.46250  0.22520  1.0000
  H   H5        1.0  0.78280  0.98380  0.73220  1.0000
  H   H6        1.0  0.21720  0.98380  0.76780  1.0000
  H   H7        1.0  0.28280  0.48380  0.73220  1.0000
  H   H8        1.0  0.71720  0.48380  0.76780  1.0000
  H   H9        1.0  0.21720  0.01620  0.26780  1.0000
  H   H10       1.0  0.78280  0.01620  0.23220  1.0000
  H   H11       1.0  0.71720  0.51620  0.26780  1.0000
  H   H12       1.0  0.28280  0.51620  0.23220  1.0000
  O   O1        1.0  0.90328  0.14730  0.65950  1.0000
  O   O2        1.0  0.09672  0.14730  0.84050  1.0000
  O   O3        1.0  0.40328  0.64730  0.65950  1.0000
  O   O4        1.0  0.59672  0.64730  0.84050  1.0000
  O   O5        1.0  0.09672  0.85270  0.34050  1.0000
  O   O6        1.0  0.90328  0.85270  0.15950  1.0000
  O   O7        1.0  0.59672  0.35270  0.34050  1.0000
  O   O8        1.0  0.40328  0.35270  0.15950  1.0000
  O   O9        1.0  0.68924  0.16110  0.63670  1.0000
  O   O10       1.0  0.31076  0.16110  0.86330  1.0000
  O   O11       1.0  0.18924  0.66110  0.63670  1.0000
  O   O12       1.0  0.81076  0.66110  0.86330  1.0000
  O   O13       1.0  0.31076  0.83890  0.36330  1.0000
  O   O14       1.0  0.68924  0.83890  0.13670  1.0000
  O   O15       1.0  0.81076  0.33890  0.36330  1.0000
  O   O16       1.0  0.18924  0.33890  0.13670  1.0000
  O   O17       1.0  0.67780  0.98240  0.80360  1.0000
  O   O18       1.0  0.32220  0.98240  0.69640  1.0000
  O   O19       1.0  0.17780  0.48240  0.80360  1.0000
  O   O20       1.0  0.82220  0.48240  0.69640  1.0000
  O   O21       1.0  0.32220  0.01760  0.19640  1.0000
  O   O22       1.0  0.67780  0.01760  0.30360  1.0000
  O   O23       1.0  0.82220  0.51760  0.19640  1.0000
  O   O24       1.0  0.17780  0.51760  0.30360  1.0000
