data_image0
_chemical_formula_structural       Cu4O32C4H4C20H4C16
_chemical_formula_sum              "Cu4 O32 C40 H8"
_cell_length_a       8.8871
_cell_length_b       11.4931
_cell_length_c       16.457
_cell_angle_alpha    90
_cell_angle_beta     90
_cell_angle_gamma    90

_space_group_name_H-M_alt    "P 1"
_space_group_IT_number       1

loop_
  _space_group_symop_operation_xyz
  'x, y, z'

loop_
  _atom_site_type_symbol
  _atom_site_label
  _atom_site_symmetry_multiplicity
  _atom_site_fract_x
  _atom_site_fract_y
  _atom_site_fract_z
  _atom_site_occupancy
  Cu  Cu1       1.0  0.00000  0.00191  0.00000  1.0000
  Cu  Cu2       1.0  0.00000  0.00191  0.50000  1.0000
  Cu  Cu3       1.0  0.50000  0.50191  0.00000  1.0000
  Cu  Cu4       1.0  0.50000  0.50191  0.50000  1.0000
  O   O1        1.0  0.01560  0.88510  0.08920  1.0000
  O   O2        1.0  0.01560  0.88510  0.41080  1.0000
  O   O3        1.0  0.98440  0.88510  0.58920  1.0000
  O   O4        1.0  0.98440  0.88510  0.91080  1.0000
  O   O5        1.0  0.51560  0.38510  0.08920  1.0000
  O   O6        1.0  0.51560  0.38510  0.41080  1.0000
  O   O7        1.0  0.48440  0.38510  0.58920  1.0000
  O   O8        1.0  0.48440  0.38510  0.91080  1.0000
  O   O9        1.0  0.25410  0.88350  0.04920  1.0000
  O   O10       1.0  0.25410  0.88350  0.45080  1.0000
  O   O11       1.0  0.74590  0.88350  0.54920  1.0000
  O   O12       1.0  0.74590  0.88350  0.95080  1.0000
  O   O13       1.0  0.75410  0.38350  0.04920  1.0000
  O   O14       1.0  0.75410  0.38350  0.45080  1.0000
  O   O15       1.0  0.24590  0.38350  0.54920  1.0000
  O   O16       1.0  0.24590  0.38350  0.95080  1.0000
  O   O17       1.0  0.47110  0.61550  0.08650  1.0000
  O   O18       1.0  0.47110  0.61550  0.41350  1.0000
  O   O19       1.0  0.52890  0.61550  0.58650  1.0000
  O   O20       1.0  0.52890  0.61550  0.91350  1.0000
  O   O21       1.0  0.97110  0.11550  0.08650  1.0000
  O   O22       1.0  0.97110  0.11550  0.41350  1.0000
  O   O23       1.0  0.02890  0.11550  0.58650  1.0000
  O   O24       1.0  0.02890  0.11550  0.91350  1.0000
  O   O25       1.0  0.23060  0.61580  0.05070  1.0000
  O   O26       1.0  0.23060  0.61580  0.44930  1.0000
  O   O27       1.0  0.76940  0.61580  0.55070  1.0000
  O   O28       1.0  0.76940  0.61580  0.94930  1.0000
  O   O29       1.0  0.73060  0.11580  0.05070  1.0000
  O   O30       1.0  0.73060  0.11580  0.44930  1.0000
  O   O31       1.0  0.26940  0.11580  0.55070  1.0000
  O   O32       1.0  0.26940  0.11580  0.94930  1.0000
  C   C1        1.0  0.14820  0.84570  0.25000  1.0000
  C   C2        1.0  0.85180  0.84570  0.75000  1.0000
  C   C3        1.0  0.64820  0.34570  0.25000  1.0000
  C   C4        1.0  0.35180  0.34570  0.75000  1.0000
  H   H1        1.0  0.08560  0.91060  0.25000  1.0000
  H   H2        1.0  0.91440  0.91060  0.75000  1.0000
  H   H3        1.0  0.58560  0.41060  0.25000  1.0000
  H   H4        1.0  0.41440  0.41060  0.75000  1.0000
  C   C5        1.0  0.19590  0.79620  0.17490  1.0000
  C   C6        1.0  0.19590  0.79620  0.32510  1.0000
  C   C7        1.0  0.80410  0.79620  0.67490  1.0000
  C   C8        1.0  0.80410  0.79620  0.82510  1.0000
  C   C9        1.0  0.69590  0.29620  0.17490  1.0000
  C   C10       1.0  0.69590  0.29620  0.32510  1.0000
  C   C11       1.0  0.30410  0.29620  0.67490  1.0000
  C   C12       1.0  0.30410  0.29620  0.82510  1.0000
  C   C13       1.0  0.29470  0.70130  0.17770  1.0000
  C   C14       1.0  0.29470  0.70130  0.32230  1.0000
  C   C15       1.0  0.70530  0.70130  0.67770  1.0000
  C   C16       1.0  0.70530  0.70130  0.82230  1.0000
  C   C17       1.0  0.79470  0.20130  0.17770  1.0000
  C   C18       1.0  0.79470  0.20130  0.32230  1.0000
  C   C19       1.0  0.20530  0.20130  0.67770  1.0000
  C   C20       1.0  0.20530  0.20130  0.82230  1.0000
  C   C21       1.0  0.34070  0.65900  0.25000  1.0000
  C   C22       1.0  0.65930  0.65900  0.75000  1.0000
  C   C23       1.0  0.84070  0.15900  0.25000  1.0000
  C   C24       1.0  0.15930  0.15900  0.75000  1.0000
  H   H5        1.0  0.40810  0.59710  0.25000  1.0000
  H   H6        1.0  0.59190  0.59710  0.75000  1.0000
  H   H7        1.0  0.90810  0.09710  0.25000  1.0000
  H   H8        1.0  0.09190  0.09710  0.75000  1.0000
  C   C25       1.0  0.15450  0.85700  0.09850  1.0000
  C   C26       1.0  0.15450  0.85700  0.40150  1.0000
  C   C27       1.0  0.84550  0.85700  0.59850  1.0000
  C   C28       1.0  0.84550  0.85700  0.90150  1.0000
  C   C29       1.0  0.65450  0.35700  0.09850  1.0000
  C   C30       1.0  0.65450  0.35700  0.40150  1.0000
  C   C31       1.0  0.34550  0.35700  0.59850  1.0000
  C   C32       1.0  0.34550  0.35700  0.90150  1.0000
  C   C33       1.0  0.33420  0.64020  0.09760  1.0000
  C   C34       1.0  0.33420  0.64020  0.40240  1.0000
  C   C35       1.0  0.66580  0.64020  0.59760  1.0000
  C   C36       1.0  0.66580  0.64020  0.90240  1.0000
  C   C37       1.0  0.83420  0.14020  0.09760  1.0000
  C   C38       1.0  0.83420  0.14020  0.40240  1.0000
  C   C39       1.0  0.16580  0.14020  0.59760  1.0000
  C   C40       1.0  0.16580  0.14020  0.90240  1.0000
