data_image0
_chemical_formula_structural       NiO12C10H10
_chemical_formula_sum              "Ni1 O12 C10 H10"
_cell_length_a       6.8436
_cell_length_b       9.1166
_cell_length_c       9.7167
_cell_angle_alpha    105.346
_cell_angle_beta     97.746
_cell_angle_gamma    109.346

_space_group_name_H-M_alt    "P 1"
_space_group_IT_number       1

loop_
  _space_group_symop_operation_xyz
  'x, y, z'

loop_
  _atom_site_type_symbol
  _atom_site_label
  _atom_site_symmetry_multiplicity
  _atom_site_fract_x
  _atom_site_fract_y
  _atom_site_fract_z
  _atom_site_occupancy
  Ni  Ni1       1.0  0.00000  0.00000  0.00000  1.0000
  O   O1        1.0  0.25320  0.16620  0.95585  1.0000
  O   O2        1.0  0.74680  0.83380  0.04415  1.0000
  O   O3        1.0  0.19930  0.90390  0.08667  1.0000
  O   O4        1.0  0.80070  0.09610  0.91333  1.0000
  O   O5        1.0  0.02840  0.16030  0.20953  1.0000
  O   O6        1.0  0.97160  0.83970  0.79047  1.0000
  O   O7        1.0  0.27330  0.39470  0.21460  1.0000
  O   O8        1.0  0.72670  0.60530  0.78540  1.0000
  O   O9        1.0  0.65280  0.25221  0.13085  1.0000
  O   O10       1.0  0.34720  0.74779  0.86915  1.0000
  O   O11       1.0  0.53470  0.12650  0.28888  1.0000
  O   O12       1.0  0.46530  0.87350  0.71112  1.0000
  C   C1        1.0  0.21240  0.54010  0.49870  1.0000
  C   C2        1.0  0.78760  0.45990  0.50130  1.0000
  C   C3        1.0  0.05710  0.41070  0.38180  1.0000
  C   C4        1.0  0.94290  0.58930  0.61820  1.0000
  C   C5        1.0  0.84120  0.37130  0.38280  1.0000
  C   C6        1.0  0.15880  0.62870  0.61720  1.0000
  C   C7        1.0  0.12630  0.31600  0.25870  1.0000
  C   C8        1.0  0.87370  0.68400  0.74130  1.0000
  C   C9        1.0  0.66210  0.23810  0.25680  1.0000
  C   C10       1.0  0.33790  0.76190  0.74320  1.0000
  H   H1        1.0  0.37400  0.17500  0.00700  1.0000
  H   H2        1.0  0.62600  0.82500  0.99300  1.0000
  H   H3        1.0  0.24700  0.24800  0.97200  1.0000
  H   H4        1.0  0.75300  0.75200  0.02800  1.0000
  H   H5        1.0  0.23400  0.86100  0.02300  1.0000
  H   H6        1.0  0.76600  0.13900  0.97700  1.0000
  H   H7        1.0  0.29200  0.97400  0.15000  1.0000
  H   H8        1.0  0.70800  0.02600  0.85000  1.0000
  H   H9        1.0  0.36100  0.57100  0.50200  1.0000
  H   H10       1.0  0.63900  0.42900  0.49800  1.0000
