data_image0
_chemical_formula_structural       CoO12C10H10
_chemical_formula_sum              "Co1 O12 C10 H10"
_cell_length_a       6.8668
_cell_length_b       9.1137
_cell_length_c       9.6982
_cell_angle_alpha    104.63
_cell_angle_beta     98.04
_cell_angle_gamma    109.66

_space_group_name_H-M_alt    "P 1"
_space_group_IT_number       1

loop_
  _space_group_symop_operation_xyz
  'x, y, z'

loop_
  _atom_site_type_symbol
  _atom_site_label
  _atom_site_symmetry_multiplicity
  _atom_site_fract_x
  _atom_site_fract_y
  _atom_site_fract_z
  _atom_site_occupancy
  Co  Co1       1.0  0.00000  0.00000  0.00000  1.0000
  O   O1        1.0  0.25670  0.17170  0.95680  1.0000
  O   O2        1.0  0.74330  0.82830  0.04320  1.0000
  O   O3        1.0  0.20380  0.90220  0.08710  1.0000
  O   O4        1.0  0.79620  0.09780  0.91290  1.0000
  O   O5        1.0  0.02860  0.16270  0.21270  1.0000
  O   O6        1.0  0.97140  0.83730  0.78730  1.0000
  O   O7        1.0  0.27400  0.39720  0.21620  1.0000
  O   O8        1.0  0.72600  0.60280  0.78380  1.0000
  O   O9        1.0  0.65490  0.25540  0.13020  1.0000
  O   O10       1.0  0.34510  0.74460  0.86980  1.0000
  O   O11       1.0  0.53600  0.12620  0.28800  1.0000
  O   O12       1.0  0.46400  0.87380  0.71200  1.0000
  C   C1        1.0  0.21290  0.54130  0.49960  1.0000
  C   C2        1.0  0.78710  0.45870  0.50040  1.0000
  C   C3        1.0  0.05730  0.41260  0.38230  1.0000
  C   C4        1.0  0.94270  0.58740  0.61770  1.0000
  C   C5        1.0  0.84190  0.37230  0.38280  1.0000
  C   C6        1.0  0.15810  0.62770  0.61720  1.0000
  C   C7        1.0  0.12650  0.31870  0.26060  1.0000
  C   C8        1.0  0.87350  0.68130  0.73940  1.0000
  C   C9        1.0  0.66370  0.23950  0.25650  1.0000
  C   C10       1.0  0.33630  0.76050  0.74350  1.0000
  H   H1        1.0  0.39100  0.18300  0.00300  1.0000
  H   H2        1.0  0.60900  0.81700  0.99700  1.0000
  H   H3        1.0  0.24500  0.25200  0.98200  1.0000
  H   H4        1.0  0.75500  0.74800  0.01800  1.0000
  H   H5        1.0  0.24800  0.85700  0.01800  1.0000
  H   H6        1.0  0.75200  0.14300  0.98200  1.0000
  H   H7        1.0  0.29100  0.96600  0.14300  1.0000
  H   H8        1.0  0.70900  0.03400  0.85700  1.0000
  H   H9        1.0  0.36500  0.56800  0.50500  1.0000
  H   H10       1.0  0.63500  0.43200  0.49500  1.0000
