data_image0
_chemical_formula_structural       ZnO12C10H10
_chemical_formula_sum              "Zn1 O12 C10 H10"
_cell_length_a       6.847
_cell_length_b       9.122
_cell_length_c       9.769
_cell_angle_alpha    104.87
_cell_angle_beta     98.16
_cell_angle_gamma    109.45

_space_group_name_H-M_alt    "P 1"
_space_group_IT_number       1

loop_
  _space_group_symop_operation_xyz
  'x, y, z'

loop_
  _atom_site_type_symbol
  _atom_site_label
  _atom_site_symmetry_multiplicity
  _atom_site_fract_x
  _atom_site_fract_y
  _atom_site_fract_z
  _atom_site_occupancy
  Zn  Zn1       1.0  0.00000  0.00000  0.00000  1.0000
  O   O1        1.0  0.25570  0.17290  0.95710  1.0000
  O   O2        1.0  0.74430  0.82710  0.04290  1.0000
  O   O3        1.0  0.20450  0.90340  0.08534  1.0000
  O   O4        1.0  0.79550  0.09660  0.91466  1.0000
  O   O5        1.0  0.02960  0.16174  0.21539  1.0000
  O   O6        1.0  0.97040  0.83826  0.78461  1.0000
  O   O7        1.0  0.27800  0.39500  0.22200  1.0000
  O   O8        1.0  0.72200  0.60500  0.77800  1.0000
  O   O9        1.0  0.65540  0.25530  0.13180  1.0000
  O   O10       1.0  0.34460  0.74470  0.86820  1.0000
  O   O11       1.0  0.53790  0.12550  0.28710  1.0000
  O   O12       1.0  0.46210  0.87450  0.71290  1.0000
  C   C1        1.0  0.21320  0.54050  0.50120  1.0000
  C   C2        1.0  0.78680  0.45950  0.49880  1.0000
  C   C3        1.0  0.05790  0.41170  0.38390  1.0000
  C   C4        1.0  0.94210  0.58830  0.61610  1.0000
  C   C5        1.0  0.84250  0.37200  0.38290  1.0000
  C   C6        1.0  0.15750  0.62800  0.61710  1.0000
  C   C7        1.0  0.12850  0.31660  0.26410  1.0000
  C   C8        1.0  0.87150  0.68340  0.73590  1.0000
  C   C9        1.0  0.66440  0.23880  0.25680  1.0000
  C   C10       1.0  0.33560  0.76120  0.74320  1.0000
  H   H1        1.0  0.39100  0.18500  0.00900  1.0000
  H   H2        1.0  0.60900  0.81500  0.99100  1.0000
  H   H3        1.0  0.24900  0.26000  0.97800  1.0000
  H   H4        1.0  0.75100  0.74000  0.02200  1.0000
  H   H5        1.0  0.24700  0.85300  0.01200  1.0000
  H   H6        1.0  0.75300  0.14700  0.98800  1.0000
  H   H7        1.0  0.30400  0.97700  0.14800  1.0000
  H   H8        1.0  0.69600  0.02300  0.85200  1.0000
  H   H9        1.0  0.36300  0.56800  0.51000  1.0000
  H   H10       1.0  0.63700  0.43200  0.49000  1.0000
