data_image0
_chemical_formula_structural       C24H28Mg4O32
_chemical_formula_sum              "C24 H28 Mg4 O32"
_cell_length_a       20.222
_cell_length_b       6.686
_cell_length_c       9.135
_cell_angle_alpha    90
_cell_angle_beta     96.86
_cell_angle_gamma    90

_space_group_name_H-M_alt    "P 1"
_space_group_IT_number       1

loop_
  _space_group_symop_operation_xyz
  'x, y, z'

loop_
  _atom_site_type_symbol
  _atom_site_label
  _atom_site_symmetry_multiplicity
  _atom_site_fract_x
  _atom_site_fract_y
  _atom_site_fract_z
  _atom_site_occupancy
  C   C1        1.0  0.32527  0.37608  0.78599  1.0000
  C   C2        1.0  0.17473  0.87608  0.71401  1.0000
  C   C3        1.0  0.67473  0.62392  0.21401  1.0000
  C   C4        1.0  0.82527  0.12392  0.28599  1.0000
  C   C5        1.0  0.38451  0.45577  0.88671  1.0000
  C   C6        1.0  0.11549  0.95577  0.61329  1.0000
  C   C7        1.0  0.61549  0.54423  0.11329  1.0000
  C   C8        1.0  0.88451  0.04423  0.38671  1.0000
  C   C9        1.0  0.36751  0.65485  0.96054  1.0000
  C   C10       1.0  0.13249  0.15485  0.53946  1.0000
  C   C11       1.0  0.63249  0.34515  0.03946  1.0000
  C   C12       1.0  0.86751  0.84515  0.46054  1.0000
  C   C13       1.0  0.43213  0.74662  0.03746  1.0000
  C   C14       1.0  0.06787  0.24662  0.46254  1.0000
  C   C15       1.0  0.56787  0.25338  0.96254  1.0000
  C   C16       1.0  0.93213  0.75338  0.53746  1.0000
  C   C17       1.0  0.42398  0.93765  0.12413  1.0000
  C   C18       1.0  0.07602  0.43765  0.37587  1.0000
  C   C19       1.0  0.57602  0.06235  0.87587  1.0000
  C   C20       1.0  0.92398  0.56235  0.62413  1.0000
  C   C21       1.0  0.31593  0.61785  0.07191  1.0000
  C   C22       1.0  0.18407  0.11785  0.42809  1.0000
  C   C23       1.0  0.68407  0.38215  0.92809  1.0000
  C   C24       1.0  0.81593  0.88215  0.57191  1.0000
  H   H1        1.0  0.42506  0.48305  0.82029  1.0000
  H   H2        1.0  0.07494  0.98305  0.67971  1.0000
  H   H3        1.0  0.57494  0.51695  0.17971  1.0000
  H   H4        1.0  0.92506  0.01695  0.32029  1.0000
  H   H5        1.0  0.40011  0.34753  0.97315  1.0000
  H   H6        1.0  0.09989  0.84753  0.52685  1.0000
  H   H7        1.0  0.59989  0.65247  0.02685  1.0000
  H   H8        1.0  0.90011  0.15247  0.47315  1.0000
  H   H9        1.0  0.46361  0.78380  0.95169  1.0000
  H   H10       1.0  0.03639  0.28380  0.54831  1.0000
  H   H11       1.0  0.53639  0.21620  0.04831  1.0000
  H   H12       1.0  0.96361  0.71620  0.45169  1.0000
  H   H13       1.0  0.45875  0.63691  0.11100  1.0000
  H   H14       1.0  0.04125  0.13691  0.38900  1.0000
  H   H15       1.0  0.54125  0.36309  0.88900  1.0000
  H   H16       1.0  0.95875  0.86309  0.61100  1.0000
  H   H17       1.0  0.31484  0.72995  0.76951  1.0000
  H   H18       1.0  0.18516  0.22995  0.73049  1.0000
  H   H19       1.0  0.68516  0.27005  0.23049  1.0000
  H   H20       1.0  0.81484  0.77005  0.26951  1.0000
  H   H21       1.0  0.21544  0.09673  0.18783  1.0000
  H   H22       1.0  0.28456  0.59673  0.31217  1.0000
  H   H23       1.0  0.78456  0.90327  0.81217  1.0000
  H   H24       1.0  0.71544  0.40327  0.68783  1.0000
  H   H25       1.0  0.26158  0.27605  0.15127  1.0000
  H   H26       1.0  0.23842  0.77605  0.34873  1.0000
  H   H27       1.0  0.73842  0.72395  0.84873  1.0000
  H   H28       1.0  0.76158  0.22395  0.65127  1.0000
  Mg  Mg1       1.0  0.28120  0.00002  0.96162  1.0000
  Mg  Mg2       1.0  0.21880  0.50002  0.53838  1.0000
  Mg  Mg3       1.0  0.71880  0.99998  0.03838  1.0000
  Mg  Mg4       1.0  0.78120  0.49998  0.46162  1.0000
  O   O1        1.0  0.30983  0.47427  0.66679  1.0000
  O   O2        1.0  0.19017  0.97427  0.83321  1.0000
  O   O3        1.0  0.69017  0.52573  0.33321  1.0000
  O   O4        1.0  0.80983  0.02573  0.16679  1.0000
  O   O5        1.0  0.29211  0.23046  0.82405  1.0000
  O   O6        1.0  0.20789  0.73046  0.67595  1.0000
  O   O7        1.0  0.70789  0.76954  0.17595  1.0000
  O   O8        1.0  0.79211  0.26954  0.32405  1.0000
  O   O9        1.0  0.47379  0.99938  0.20839  1.0000
  O   O10       1.0  0.02621  0.49938  0.29161  1.0000
  O   O11       1.0  0.52621  0.00062  0.79161  1.0000
  O   O12       1.0  0.97379  0.50062  0.70839  1.0000
  O   O13       1.0  0.36791  0.02758  0.10966  1.0000
  O   O14       1.0  0.13209  0.52758  0.39034  1.0000
  O   O15       1.0  0.63209  0.97242  0.89034  1.0000
  O   O16       1.0  0.86791  0.47242  0.60966  1.0000
  O   O17       1.0  0.26375  0.72467  0.05738  1.0000
  O   O18       1.0  0.23625  0.22467  0.44262  1.0000
  O   O19       1.0  0.73625  0.27533  0.94262  1.0000
  O   O20       1.0  0.76375  0.77533  0.55738  1.0000
  O   O21       1.0  0.32823  0.48746  0.17156  1.0000
  O   O22       1.0  0.17177  0.98746  0.32844  1.0000
  O   O23       1.0  0.67177  0.51254  0.82844  1.0000
  O   O24       1.0  0.82823  0.01254  0.67156  1.0000
  O   O25       1.0  0.33975  0.79917  0.85339  1.0000
  O   O26       1.0  0.16025  0.29917  0.64661  1.0000
  O   O27       1.0  0.66025  0.20083  0.14661  1.0000
  O   O28       1.0  0.83975  0.70083  0.35339  1.0000
  O   O29       1.0  0.23596  0.16252  0.10819  1.0000
  O   O30       1.0  0.26404  0.66252  0.39181  1.0000
  O   O31       1.0  0.76404  0.83748  0.89181  1.0000
  O   O32       1.0  0.73596  0.33748  0.60819  1.0000
