data_image0
_chemical_formula_structural       C24H28Mg4O32
_chemical_formula_sum              "C24 H28 Mg4 O32"
_cell_length_a       20.222
_cell_length_b       6.686
_cell_length_c       9.135
_cell_angle_alpha    90
_cell_angle_beta     96.86
_cell_angle_gamma    90

_space_group_name_H-M_alt    "P 1"
_space_group_IT_number       1

loop_
  _space_group_symop_operation_xyz
  'x, y, z'

loop_
  _atom_site_type_symbol
  _atom_site_label
  _atom_site_symmetry_multiplicity
  _atom_site_fract_x
  _atom_site_fract_y
  _atom_site_fract_z
  _atom_site_occupancy
  C   C1        1.0  0.32519  0.37960  0.78570  1.0000
  C   C2        1.0  0.17481  0.87960  0.71430  1.0000
  C   C3        1.0  0.67481  0.62040  0.21430  1.0000
  C   C4        1.0  0.82519  0.12040  0.28570  1.0000
  C   C5        1.0  0.38515  0.45890  0.88380  1.0000
  C   C6        1.0  0.11485  0.95890  0.61620  1.0000
  C   C7        1.0  0.61485  0.54110  0.11620  1.0000
  C   C8        1.0  0.88515  0.04110  0.38380  1.0000
  C   C9        1.0  0.36864  0.65750  0.95690  1.0000
  C   C10       1.0  0.13136  0.15750  0.54310  1.0000
  C   C11       1.0  0.63136  0.34250  0.04310  1.0000
  C   C12       1.0  0.86864  0.84250  0.45690  1.0000
  C   C13       1.0  0.43330  0.74990  0.03190  1.0000
  C   C14       1.0  0.06670  0.24990  0.46810  1.0000
  C   C15       1.0  0.56670  0.25010  0.96810  1.0000
  C   C16       1.0  0.93330  0.75010  0.53190  1.0000
  C   C17       1.0  0.42480  0.93970  0.11890  1.0000
  C   C18       1.0  0.07520  0.43970  0.38110  1.0000
  C   C19       1.0  0.57520  0.06030  0.88110  1.0000
  C   C20       1.0  0.92480  0.56030  0.61890  1.0000
  C   C21       1.0  0.31872  0.62230  0.07120  1.0000
  C   C22       1.0  0.18128  0.12230  0.42880  1.0000
  C   C23       1.0  0.68128  0.37770  0.92880  1.0000
  C   C24       1.0  0.81872  0.87770  0.57120  1.0000
  H   H1        1.0  0.42300  0.48500  0.82500  1.0000
  H   H2        1.0  0.07700  0.98500  0.67500  1.0000
  H   H3        1.0  0.57700  0.51500  0.17500  1.0000
  H   H4        1.0  0.92300  0.01500  0.32500  1.0000
  H   H5        1.0  0.40100  0.36400  0.96400  1.0000
  H   H6        1.0  0.09900  0.86400  0.53600  1.0000
  H   H7        1.0  0.59900  0.63600  0.03600  1.0000
  H   H8        1.0  0.90100  0.13600  0.46400  1.0000
  H   H9        1.0  0.46100  0.78500  0.95500  1.0000
  H   H10       1.0  0.03900  0.28500  0.54500  1.0000
  H   H11       1.0  0.53900  0.21500  0.04500  1.0000
  H   H12       1.0  0.96100  0.71500  0.45500  1.0000
  H   H13       1.0  0.45900  0.65000  0.09900  1.0000
  H   H14       1.0  0.04100  0.15000  0.40100  1.0000
  H   H15       1.0  0.54100  0.35000  0.90100  1.0000
  H   H16       1.0  0.95900  0.85000  0.59900  1.0000
  H   H17       1.0  0.31600  0.74300  0.78300  1.0000
  H   H18       1.0  0.18400  0.24300  0.71700  1.0000
  H   H19       1.0  0.68400  0.25700  0.21700  1.0000
  H   H20       1.0  0.81600  0.75700  0.28300  1.0000
  H   H21       1.0  0.21800  0.11000  0.17600  1.0000
  H   H22       1.0  0.28200  0.61000  0.32400  1.0000
  H   H23       1.0  0.78200  0.89000  0.82400  1.0000
  H   H24       1.0  0.71800  0.39000  0.67600  1.0000
  H   H25       1.0  0.26400  0.25800  0.14800  1.0000
  H   H26       1.0  0.23600  0.75800  0.35200  1.0000
  H   H27       1.0  0.73600  0.74200  0.85200  1.0000
  H   H28       1.0  0.76400  0.24200  0.64800  1.0000
  Mg  Mg1       1.0  0.28212  0.00189  0.96097  1.0000
  Mg  Mg2       1.0  0.21788  0.50189  0.53903  1.0000
  Mg  Mg3       1.0  0.71788  0.99811  0.03903  1.0000
  Mg  Mg4       1.0  0.78212  0.49811  0.46097  1.0000
  O   O1        1.0  0.30934  0.47270  0.66600  1.0000
  O   O2        1.0  0.19066  0.97270  0.83400  1.0000
  O   O3        1.0  0.69066  0.52730  0.33400  1.0000
  O   O4        1.0  0.80934  0.02730  0.16600  1.0000
  O   O5        1.0  0.29238  0.23680  0.82660  1.0000
  O   O6        1.0  0.20762  0.73680  0.67340  1.0000
  O   O7        1.0  0.70762  0.76320  0.17340  1.0000
  O   O8        1.0  0.79238  0.26320  0.32660  1.0000
  O   O9        1.0  0.47383  0.99710  0.20580  1.0000
  O   O10       1.0  0.02617  0.49710  0.29420  1.0000
  O   O11       1.0  0.52617  0.00290  0.79420  1.0000
  O   O12       1.0  0.97383  0.50290  0.70580  1.0000
  O   O13       1.0  0.37011  0.03180  0.10180  1.0000
  O   O14       1.0  0.12989  0.53180  0.39820  1.0000
  O   O15       1.0  0.62989  0.96820  0.89820  1.0000
  O   O16       1.0  0.87011  0.46820  0.60180  1.0000
  O   O17       1.0  0.26644  0.72660  0.05750  1.0000
  O   O18       1.0  0.23356  0.22660  0.44250  1.0000
  O   O19       1.0  0.73356  0.27340  0.94250  1.0000
  O   O20       1.0  0.76644  0.77340  0.55750  1.0000
  O   O21       1.0  0.33276  0.49630  0.17130  1.0000
  O   O22       1.0  0.16724  0.99630  0.32870  1.0000
  O   O23       1.0  0.66724  0.50370  0.82870  1.0000
  O   O24       1.0  0.83276  0.00370  0.67130  1.0000
  O   O25       1.0  0.33994  0.80110  0.84980  1.0000
  O   O26       1.0  0.16006  0.30110  0.65020  1.0000
  O   O27       1.0  0.66006  0.19890  0.15020  1.0000
  O   O28       1.0  0.83994  0.69890  0.34980  1.0000
  O   O29       1.0  0.23827  0.16410  0.11070  1.0000
  O   O30       1.0  0.26173  0.66410  0.38930  1.0000
  O   O31       1.0  0.76173  0.83590  0.88930  1.0000
  O   O32       1.0  0.73827  0.33590  0.61070  1.0000
