data_image0
_chemical_formula_structural       Cu8Mn4C24H4C4H4C4H4C4H4C28H4C4H4C4H4C4H4C4N16O48
_chemical_formula_sum              "Cu8 Mn4 C80 H32 N16 O48"
_cell_length_a       35.737
_cell_length_b       9.782
_cell_length_c       16.144
_cell_angle_alpha    90
_cell_angle_beta     90
_cell_angle_gamma    90

_space_group_name_H-M_alt    "P 1"
_space_group_IT_number       1

loop_
  _space_group_symop_operation_xyz
  'x, y, z'

loop_
  _atom_site_type_symbol
  _atom_site_label
  _atom_site_symmetry_multiplicity
  _atom_site_fract_x
  _atom_site_fract_y
  _atom_site_fract_z
  _atom_site_occupancy
  Cu  Cu1       1.0  0.23750  0.38323  0.96934  1.0000
  Cu  Cu2       1.0  0.76250  0.61677  0.46934  1.0000
  Cu  Cu3       1.0  0.26250  0.88323  0.46934  1.0000
  Cu  Cu4       1.0  0.73750  0.11677  0.96934  1.0000
  Cu  Cu5       1.0  0.03307  0.19655  0.65879  1.0000
  Cu  Cu6       1.0  0.96693  0.80345  0.15879  1.0000
  Cu  Cu7       1.0  0.46693  0.69655  0.15879  1.0000
  Cu  Cu8       1.0  0.53307  0.30345  0.65879  1.0000
  Mn  Mn1       1.0  0.17918  0.09405  0.71579  1.0000
  Mn  Mn2       1.0  0.82082  0.90595  0.21579  1.0000
  Mn  Mn3       1.0  0.32082  0.59405  0.21579  1.0000
  Mn  Mn4       1.0  0.67918  0.40595  0.71579  1.0000
  C   C1        1.0  0.22004  0.17650  0.86260  1.0000
  C   C2        1.0  0.77996  0.82350  0.36260  1.0000
  C   C3        1.0  0.27996  0.67650  0.36260  1.0000
  C   C4        1.0  0.72004  0.32350  0.86260  1.0000
  C   C5        1.0  0.19816  0.30620  0.83600  1.0000
  C   C6        1.0  0.80184  0.69380  0.33600  1.0000
  C   C7        1.0  0.30184  0.80620  0.33600  1.0000
  C   C8        1.0  0.69816  0.19380  0.83600  1.0000
  C   C9        1.0  0.28335  0.40850  0.10310  1.0000
  C   C10       1.0  0.71665  0.59150  0.60310  1.0000
  C   C11       1.0  0.21665  0.90850  0.60310  1.0000
  C   C12       1.0  0.78335  0.09150  0.10310  1.0000
  C   C13       1.0  0.26480  0.54910  0.08770  1.0000
  C   C14       1.0  0.73520  0.45090  0.58770  1.0000
  C   C15       1.0  0.23520  0.04910  0.58770  1.0000
  C   C16       1.0  0.76480  0.95090  0.08770  1.0000
  C   C17       1.0  0.26539  0.11580  0.97230  1.0000
  C   C18       1.0  0.73461  0.88420  0.47230  1.0000
  C   C19       1.0  0.23461  0.61580  0.47230  1.0000
  C   C20       1.0  0.76539  0.38420  0.97230  1.0000
  C   C21       1.0  0.27352  0.97820  0.95470  1.0000
  C   C22       1.0  0.72648  0.02180  0.45470  1.0000
  C   C23       1.0  0.22648  0.47820  0.45470  1.0000
  C   C24       1.0  0.77352  0.52180  0.95470  1.0000
  H   H1        1.0  0.26320  0.93560  0.90770  1.0000
  H   H2        1.0  0.73680  0.06440  0.40770  1.0000
  H   H3        1.0  0.23680  0.43560  0.40770  1.0000
  H   H4        1.0  0.76320  0.56440  0.90770  1.0000
  C   C25       1.0  0.29678  0.90690  0.00720  1.0000
  C   C26       1.0  0.70322  0.09310  0.50720  1.0000
  C   C27       1.0  0.20322  0.40690  0.50720  1.0000
  C   C28       1.0  0.79678  0.59310  0.00720  1.0000
  H   H5        1.0  0.30220  0.81470  0.99570  1.0000
  H   H6        1.0  0.69780  0.18530  0.49570  1.0000
  H   H7        1.0  0.19780  0.31470  0.49570  1.0000
  H   H8        1.0  0.80220  0.68530  0.99570  1.0000
  C   C29       1.0  0.31242  0.96770  0.07660  1.0000
  C   C30       1.0  0.68758  0.03230  0.57660  1.0000
  C   C31       1.0  0.18758  0.46770  0.57660  1.0000
  C   C32       1.0  0.81242  0.53230  0.07660  1.0000
  H   H9        1.0  0.32780  0.91640  0.11220  1.0000
  H   H10       1.0  0.67220  0.08360  0.61220  1.0000
  H   H11       1.0  0.17220  0.41640  0.61220  1.0000
  H   H12       1.0  0.82780  0.58360  0.11220  1.0000
  C   C33       1.0  0.30538  0.10410  0.09350  1.0000
  C   C34       1.0  0.69462  0.89590  0.59350  1.0000
  C   C35       1.0  0.19462  0.60410  0.59350  1.0000
  C   C36       1.0  0.80538  0.39590  0.09350  1.0000
  H   H13       1.0  0.31640  0.14690  0.13960  1.0000
  H   H14       1.0  0.68360  0.85310  0.63960  1.0000
  H   H15       1.0  0.18360  0.64690  0.63960  1.0000
  H   H16       1.0  0.81640  0.35310  0.13960  1.0000
  C   C37       1.0  0.28146  0.17710  0.04080  1.0000
  C   C38       1.0  0.71854  0.82290  0.54080  1.0000
  C   C39       1.0  0.21854  0.67710  0.54080  1.0000
  C   C40       1.0  0.78146  0.32290  0.04080  1.0000
  C   C41       1.0  0.09811  0.09300  0.72210  1.0000
  C   C42       1.0  0.90189  0.90700  0.22210  1.0000
  C   C43       1.0  0.40189  0.59300  0.22210  1.0000
  C   C44       1.0  0.59811  0.40700  0.72210  1.0000
  C   C45       1.0  0.10791  0.17020  0.64100  1.0000
  C   C46       1.0  0.89209  0.82980  0.14100  1.0000
  C   C47       1.0  0.39209  0.67020  0.14100  1.0000
  C   C48       1.0  0.60791  0.32980  0.64100  1.0000
  C   C49       1.0  0.95923  0.19320  0.70550  1.0000
  C   C50       1.0  0.04077  0.80680  0.20550  1.0000
  C   C51       1.0  0.54077  0.69320  0.20550  1.0000
  C   C52       1.0  0.45923  0.30680  0.70550  1.0000
  C   C53       1.0  0.96309  0.28090  0.62530  1.0000
  C   C54       1.0  0.03691  0.71910  0.12530  1.0000
  C   C55       1.0  0.53691  0.78090  0.12530  1.0000
  C   C56       1.0  0.46309  0.21910  0.62530  1.0000
  C   C57       1.0  0.04149  0.03580  0.80180  1.0000
  C   C58       1.0  0.95851  0.96420  0.30180  1.0000
  C   C59       1.0  0.45851  0.53580  0.30180  1.0000
  C   C60       1.0  0.54149  0.46420  0.80180  1.0000
  C   C61       1.0  0.05515  0.95600  0.86500  1.0000
  C   C62       1.0  0.94485  0.04400  0.36500  1.0000
  C   C63       1.0  0.44485  0.45600  0.36500  1.0000
  C   C64       1.0  0.55515  0.54400  0.86500  1.0000
  H   H17       1.0  0.08090  0.93630  0.86790  1.0000
  H   H18       1.0  0.91910  0.06370  0.36790  1.0000
  H   H19       1.0  0.41910  0.43630  0.36790  1.0000
  H   H20       1.0  0.58090  0.56370  0.86790  1.0000
  C   C65       1.0  0.03101  0.90460  0.92430  1.0000
  C   C66       1.0  0.96899  0.09540  0.42430  1.0000
  C   C67       1.0  0.46899  0.40460  0.42430  1.0000
  C   C68       1.0  0.53101  0.59540  0.92430  1.0000
  H   H21       1.0  0.04050  0.85230  0.96850  1.0000
  H   H22       1.0  0.95950  0.14770  0.46850  1.0000
  H   H23       1.0  0.45950  0.35230  0.46850  1.0000
  H   H24       1.0  0.54050  0.64770  0.96850  1.0000
  C   C69       1.0  0.99349  0.92950  0.91890  1.0000
  C   C70       1.0  0.00651  0.07050  0.41890  1.0000
  C   C71       1.0  0.50651  0.42950  0.41890  1.0000
  C   C72       1.0  0.49349  0.57050  0.91890  1.0000
  H   H25       1.0  0.97740  0.89160  0.95880  1.0000
  H   H26       1.0  0.02260  0.10840  0.45880  1.0000
  H   H27       1.0  0.52260  0.39160  0.45880  1.0000
  H   H28       1.0  0.47740  0.60840  0.95880  1.0000
  C   C73       1.0  0.97868  0.00920  0.85600  1.0000
  C   C74       1.0  0.02132  0.99080  0.35600  1.0000
  C   C75       1.0  0.52132  0.50920  0.35600  1.0000
  C   C76       1.0  0.47868  0.49080  0.85600  1.0000
  H   H29       1.0  0.95280  0.02550  0.85370  1.0000
  H   H30       1.0  0.04720  0.97450  0.35370  1.0000
  H   H31       1.0  0.54720  0.52550  0.35370  1.0000
  H   H32       1.0  0.45280  0.47450  0.85370  1.0000
  C   C77       1.0  0.00243  0.06560  0.79600  1.0000
  C   C78       1.0  0.99757  0.93440  0.29600  1.0000
  C   C79       1.0  0.49757  0.56560  0.29600  1.0000
  C   C80       1.0  0.50243  0.43440  0.79600  1.0000
  N   N1        1.0  0.24169  0.20220  0.92618  1.0000
  N   N2        1.0  0.75831  0.79780  0.42618  1.0000
  N   N3        1.0  0.25831  0.70220  0.42618  1.0000
  N   N4        1.0  0.74169  0.29780  0.92618  1.0000
  N   N5        1.0  0.27121  0.31710  0.05110  1.0000
  N   N6        1.0  0.72879  0.68290  0.55110  1.0000
  N   N7        1.0  0.22879  0.81710  0.55110  1.0000
  N   N8        1.0  0.77121  0.18290  0.05110  1.0000
  N   N9        1.0  0.06206  0.09300  0.73597  1.0000
  N   N10       1.0  0.93794  0.90700  0.23597  1.0000
  N   N11       1.0  0.43794  0.59300  0.23597  1.0000
  N   N12       1.0  0.56206  0.40700  0.73597  1.0000
  N   N13       1.0  0.99263  0.14770  0.72866  1.0000
  N   N14       1.0  0.00737  0.85230  0.22866  1.0000
  N   N15       1.0  0.50737  0.64770  0.22866  1.0000
  N   N16       1.0  0.49263  0.35230  0.72866  1.0000
  O   O1        1.0  0.20236  0.41360  0.87937  1.0000
  O   O2        1.0  0.79764  0.58640  0.37937  1.0000
  O   O3        1.0  0.29764  0.91360  0.37937  1.0000
  O   O4        1.0  0.70236  0.08640  0.87937  1.0000
  O   O5        1.0  0.17802  0.29590  0.77356  1.0000
  O   O6        1.0  0.82198  0.70410  0.27356  1.0000
  O   O7        1.0  0.32198  0.79590  0.27356  1.0000
  O   O8        1.0  0.67802  0.20410  0.77356  1.0000
  O   O9        1.0  0.21483  0.06670  0.82425  1.0000
  O   O10       1.0  0.78517  0.93330  0.32425  1.0000
  O   O11       1.0  0.28517  0.56670  0.32425  1.0000
  O   O12       1.0  0.71483  0.43330  0.82425  1.0000
  O   O13       1.0  0.24132  0.55720  0.02734  1.0000
  O   O14       1.0  0.75868  0.44280  0.52734  1.0000
  O   O15       1.0  0.25868  0.05720  0.52734  1.0000
  O   O16       1.0  0.74132  0.94280  0.02734  1.0000
  O   O17       1.0  0.27315  0.64470  0.13424  1.0000
  O   O18       1.0  0.72685  0.35530  0.63424  1.0000
  O   O19       1.0  0.22685  0.14470  0.63424  1.0000
  O   O20       1.0  0.77315  0.85530  0.13424  1.0000
  O   O21       1.0  0.30726  0.39880  0.16002  1.0000
  O   O22       1.0  0.69274  0.60120  0.66002  1.0000
  O   O23       1.0  0.19274  0.89880  0.66002  1.0000
  O   O24       1.0  0.80726  0.10120  0.16002  1.0000
  O   O25       1.0  0.08108  0.22460  0.60134  1.0000
  O   O26       1.0  0.91892  0.77540  0.10134  1.0000
  O   O27       1.0  0.41892  0.72460  0.10134  1.0000
  O   O28       1.0  0.58108  0.27540  0.60134  1.0000
  O   O29       1.0  0.14130  0.17310  0.62087  1.0000
  O   O30       1.0  0.85870  0.82690  0.12087  1.0000
  O   O31       1.0  0.35870  0.67310  0.12087  1.0000
  O   O32       1.0  0.64130  0.32690  0.62087  1.0000
  O   O33       1.0  0.12448  0.04090  0.76405  1.0000
  O   O34       1.0  0.87552  0.95910  0.26405  1.0000
  O   O35       1.0  0.37552  0.54090  0.26405  1.0000
  O   O36       1.0  0.62448  0.45910  0.76405  1.0000
  O   O37       1.0  0.99634  0.29490  0.59512  1.0000
  O   O38       1.0  0.00366  0.70510  0.09512  1.0000
  O   O39       1.0  0.50366  0.79490  0.09512  1.0000
  O   O40       1.0  0.49634  0.20510  0.59512  1.0000
  O   O41       1.0  0.93501  0.32990  0.59370  1.0000
  O   O42       1.0  0.06499  0.67010  0.09370  1.0000
  O   O43       1.0  0.56499  0.82990  0.09370  1.0000
  O   O44       1.0  0.43501  0.17010  0.59370  1.0000
  O   O45       1.0  0.92850  0.17450  0.73873  1.0000
  O   O46       1.0  0.07150  0.82550  0.23873  1.0000
  O   O47       1.0  0.57150  0.67450  0.23873  1.0000
  O   O48       1.0  0.42850  0.32550  0.73873  1.0000
