data_image0
_chemical_formula_structural       In4O8N4C24H8C16H8O8C16H8C8H8C8H8C4O16C32H8C8H8C8H8C8H8N4C8H8C20H8C12H8C4
_chemical_formula_sum              "In4 O32 N8 C176 H96"
_cell_length_a       11.033
_cell_length_b       12.713
_cell_length_c       36.597
_cell_angle_alpha    90
_cell_angle_beta     90
_cell_angle_gamma    90

_space_group_name_H-M_alt    "P 1"
_space_group_IT_number       1

loop_
  _space_group_symop_operation_xyz
  'x, y, z'

loop_
  _atom_site_type_symbol
  _atom_site_label
  _atom_site_symmetry_multiplicity
  _atom_site_fract_x
  _atom_site_fract_y
  _atom_site_fract_z
  _atom_site_occupancy
  In  In1       1.0  0.25000  0.00000  0.09723  1.0000
  In  In2       1.0  0.75000  0.00000  0.40277  1.0000
  In  In3       1.0  0.75000  0.00000  0.90277  1.0000
  In  In4       1.0  0.25000  0.00000  0.59723  1.0000
  O   O1        1.0  0.35900  0.94190  0.64224  1.0000
  O   O2        1.0  0.14100  0.05810  0.64224  1.0000
  O   O3        1.0  0.85900  0.05810  0.85776  1.0000
  O   O4        1.0  0.64100  0.94190  0.85776  1.0000
  O   O5        1.0  0.64100  0.05810  0.35776  1.0000
  O   O6        1.0  0.85900  0.94190  0.35776  1.0000
  O   O7        1.0  0.14100  0.94190  0.14224  1.0000
  O   O8        1.0  0.35900  0.05810  0.14224  1.0000
  N   N1        1.0  0.75000  0.50000  0.69280  1.0000
  N   N2        1.0  0.25000  0.50000  0.80720  1.0000
  N   N3        1.0  0.25000  0.50000  0.30720  1.0000
  N   N4        1.0  0.75000  0.50000  0.19280  1.0000
  C   C1        1.0  0.62150  0.65250  0.68951  1.0000
  C   C2        1.0  0.87850  0.34750  0.68951  1.0000
  C   C3        1.0  0.12150  0.34750  0.81049  1.0000
  C   C4        1.0  0.37850  0.65250  0.81049  1.0000
  C   C5        1.0  0.37850  0.34750  0.31049  1.0000
  C   C6        1.0  0.12150  0.65250  0.31049  1.0000
  C   C7        1.0  0.87850  0.65250  0.18951  1.0000
  C   C8        1.0  0.62150  0.34750  0.18951  1.0000
  C   C9        1.0  0.48880  0.79380  0.64764  1.0000
  C   C10       1.0  0.01120  0.20620  0.64764  1.0000
  C   C11       1.0  0.98880  0.20620  0.85236  1.0000
  C   C12       1.0  0.51120  0.79380  0.85236  1.0000
  C   C13       1.0  0.51120  0.20620  0.35236  1.0000
  C   C14       1.0  0.98880  0.79380  0.35236  1.0000
  C   C15       1.0  0.01120  0.79380  0.14764  1.0000
  C   C16       1.0  0.48880  0.20620  0.14764  1.0000
  C   C17       1.0  0.68490  0.57400  0.74950  1.0000
  C   C18       1.0  0.81510  0.42600  0.74950  1.0000
  C   C19       1.0  0.18490  0.42600  0.75050  1.0000
  C   C20       1.0  0.31510  0.57400  0.75050  1.0000
  C   C21       1.0  0.31510  0.42600  0.25050  1.0000
  C   C22       1.0  0.18490  0.57400  0.25050  1.0000
  C   C23       1.0  0.81510  0.57400  0.24950  1.0000
  C   C24       1.0  0.68490  0.42600  0.24950  1.0000
  H   H1        1.0  0.63850  0.62420  0.76160  1.0000
  H   H2        1.0  0.86150  0.37580  0.76160  1.0000
  H   H3        1.0  0.13850  0.37580  0.73840  1.0000
  H   H4        1.0  0.36150  0.62420  0.73840  1.0000
  H   H5        1.0  0.36150  0.37580  0.23840  1.0000
  H   H6        1.0  0.13850  0.62420  0.23840  1.0000
  H   H7        1.0  0.86150  0.62420  0.26160  1.0000
  H   H8        1.0  0.63850  0.37580  0.26160  1.0000
  C   C25       1.0  0.68850  0.57350  0.71171  1.0000
  C   C26       1.0  0.81150  0.42650  0.71171  1.0000
  C   C27       1.0  0.18850  0.42650  0.78829  1.0000
  C   C28       1.0  0.31150  0.57350  0.78829  1.0000
  C   C29       1.0  0.31150  0.42650  0.28829  1.0000
  C   C30       1.0  0.18850  0.57350  0.28829  1.0000
  C   C31       1.0  0.81150  0.57350  0.21171  1.0000
  C   C32       1.0  0.68850  0.42650  0.21171  1.0000
  C   C33       1.0  0.59950  0.63290  0.65280  1.0000
  C   C34       1.0  0.90050  0.36710  0.65280  1.0000
  C   C35       1.0  0.09950  0.36710  0.84720  1.0000
  C   C36       1.0  0.40050  0.63290  0.84720  1.0000
  C   C37       1.0  0.40050  0.36710  0.34720  1.0000
  C   C38       1.0  0.09950  0.63290  0.34720  1.0000
  C   C39       1.0  0.90050  0.63290  0.15280  1.0000
  C   C40       1.0  0.59950  0.36710  0.15280  1.0000
  H   H9        1.0  0.62810  0.57120  0.64220  1.0000
  H   H10       1.0  0.87190  0.42880  0.64220  1.0000
  H   H11       1.0  0.12810  0.42880  0.85780  1.0000
  H   H12       1.0  0.37190  0.57120  0.85780  1.0000
  H   H13       1.0  0.37190  0.42880  0.35780  1.0000
  H   H14       1.0  0.12810  0.57120  0.35780  1.0000
  H   H15       1.0  0.87190  0.57120  0.14220  1.0000
  H   H16       1.0  0.62810  0.42880  0.14220  1.0000
  O   O9        1.0  0.39240  0.85170  0.59316  1.0000
  O   O10       1.0  0.10760  0.14830  0.59316  1.0000
  O   O11       1.0  0.89240  0.14830  0.90684  1.0000
  O   O12       1.0  0.60760  0.85170  0.90684  1.0000
  O   O13       1.0  0.60760  0.14830  0.40684  1.0000
  O   O14       1.0  0.89240  0.85170  0.40684  1.0000
  O   O15       1.0  0.10760  0.85170  0.09316  1.0000
  O   O16       1.0  0.39240  0.14830  0.09316  1.0000
  C   C41       1.0  0.40940  0.86610  0.62580  1.0000
  C   C42       1.0  0.09060  0.13390  0.62580  1.0000
  C   C43       1.0  0.90940  0.13390  0.87420  1.0000
  C   C44       1.0  0.59060  0.86610  0.87420  1.0000
  C   C45       1.0  0.59060  0.13390  0.37420  1.0000
  C   C46       1.0  0.90940  0.86610  0.37420  1.0000
  C   C47       1.0  0.09060  0.86610  0.12580  1.0000
  C   C48       1.0  0.40940  0.13390  0.12580  1.0000
  C   C49       1.0  0.51120  0.81370  0.68420  1.0000
  C   C50       1.0  0.98880  0.18630  0.68420  1.0000
  C   C51       1.0  0.01120  0.18630  0.81580  1.0000
  C   C52       1.0  0.48880  0.81370  0.81580  1.0000
  C   C53       1.0  0.48880  0.18630  0.31580  1.0000
  C   C54       1.0  0.01120  0.81370  0.31580  1.0000
  C   C55       1.0  0.98880  0.81370  0.18420  1.0000
  C   C56       1.0  0.51120  0.18630  0.18420  1.0000
  H   H17       1.0  0.47970  0.87370  0.69510  1.0000
  H   H18       1.0  0.02030  0.12630  0.69510  1.0000
  H   H19       1.0  0.97970  0.12630  0.80490  1.0000
  H   H20       1.0  0.52030  0.87370  0.80490  1.0000
  H   H21       1.0  0.52030  0.12630  0.30490  1.0000
  H   H22       1.0  0.97970  0.87370  0.30490  1.0000
  H   H23       1.0  0.02030  0.87370  0.19510  1.0000
  H   H24       1.0  0.47970  0.12630  0.19510  1.0000
  C   C57       1.0  0.53550  0.70450  0.63160  1.0000
  C   C58       1.0  0.96450  0.29550  0.63160  1.0000
  C   C59       1.0  0.03550  0.29550  0.86840  1.0000
  C   C60       1.0  0.46450  0.70450  0.86840  1.0000
  C   C61       1.0  0.46450  0.29550  0.36840  1.0000
  C   C62       1.0  0.03550  0.70450  0.36840  1.0000
  C   C63       1.0  0.96450  0.70450  0.13160  1.0000
  C   C64       1.0  0.53550  0.29550  0.13160  1.0000
  H   H25       1.0  0.52410  0.69220  0.60680  1.0000
  H   H26       1.0  0.97590  0.30780  0.60680  1.0000
  H   H27       1.0  0.02410  0.30780  0.89320  1.0000
  H   H28       1.0  0.47590  0.69220  0.89320  1.0000
  H   H29       1.0  0.47590  0.30780  0.39320  1.0000
  H   H30       1.0  0.02410  0.69220  0.39320  1.0000
  H   H31       1.0  0.97590  0.69220  0.10680  1.0000
  H   H32       1.0  0.52410  0.30780  0.10680  1.0000
  C   C65       1.0  0.57950  0.74510  0.70415  1.0000
  C   C66       1.0  0.92050  0.25490  0.70415  1.0000
  C   C67       1.0  0.07950  0.25490  0.79585  1.0000
  C   C68       1.0  0.42050  0.74510  0.79585  1.0000
  C   C69       1.0  0.42050  0.25490  0.29585  1.0000
  C   C70       1.0  0.07950  0.74510  0.29585  1.0000
  C   C71       1.0  0.92050  0.74510  0.20415  1.0000
  C   C72       1.0  0.57950  0.25490  0.20415  1.0000
  H   H33       1.0  0.59810  0.76140  0.72830  1.0000
  H   H34       1.0  0.90190  0.23860  0.72830  1.0000
  H   H35       1.0  0.09810  0.23860  0.77170  1.0000
  H   H36       1.0  0.40190  0.76140  0.77170  1.0000
  H   H37       1.0  0.40190  0.23860  0.27170  1.0000
  H   H38       1.0  0.09810  0.76140  0.27170  1.0000
  H   H39       1.0  0.90190  0.76140  0.22830  1.0000
  H   H40       1.0  0.59810  0.23860  0.22830  1.0000
  C   C73       1.0  0.75000  0.50000  0.76950  1.0000
  C   C74       1.0  0.25000  0.50000  0.73050  1.0000
  C   C75       1.0  0.25000  0.50000  0.23050  1.0000
  C   C76       1.0  0.75000  0.50000  0.26950  1.0000
  O   O17       1.0  0.12540  0.15860  0.10220  1.0000
  O   O18       1.0  0.37460  0.84140  0.10220  1.0000
  O   O19       1.0  0.62540  0.84140  0.39780  1.0000
  O   O20       1.0  0.87460  0.15860  0.39780  1.0000
  O   O21       1.0  0.87460  0.84140  0.89780  1.0000
  O   O22       1.0  0.62540  0.15860  0.89780  1.0000
  O   O23       1.0  0.37460  0.15860  0.60220  1.0000
  O   O24       1.0  0.12540  0.84140  0.60220  1.0000
  O   O25       1.0  0.14270  0.06050  0.05362  1.0000
  O   O26       1.0  0.35730  0.93950  0.05362  1.0000
  O   O27       1.0  0.64270  0.93950  0.44638  1.0000
  O   O28       1.0  0.85730  0.06050  0.44638  1.0000
  O   O29       1.0  0.85730  0.93950  0.94638  1.0000
  O   O30       1.0  0.64270  0.06050  0.94638  1.0000
  O   O31       1.0  0.35730  0.06050  0.55362  1.0000
  O   O32       1.0  0.14270  0.93950  0.55362  1.0000
  C   C77       1.0  0.02340  0.21460  0.04830  1.0000
  C   C78       1.0  0.47660  0.78540  0.04830  1.0000
  C   C79       1.0  0.52340  0.78540  0.45170  1.0000
  C   C80       1.0  0.97660  0.21460  0.45170  1.0000
  C   C81       1.0  0.97660  0.78540  0.95170  1.0000
  C   C82       1.0  0.52340  0.21460  0.95170  1.0000
  C   C83       1.0  0.47660  0.21460  0.54830  1.0000
  C   C84       1.0  0.02340  0.78540  0.54830  1.0000
  C   C85       1.0  0.09930  0.13990  0.06880  1.0000
  C   C86       1.0  0.40070  0.86010  0.06880  1.0000
  C   C87       1.0  0.59930  0.86010  0.43120  1.0000
  C   C88       1.0  0.90070  0.13990  0.43120  1.0000
  C   C89       1.0  0.90070  0.86010  0.93120  1.0000
  C   C90       1.0  0.59930  0.13990  0.93120  1.0000
  C   C91       1.0  0.40070  0.13990  0.56880  1.0000
  C   C92       1.0  0.09930  0.86010  0.56880  1.0000
  C   C93       1.0  0.88200  0.35050  0.00661  1.0000
  C   C94       1.0  0.61800  0.64950  0.00661  1.0000
  C   C95       1.0  0.38200  0.64950  0.49339  1.0000
  C   C96       1.0  0.11800  0.35050  0.49339  1.0000
  C   C97       1.0  0.11800  0.64950  0.99339  1.0000
  C   C98       1.0  0.38200  0.35050  0.99339  1.0000
  C   C99       1.0  0.61800  0.35050  0.50661  1.0000
  C   C100      1.0  0.88200  0.64950  0.50661  1.0000
  C   C101      1.0  0.98290  0.18460  0.01380  1.0000
  C   C102      1.0  0.51710  0.81540  0.01380  1.0000
  C   C103      1.0  0.48290  0.81540  0.48620  1.0000
  C   C104      1.0  0.01710  0.18460  0.48620  1.0000
  C   C105      1.0  0.01710  0.81540  0.98620  1.0000
  C   C106      1.0  0.48290  0.18460  0.98620  1.0000
  C   C107      1.0  0.51710  0.18460  0.51380  1.0000
  C   C108      1.0  0.98290  0.81540  0.51380  1.0000
  H   H41       1.0  0.00470  0.11930  0.00440  1.0000
  H   H42       1.0  0.49530  0.88070  0.00440  1.0000
  H   H43       1.0  0.50470  0.88070  0.49560  1.0000
  H   H44       1.0  0.99530  0.11930  0.49560  1.0000
  H   H45       1.0  0.99530  0.88070  0.99560  1.0000
  H   H46       1.0  0.50470  0.11930  0.99560  1.0000
  H   H47       1.0  0.49530  0.11930  0.50440  1.0000
  H   H48       1.0  0.00470  0.88070  0.50440  1.0000
  C   C109      1.0  0.91030  0.25170  0.99310  1.0000
  C   C110      1.0  0.58970  0.74830  0.99310  1.0000
  C   C111      1.0  0.41030  0.74830  0.50690  1.0000
  C   C112      1.0  0.08970  0.25170  0.50690  1.0000
  C   C113      1.0  0.08970  0.74830  0.00690  1.0000
  C   C114      1.0  0.41030  0.25170  0.00690  1.0000
  C   C115      1.0  0.58970  0.25170  0.49310  1.0000
  C   C116      1.0  0.91030  0.74830  0.49310  1.0000
  H   H49       1.0  0.88110  0.23030  0.97040  1.0000
  H   H50       1.0  0.61890  0.76970  0.97040  1.0000
  H   H51       1.0  0.38110  0.76970  0.52960  1.0000
  H   H52       1.0  0.11890  0.23030  0.52960  1.0000
  H   H53       1.0  0.11890  0.76970  0.02960  1.0000
  H   H54       1.0  0.38110  0.23030  0.02960  1.0000
  H   H55       1.0  0.61890  0.23030  0.47040  1.0000
  H   H56       1.0  0.88110  0.76970  0.47040  1.0000
  C   C117      1.0  0.92470  0.38010  0.04150  1.0000
  C   C118      1.0  0.57530  0.61990  0.04150  1.0000
  C   C119      1.0  0.42470  0.61990  0.45850  1.0000
  C   C120      1.0  0.07530  0.38010  0.45850  1.0000
  C   C121      1.0  0.07530  0.61990  0.95850  1.0000
  C   C122      1.0  0.42470  0.38010  0.95850  1.0000
  C   C123      1.0  0.57530  0.38010  0.54150  1.0000
  C   C124      1.0  0.92470  0.61990  0.54150  1.0000
  H   H57       1.0  0.90830  0.44680  0.05060  1.0000
  H   H58       1.0  0.59170  0.55320  0.05060  1.0000
  H   H59       1.0  0.40830  0.55320  0.44940  1.0000
  H   H60       1.0  0.09170  0.44680  0.44940  1.0000
  H   H61       1.0  0.09170  0.55320  0.94940  1.0000
  H   H62       1.0  0.40830  0.44680  0.94940  1.0000
  H   H63       1.0  0.59170  0.44680  0.55060  1.0000
  H   H64       1.0  0.90830  0.55320  0.55060  1.0000
  C   C125      1.0  0.98980  0.31040  0.06140  1.0000
  C   C126      1.0  0.51020  0.68960  0.06140  1.0000
  C   C127      1.0  0.48980  0.68960  0.43860  1.0000
  C   C128      1.0  0.01020  0.31040  0.43860  1.0000
  C   C129      1.0  0.01020  0.68960  0.93860  1.0000
  C   C130      1.0  0.48980  0.31040  0.93860  1.0000
  C   C131      1.0  0.51020  0.31040  0.56140  1.0000
  C   C132      1.0  0.98980  0.68960  0.56140  1.0000
  H   H65       1.0  0.01250  0.32870  0.08510  1.0000
  H   H66       1.0  0.48750  0.67130  0.08510  1.0000
  H   H67       1.0  0.51250  0.67130  0.41490  1.0000
  H   H68       1.0  0.98750  0.32870  0.41490  1.0000
  H   H69       1.0  0.98750  0.67130  0.91490  1.0000
  H   H70       1.0  0.51250  0.32870  0.91490  1.0000
  H   H71       1.0  0.48750  0.32870  0.58510  1.0000
  H   H72       1.0  0.01250  0.67130  0.58510  1.0000
  N   N5        1.0  0.75000  0.50000  0.00320  1.0000
  N   N6        1.0  0.25000  0.50000  0.49680  1.0000
  N   N7        1.0  0.25000  0.50000  0.99680  1.0000
  N   N8        1.0  0.75000  0.50000  0.50320  1.0000
  C   C133      1.0  0.81110  0.42320  0.94680  1.0000
  C   C134      1.0  0.68890  0.57680  0.94680  1.0000
  C   C135      1.0  0.31110  0.57680  0.55320  1.0000
  C   C136      1.0  0.18890  0.42320  0.55320  1.0000
  C   C137      1.0  0.18890  0.57680  0.05320  1.0000
  C   C138      1.0  0.31110  0.42320  0.05320  1.0000
  C   C139      1.0  0.68890  0.42320  0.44680  1.0000
  C   C140      1.0  0.81110  0.57680  0.44680  1.0000
  H   H73       1.0  0.85240  0.36980  0.93470  1.0000
  H   H74       1.0  0.64760  0.63020  0.93470  1.0000
  H   H75       1.0  0.35240  0.63020  0.56530  1.0000
  H   H76       1.0  0.14760  0.36980  0.56530  1.0000
  H   H77       1.0  0.14760  0.63020  0.06530  1.0000
  H   H78       1.0  0.35240  0.36980  0.06530  1.0000
  H   H79       1.0  0.64760  0.36980  0.43470  1.0000
  H   H80       1.0  0.85240  0.63020  0.43470  1.0000
  C   C141      1.0  0.81060  0.42600  0.98460  1.0000
  C   C142      1.0  0.68940  0.57400  0.98460  1.0000
  C   C143      1.0  0.31060  0.57400  0.51540  1.0000
  C   C144      1.0  0.18940  0.42600  0.51540  1.0000
  C   C145      1.0  0.18940  0.57400  0.01540  1.0000
  C   C146      1.0  0.31060  0.42600  0.01540  1.0000
  C   C147      1.0  0.68940  0.42600  0.48460  1.0000
  C   C148      1.0  0.81060  0.57400  0.48460  1.0000
  C   C149      1.0  0.75000  0.50000  0.88640  1.0000
  C   C150      1.0  0.25000  0.50000  0.61360  1.0000
  C   C151      1.0  0.25000  0.50000  0.11360  1.0000
  C   C152      1.0  0.75000  0.50000  0.38640  1.0000
  C   C153      1.0  0.75320  0.40650  0.86750  1.0000
  C   C154      1.0  0.74680  0.59350  0.86750  1.0000
  C   C155      1.0  0.25320  0.59350  0.63250  1.0000
  C   C156      1.0  0.24680  0.40650  0.63250  1.0000
  C   C157      1.0  0.24680  0.59350  0.13250  1.0000
  C   C158      1.0  0.25320  0.40650  0.13250  1.0000
  C   C159      1.0  0.74680  0.40650  0.36750  1.0000
  C   C160      1.0  0.75320  0.59350  0.36750  1.0000
  H   H81       1.0  0.75500  0.34300  0.88020  1.0000
  H   H82       1.0  0.74500  0.65700  0.88020  1.0000
  H   H83       1.0  0.25500  0.65700  0.61980  1.0000
  H   H84       1.0  0.24500  0.34300  0.61980  1.0000
  H   H85       1.0  0.24500  0.65700  0.11980  1.0000
  H   H86       1.0  0.25500  0.34300  0.11980  1.0000
  H   H87       1.0  0.74500  0.34300  0.38020  1.0000
  H   H88       1.0  0.75500  0.65700  0.38020  1.0000
  C   C161      1.0  0.75000  0.50000  0.92690  1.0000
  C   C162      1.0  0.25000  0.50000  0.57310  1.0000
  C   C163      1.0  0.25000  0.50000  0.07310  1.0000
  C   C164      1.0  0.75000  0.50000  0.42690  1.0000
  C   C165      1.0  0.75360  0.40680  0.82960  1.0000
  C   C166      1.0  0.74640  0.59320  0.82960  1.0000
  C   C167      1.0  0.25360  0.59320  0.67040  1.0000
  C   C168      1.0  0.24640  0.40680  0.67040  1.0000
  C   C169      1.0  0.24640  0.59320  0.17040  1.0000
  C   C170      1.0  0.25360  0.40680  0.17040  1.0000
  C   C171      1.0  0.74640  0.40680  0.32960  1.0000
  C   C172      1.0  0.75360  0.59320  0.32960  1.0000
  H   H89       1.0  0.75630  0.34320  0.81700  1.0000
  H   H90       1.0  0.74370  0.65680  0.81700  1.0000
  H   H91       1.0  0.25630  0.65680  0.68300  1.0000
  H   H92       1.0  0.24370  0.34320  0.68300  1.0000
  H   H93       1.0  0.24370  0.65680  0.18300  1.0000
  H   H94       1.0  0.25630  0.34320  0.18300  1.0000
  H   H95       1.0  0.74370  0.34320  0.31700  1.0000
  H   H96       1.0  0.75630  0.65680  0.31700  1.0000
  C   C173      1.0  0.75000  0.50000  0.80990  1.0000
  C   C174      1.0  0.25000  0.50000  0.69010  1.0000
  C   C175      1.0  0.25000  0.50000  0.19010  1.0000
  C   C176      1.0  0.75000  0.50000  0.30990  1.0000
